2


 38 41  0  0  0  0  0  0  0  0999 V2000
   16.8144  -55.1355   37.6863 C   0  0  0  0  0  0  0  0  0  0  0  0
   17.5068  -54.3789   38.6078 N   0  0  0  0  0  0  0  0  0  0  0  0
   18.4251  -53.7249   37.9720 N   0  0  0  0  0  0  0  0  0  0  0  0
   18.3607  -54.0292   36.6465 N   0  0  0  0  0  0  0  0  0  0  0  0
   17.3741  -54.8989   36.4376 C   0  0  0  0  0  0  0  0  0  0  0  0
   19.2898  -53.4291   35.7405 C   0  0  0  0  0  0  0  0  0  0  0  0
   19.9659  -53.9201   34.7096 N   0  0  0  0  0  0  0  0  0  0  0  0
   20.6503  -52.9524   34.1946 O   0  0  0  0  0  0  0  0  0  0  0  0
   20.4646  -51.8390   34.8317 N   0  0  0  0  0  0  0  0  0  0  0  0
   19.6138  -52.0654   35.8232 C   0  0  0  0  0  0  0  0  0  0  0  0
   19.1010  -51.1679   36.7945 N   0  0  0  0  0  0  0  0  0  0  0  0
   18.6005  -50.3093   36.4845 H   0  0  0  0  0  0  0  0  0  0  0  0
   19.2068  -51.3336   37.8366 H   0  0  0  0  0  0  0  0  0  0  0  0
   15.5305  -57.3648   37.8852 N   0  0  0  0  0  0  0  0  0  0  0  0
   15.7088  -55.9870   38.0542 C   0  0  0  0  0  0  0  0  0  0  0  0
   14.7243  -55.3610   38.6401 O   0  0  0  0  0  0  0  0  0  0  0  0
   16.1926  -57.9944   37.4632 H   0  0  0  0  0  0  0  0  0  0  0  0
   13.8990  -59.0674   37.9798 C   0  0  0  0  0  0  0  0  0  0  0  0
   14.2928  -57.9134   38.3693 N   0  0  0  0  0  0  0  0  0  0  0  0
   10.1897  -62.8314   37.2639 Br  0  0  0  0  0  0  0  0  0  0  0  0
   10.9176  -61.3278   38.2108 C   0  0  0  0  0  0  0  0  0  0  0  0
   10.2340  -60.8506   39.3127 C   0  0  0  0  0  0  0  0  0  0  0  0
   10.7738  -59.7715   39.9780 C   0  0  0  0  0  0  0  0  0  0  0  0
   11.9575  -59.1973   39.5456 C   0  0  0  0  0  0  0  0  0  0  0  0
   12.6433  -59.6704   38.4458 C   0  0  0  0  0  0  0  0  0  0  0  0
   12.0966  -60.7506   37.7849 C   0  0  0  0  0  0  0  0  0  0  0  0
   12.7983  -61.2306   36.6639 O   0  0  0  0  0  0  0  0  0  0  0  0
    9.8249  -59.1141   41.5026 Br  0  0  0  0  0  0  0  0  0  0  0  0
    9.0431  -61.4544   39.7204 O   0  0  0  0  0  0  0  0  0  0  0  0
   12.4335  -62.0196   36.1531 H   0  0  0  0  0  0  0  0  0  0  0  0
   16.9285  -55.5035   35.1827 C   0  0  0  0  0  0  0  0  0  0  0  0
   17.7294  -56.4837   34.5519 N   0  0  0  0  0  0  0  0  0  0  0  0
   17.8197  -56.3153   33.1089 C   0  0  0  0  0  0  0  0  0  0  0  0
   16.4815  -56.1941   32.4980 C   0  0  0  0  0  0  0  0  0  0  0  0
   15.4361  -56.8438   33.0136 O   0  0  0  0  0  0  0  0  0  0  0  0
   15.5916  -57.5783   34.1442 C   0  0  0  0  0  0  0  0  0  0  0  0
   16.9665  -57.7712   34.6410 C   0  0  0  0  0  0  0  0  0  0  0  0
   18.6268  -56.6156   34.9949 H   0  0  0  0  0  0  0  0  0  0  0  0
 20 21  1  0  0  0
 21 22  2  0  0  0
 21 26  1  0  0  0
 22 23  1  0  0  0
 22 29  1  0  0  0
 23 24  2  0  0  0
 23 28  1  0  0  0
 24 25  1  0  0  0
 25 26  2  0  0  0
 25 18  1  0  0  0
 26 27  1  0  0  0
 18 19  2  0  0  0
 19 14  1  0  0  0
 14 15  1  0  0  0
 15 16  2  0  0  0
 15  1  1  0  0  0
  1  2  1  0  0  0
  1  5  2  0  0  0
  2  3  2  0  0  0
  3  4  1  0  0  0
  4  5  1  0  0  0
  4  6  1  0  0  0
  5 31  1  0  0  0
 31 32  1  0  0  0
 32 33  1  0  0  0
 32 37  1  0  0  0
 33 34  1  0  0  0
 34 35  1  0  0  0
 35 36  1  0  0  0
 36 37  1  0  0  0
  6  7  2  0  0  0
  6 10  1  0  0  0
  7  8  1  0  0  0
  8  9  1  0  0  0
  9 10  2  0  0  0
 10 11  1  0  0  0
 27 30  1  0  0  0
 14 17  1  0  0  0
 32 38  1  0  0  0
 11 12  1  0  0  0
 11 13  1  0  0  0
M  CHG 1  29  -1
M  CHG 1  32   1
M  END
> <minimizedAffinity>
-9.26762

$$$$
3


 38 41  0  0  0  0  0  0  0  0999 V2000
   16.7163  -54.9441   38.0526 C   0  0  0  0  0  0  0  0  0  0  0  0
   17.4345  -54.2134   38.9657 N   0  0  0  0  0  0  0  0  0  0  0  0
   18.3740  -53.5521   38.3485 N   0  0  0  0  0  0  0  0  0  0  0  0
   18.3505  -53.7812   37.0469 N   0  0  0  0  0  0  0  0  0  0  0  0
   17.3377  -54.6389   36.8369 C   0  0  0  0  0  0  0  0  0  0  0  0
   19.2327  -53.1747   36.1191 C   0  0  0  0  0  0  0  0  0  0  0  0
   19.9373  -53.7356   35.1132 N   0  0  0  0  0  0  0  0  0  0  0  0
   20.6230  -52.8163   34.4870 O   0  0  0  0  0  0  0  0  0  0  0  0
   20.4141  -51.6434   35.0282 N   0  0  0  0  0  0  0  0  0  0  0  0
   19.5551  -51.8282   36.0446 C   0  0  0  0  0  0  0  0  0  0  0  0
   19.0795  -50.7947   36.8803 N   0  0  0  0  0  0  0  0  0  0  0  0
   18.4167  -50.1006   36.4897 H   0  0  0  0  0  0  0  0  0  0  0  0
   19.3663  -50.7012   37.8712 H   0  0  0  0  0  0  0  0  0  0  0  0
   15.4601  -57.1750   38.1660 N   0  0  0  0  0  0  0  0  0  0  0  0
   15.5947  -55.8082   38.3687 C   0  0  0  0  0  0  0  0  0  0  0  0
   14.5937  -55.2052   38.9113 O   0  0  0  0  0  0  0  0  0  0  0  0
   16.1606  -57.8259   37.7380 H   0  0  0  0  0  0  0  0  0  0  0  0
   13.8746  -58.9047   38.0663 C   0  0  0  0  0  0  0  0  0  0  0  0
   14.2254  -57.7804   38.5811 N   0  0  0  0  0  0  0  0  0  0  0  0
   10.3964  -62.7308   36.8798 Br  0  0  0  0  0  0  0  0  0  0  0  0
   10.9968  -61.3112   37.9812 C   0  0  0  0  0  0  0  0  0  0  0  0
   10.2799  -60.9538   39.0855 C   0  0  0  0  0  0  0  0  0  0  0  0
   10.7460  -59.9056   39.8748 C   0  0  0  0  0  0  0  0  0  0  0  0
   11.9220  -59.2505   39.5234 C   0  0  0  0  0  0  0  0  0  0  0  0
   12.6472  -59.6028   38.4167 C   0  0  0  0  0  0  0  0  0  0  0  0
   12.1742  -60.6410   37.6455 C   0  0  0  0  0  0  0  0  0  0  0  0
   12.9166  -60.9893   36.5277 O   0  0  0  0  0  0  0  0  0  0  0  0
    9.7738  -59.3848   41.4165 Br  0  0  0  0  0  0  0  0  0  0  0  0
    9.1055  -61.5941   39.4536 O   0  0  0  0  0  0  0  0  0  0  0  0
   12.6108  -61.7458   35.9285 H   0  0  0  0  0  0  0  0  0  0  0  0
    8.5942  -61.3106   40.2733 H   0  0  0  0  0  0  0  0  0  0  0  0
   16.8866  -55.1699   35.5471 C   0  0  0  0  0  0  0  0  0  0  0  0
   17.1800  -56.5910   35.3435 N   0  0  0  0  0  0  0  0  0  0  0  0
   18.2022  -56.7106   34.2853 C   0  0  0  0  0  0  0  0  0  0  0  0
   17.8329  -55.8506   33.1275 C   0  0  0  0  0  0  0  0  0  0  0  0
   16.5603  -56.1568   32.7121 O   0  0  0  0  0  0  0  0  0  0  0  0
   16.0279  -57.2761   33.2961 C   0  0  0  0  0  0  0  0  0  0  0  0
   15.9613  -57.2370   34.8006 C   0  0  0  0  0  0  0  0  0  0  0  0
 20 21  1  0  0  0
 21 22  2  0  0  0
 21 26  1  0  0  0
 22 23  1  0  0  0
 22 29  1  0  0  0
 23 24  2  0  0  0
 23 28  1  0  0  0
 24 25  1  0  0  0
 25 26  2  0  0  0
 25 18  1  0  0  0
 26 27  1  0  0  0
 18 19  2  0  0  0
 19 14  1  0  0  0
 14 15  1  0  0  0
 15 16  2  0  0  0
 15  1  1  0  0  0
  1  2  1  0  0  0
  1  5  2  0  0  0
  2  3  2  0  0  0
  3  4  1  0  0  0
  4  5  1  0  0  0
  4  6  1  0  0  0
  5 32  1  0  0  0
 32 33  1  0  0  0
 33 34  1  0  0  0
 33 38  1  0  0  0
 34 35  1  0  0  0
 35 36  1  0  0  0
 36 37  1  0  0  0
 37 38  1  0  0  0
  6  7  2  0  0  0
  6 10  1  0  0  0
  7  8  1  0  0  0
  8  9  1  0  0  0
  9 10  2  0  0  0
 10 11  1  0  0  0
 27 30  1  0  0  0
 14 17  1  0  0  0
 11 12  1  0  0  0
 11 13  1  0  0  0
 29 31  1  0  0  0
M  END
> <minimizedAffinity>
-9.21740

$$$$
4


 34 37  0  0  0  0  0  0  0  0999 V2000
   14.1178  -58.1378   35.2298 C   0  0  0  0  0  0  0  0  0  0  0  0
   14.8158  -57.2749   35.9648 N   0  0  0  0  0  0  0  0  0  0  0  0
   14.6596  -57.1637   37.3154 C   0  0  0  0  0  0  0  0  0  0  0  0
   13.7607  -57.9737   37.8700 N   0  0  0  0  0  0  0  0  0  0  0  0
   13.0111  -58.8777   37.1996 C   0  0  0  0  0  0  0  0  0  0  0  0
   13.2301  -58.9230   35.8514 N   0  0  0  0  0  0  0  0  0  0  0  0
   12.0716  -59.7143   37.8293 N   0  0  0  0  0  0  0  0  0  0  0  0
   10.8053  -59.9808   37.2218 C   0  0  0  0  0  0  0  0  0  0  0  0
    9.7305  -59.6941   38.2742 C   0  0  0  0  0  0  0  0  0  0  0  0
   10.2699  -59.1994   39.4419 O   0  0  0  0  0  0  0  0  0  0  0  0
   11.2061  -60.0155   40.0266 C   0  0  0  0  0  0  0  0  0  0  0  0
   12.3741  -60.3118   39.0934 C   0  0  0  0  0  0  0  0  0  0  0  0
   15.4100  -56.2422   38.0762 N   0  0  0  0  0  0  0  0  0  0  0  0
   14.8979  -55.7429   39.3218 C   0  0  0  0  0  0  0  0  0  0  0  0
   15.0894  -54.2345   39.3164 C   0  0  0  0  0  0  0  0  0  0  0  0
   16.3663  -53.8736   38.9043 O   0  0  0  0  0  0  0  0  0  0  0  0
   16.6603  -54.2680   37.6189 C   0  0  0  0  0  0  0  0  0  0  0  0
   16.6918  -55.8015   37.6041 C   0  0  0  0  0  0  0  0  0  0  0  0
   14.3102  -58.2233   33.8237 N   0  0  0  0  0  0  0  0  0  0  0  0
   13.6115  -58.5837   33.1656 H   0  0  0  0  0  0  0  0  0  0  0  0
   15.8231  -56.5612   33.1029 C   0  0  0  0  0  0  0  0  0  0  0  0
   15.5314  -57.7898   33.2715 N   0  0  0  0  0  0  0  0  0  0  0  0
   19.2973  -56.4791   29.0003 Br  0  0  0  0  0  0  0  0  0  0  0  0
   18.7007  -55.9872   30.7477 C   0  0  0  0  0  0  0  0  0  0  0  0
   19.5078  -55.1453   31.4873 C   0  0  0  0  0  0  0  0  0  0  0  0
   19.0824  -54.7876   32.7480 C   0  0  0  0  0  0  0  0  0  0  0  0
   17.8855  -55.2508   33.2645 C   0  0  0  0  0  0  0  0  0  0  0  0
   17.0755  -56.0891   32.5357 C   0  0  0  0  0  0  0  0  0  0  0  0
   17.5029  -56.4463   31.2737 C   0  0  0  0  0  0  0  0  0  0  0  0
   16.7084  -57.2830   30.5263 O   0  0  0  0  0  0  0  0  0  0  0  0
   20.1929  -53.6215   33.7846 Br  0  0  0  0  0  0  0  0  0  0  0  0
   20.7100  -54.6890   30.9514 O   0  0  0  0  0  0  0  0  0  0  0  0
   16.9917  -57.5713   29.5850 H   0  0  0  0  0  0  0  0  0  0  0  0
   21.2941  -54.0757   31.4950 H   0  0  0  0  0  0  0  0  0  0  0  0
 23 24  1  0  0  0
 24 25  2  0  0  0
 24 29  1  0  0  0
 25 26  1  0  0  0
 25 32  1  0  0  0
 26 27  2  0  0  0
 26 31  1  0  0  0
 27 28  1  0  0  0
 28 29  2  0  0  0
 28 21  1  0  0  0
 29 30  1  0  0  0
 21 22  2  0  0  0
 22 19  1  0  0  0
 19  1  1  0  0  0
  1  2  2  0  0  0
  1  6  1  0  0  0
  2  3  1  0  0  0
  3  4  2  0  0  0
  3 13  1  0  0  0
  4  5  1  0  0  0
  5  6  2  0  0  0
  5  7  1  0  0  0
  7  8  1  0  0  0
  7 12  1  0  0  0
  8  9  1  0  0  0
  9 10  1  0  0  0
 10 11  1  0  0  0
 11 12  1  0  0  0
 13 14  1  0  0  0
 13 18  1  0  0  0
 14 15  1  0  0  0
 15 16  1  0  0  0
 16 17  1  0  0  0
 17 18  1  0  0  0
 30 33  1  0  0  0
 19 20  1  0  0  0
 32 34  1  0  0  0
M  END
> <minimizedAffinity>
-9.27590

$$$$
5


 38 41  0  0  0  0  0  0  0  0999 V2000
   18.4373  -55.2700   35.0656 N   0  0  0  0  0  0  0  0  0  0  0  0
   19.0169  -54.0408   35.1022 C   0  0  0  0  0  0  0  0  0  0  0  0
   18.4885  -53.3170   36.1377 C   0  0  0  0  0  0  0  0  0  0  0  0
   17.6087  -54.1151   36.7068 N   0  0  0  0  0  0  0  0  0  0  0  0
   17.5526  -55.3216   36.0792 C   0  0  0  0  0  0  0  0  0  0  0  0
   18.8664  -52.0417   36.4605 N   0  0  0  0  0  0  0  0  0  0  0  0
   19.8199  -51.4900   35.6999 C   0  0  0  0  0  0  0  0  0  0  0  0
   20.1660  -50.3125   35.9999 O   0  0  0  0  0  0  0  0  0  0  0  0
   20.3744  -52.1613   34.6722 N   0  0  0  0  0  0  0  0  0  0  0  0
   20.0130  -53.4121   34.3440 C   0  0  0  0  0  0  0  0  0  0  0  0
   20.5999  -54.0778   33.2926 O   0  0  0  0  0  0  0  0  0  0  0  0
   18.2272  -51.3639   37.5798 C   0  0  0  0  0  0  0  0  0  0  0  0
   16.7545  -56.4090   36.5814 N   0  0  0  0  0  0  0  0  0  0  0  0
   16.7141  -57.7389   36.1086 C   0  0  0  0  0  0  0  0  0  0  0  0
   15.7687  -58.5427   37.0432 C   0  0  0  0  0  0  0  0  0  0  0  0
   14.4726  -57.9123   36.8827 N   0  0  0  0  0  0  0  0  0  0  0  0
   14.5704  -56.7221   37.7489 C   0  0  0  0  0  0  0  0  0  0  0  0
   15.9150  -56.1128   37.7498 C   0  0  0  0  0  0  0  0  0  0  0  0
   14.2999  -57.5449   35.9229 H   0  0  0  0  0  0  0  0  0  0  0  0
   13.4000  -58.7676   37.3500 C   0  0  0  0  0  0  0  0  0  0  0  0
   12.6869  -59.3536   36.1513 C   0  0  0  0  0  0  0  0  0  0  0  0
   12.7158  -58.4253   35.1032 O   0  0  0  0  0  0  0  0  0  0  0  0
   11.7914  -58.1695   34.8324 H   0  0  0  0  0  0  0  0  0  0  0  0
   18.7290  -56.2971   34.1305 C   0  0  0  0  0  0  0  0  0  0  0  0
   18.0885  -56.3758   32.8282 C   0  0  0  0  0  0  0  0  0  0  0  0
   17.8778  -55.1872   32.1069 O   0  0  0  0  0  0  0  0  0  0  0  0
   18.7152  -54.7671   31.8408 H   0  0  0  0  0  0  0  0  0  0  0  0
   16.9812  -57.2736   32.4715 C   0  0  0  0  0  0  0  0  0  0  0  0
   17.4746  -58.5710   32.1456 O   0  0  0  0  0  0  0  0  0  0  0  0
   18.4344  -58.2785   29.3260 Br  0  0  0  0  0  0  0  0  0  0  0  0
   17.1613  -59.5390   29.9992 C   0  0  0  0  0  0  0  0  0  0  0  0
   16.8622  -59.4920   31.3697 C   0  0  0  0  0  0  0  0  0  0  0  0
   15.9573  -60.3921   31.8319 C   0  0  0  0  0  0  0  0  0  0  0  0
   15.3428  -61.3317   30.9946 C   0  0  0  0  0  0  0  0  0  0  0  0
   15.6532  -61.3579   29.6547 C   0  0  0  0  0  0  0  0  0  0  0  0
   16.5690  -60.4518   29.1646 C   0  0  0  0  0  0  0  0  0  0  0  0
   14.8816  -62.5878   28.4213 Br  0  0  0  0  0  0  0  0  0  0  0  0
   15.4554  -60.4186   33.6465 Br  0  0  0  0  0  0  0  0  0  0  0  0
 30 31  1  0  0  0
 31 32  2  0  0  0
 31 36  1  0  0  0
 32 33  1  0  0  0
 32 29  1  0  0  0
 33 34  2  0  0  0
 33 38  1  0  0  0
 34 35  1  0  0  0
 35 36  2  0  0  0
 35 37  1  0  0  0
 29 28  1  0  0  0
 28 25  1  0  0  0
 25 26  1  0  0  0
 25 24  1  0  0  0
 24  1  1  0  0  0
  1  2  1  0  0  0
  1  5  1  0  0  0
  2  3  2  0  0  0
  2 10  1  0  0  0
  3  4  1  0  0  0
  3  6  1  0  0  0
  4  5  2  0  0  0
  5 13  1  0  0  0
 13 14  1  0  0  0
 13 18  1  0  0  0
 14 15  1  0  0  0
 15 16  1  0  0  0
 16 17  1  0  0  0
 16 20  1  0  0  0
 17 18  1  0  0  0
 20 21  1  0  0  0
 21 22  1  0  0  0
  6  7  1  0  0  0
  6 12  1  0  0  0
  7  8  2  0  0  0
  7  9  1  0  0  0
  9 10  2  0  0  0
 10 11  1  0  0  0
 26 27  1  0  0  0
 16 19  1  0  0  0
 22 23  1  0  0  0
M  CHG 1  11  -1
M  CHG 1  16   1
M  END
> <minimizedAffinity>
-8.76653

$$$$
6


 34 37  0  0  0  0  0  0  0  0999 V2000
   12.4830  -59.6584   37.6912 N   0  0  0  0  0  0  0  0  0  0  0  0
   11.4905  -59.6056   38.6187 C   0  0  0  0  0  0  0  0  0  0  0  0
   10.2705  -59.6354   38.0023 C   0  0  0  0  0  0  0  0  0  0  0  0
   10.5385  -59.7072   36.6891 N   0  0  0  0  0  0  0  0  0  0  0  0
   11.8950  -59.7215   36.4947 C   0  0  0  0  0  0  0  0  0  0  0  0
    9.1327  -59.5901   38.7807 C   0  0  0  0  0  0  0  0  0  0  0  0
    9.1917  -59.5157   40.1628 C   0  0  0  0  0  0  0  0  0  0  0  0
   10.4406  -59.4868   40.7582 C   0  0  0  0  0  0  0  0  0  0  0  0
   11.5808  -59.5323   39.9814 C   0  0  0  0  0  0  0  0  0  0  0  0
   12.5255  -59.7964   35.1825 C   0  0  0  0  0  0  0  0  0  0  0  0
   12.5831  -60.8866   34.4071 N   0  0  0  0  0  0  0  0  0  0  0  0
   13.2275  -60.5846   33.2942 O   0  0  0  0  0  0  0  0  0  0  0  0
   13.5931  -59.3417   33.3116 N   0  0  0  0  0  0  0  0  0  0  0  0
   13.1737  -58.8065   34.4792 C   0  0  0  0  0  0  0  0  0  0  0  0
   13.3625  -57.4704   34.9077 N   0  0  0  0  0  0  0  0  0  0  0  0
   12.6500  -56.8275   34.5364 H   0  0  0  0  0  0  0  0  0  0  0  0
   14.2863  -57.1606   34.4985 H   0  0  0  0  0  0  0  0  0  0  0  0
   13.4509  -57.3870   35.9540 H   0  0  0  0  0  0  0  0  0  0  0  0
   13.8937  -59.6519   37.9228 C   0  0  0  0  0  0  0  0  0  0  0  0
   15.8681  -58.2707   37.1960 N   0  0  0  0  0  0  0  0  0  0  0  0
   14.5659  -58.3889   37.7410 C   0  0  0  0  0  0  0  0  0  0  0  0
   13.9947  -57.3234   38.0720 O   0  0  0  0  0  0  0  0  0  0  0  0
   16.3528  -59.1508   36.9180 H   0  0  0  0  0  0  0  0  0  0  0  0
   16.9228  -56.6408   35.8705 C   0  0  0  0  0  0  0  0  0  0  0  0
   16.5376  -57.0728   37.0100 N   0  0  0  0  0  0  0  0  0  0  0  0
   20.4891  -53.6729   33.3931 Br  0  0  0  0  0  0  0  0  0  0  0  0
   19.1992  -53.9467   34.7573 C   0  0  0  0  0  0  0  0  0  0  0  0
   18.5447  -55.1587   34.8211 C   0  0  0  0  0  0  0  0  0  0  0  0
   17.6167  -55.3703   35.7938 C   0  0  0  0  0  0  0  0  0  0  0  0
   17.3085  -54.3826   36.7360 C   0  0  0  0  0  0  0  0  0  0  0  0
   17.9757  -53.1850   36.6498 C   0  0  0  0  0  0  0  0  0  0  0  0
   18.9151  -52.9515   35.6764 C   0  0  0  0  0  0  0  0  0  0  0  0
   17.5930  -51.7996   37.9125 Br  0  0  0  0  0  0  0  0  0  0  0  0
   18.8373  -56.1462   33.8971 O   0  0  0  0  0  0  0  0  0  0  0  0
 26 27  1  0  0  0
 27 28  2  0  0  0
 27 32  1  0  0  0
 28 29  1  0  0  0
 28 34  1  0  0  0
 29 30  2  0  0  0
 29 24  1  0  0  0
 30 31  1  0  0  0
 31 32  2  0  0  0
 31 33  1  0  0  0
 24 25  2  0  0  0
 25 20  1  0  0  0
 20 21  1  0  0  0
 21 22  2  0  0  0
 21 19  1  0  0  0
 19  1  1  0  0  0
  1  2  1  0  0  0
  1  5  1  0  0  0
  2  3  2  0  0  0
  2  9  1  0  0  0
  3  4  1  0  0  0
  3  6  1  0  0  0
  4  5  2  0  0  0
  5 10  1  0  0  0
 10 11  2  0  0  0
 10 14  1  0  0  0
 11 12  1  0  0  0
 12 13  1  0  0  0
 13 14  2  0  0  0
 14 15  1  0  0  0
  6  7  2  0  0  0
  7  8  1  0  0  0
  8  9  2  0  0  0
 20 23  1  0  0  0
 15 16  1  0  0  0
 15 17  1  0  0  0
 15 18  1  0  0  0
M  CHG 1  15   1
M  CHG 1  34  -1
M  END
> <minimizedAffinity>
-9.25023

$$$$
11


 36 39  0  0  0  0  0  0  0  0999 V2000
   18.5694  -55.7758   35.0719 C   0  0  0  0  0  0  0  0  0  0  0  0
   17.8951  -55.0703   36.0819 N   0  0  0  0  0  0  0  0  0  0  0  0
   18.2414  -53.7552   36.3521 C   0  0  0  0  0  0  0  0  0  0  0  0
   17.4635  -53.3423   37.3684 C   0  0  0  0  0  0  0  0  0  0  0  0
   16.6856  -54.3609   37.6995 N   0  0  0  0  0  0  0  0  0  0  0  0
   16.9476  -55.4589   36.8927 C   0  0  0  0  0  0  0  0  0  0  0  0
   17.5448  -52.0663   37.9038 C   0  0  0  0  0  0  0  0  0  0  0  0
   18.4722  -51.2239   37.3392 C   0  0  0  0  0  0  0  0  0  0  0  0
   19.2937  -51.5949   36.2921 C   0  0  0  0  0  0  0  0  0  0  0  0
   19.1700  -52.8905   35.7938 C   0  0  0  0  0  0  0  0  0  0  0  0
   16.1703  -56.6546   37.1644 C   0  0  0  0  0  0  0  0  0  0  0  0
   16.5712  -57.9173   36.7326 N   0  0  0  0  0  0  0  0  0  0  0  0
   15.7418  -58.8027   37.1122 O   0  0  0  0  0  0  0  0  0  0  0  0
   14.7927  -58.2705   37.7718 N   0  0  0  0  0  0  0  0  0  0  0  0
   15.0272  -56.9149   37.8285 C   0  0  0  0  0  0  0  0  0  0  0  0
   14.1625  -56.0371   38.5155 N   0  0  0  0  0  0  0  0  0  0  0  0
   13.4674  -56.6367   39.1009 H   0  0  0  0  0  0  0  0  0  0  0  0
   13.5505  -55.5506   37.8491 H   0  0  0  0  0  0  0  0  0  0  0  0
   14.6518  -55.5078   39.2327 H   0  0  0  0  0  0  0  0  0  0  0  0
   16.6927  -56.1723   33.6410 N   0  0  0  0  0  0  0  0  0  0  0  0
   17.9124  -55.5808   33.6877 C   0  0  0  0  0  0  0  0  0  0  0  0
   18.6181  -54.9377   32.9133 O   0  0  0  0  0  0  0  0  0  0  0  0
   16.5661  -55.7031   32.3219 H   0  0  0  0  0  0  0  0  0  0  0  0
   14.5572  -57.2938   33.5898 C   0  0  0  0  0  0  0  0  0  0  0  0
   15.5832  -56.7085   33.5956 N   0  0  0  0  0  0  0  0  0  0  0  0
   15.2813  -62.5630   33.6384 Br  0  0  0  0  0  0  0  0  0  0  0  0
   14.3302  -60.9989   34.1402 C   0  0  0  0  0  0  0  0  0  0  0  0
   13.1859  -61.0959   34.9007 C   0  0  0  0  0  0  0  0  0  0  0  0
   12.4816  -59.9168   35.2446 C   0  0  0  0  0  0  0  0  0  0  0  0
   12.9824  -58.7299   34.7942 C   0  0  0  0  0  0  0  0  0  0  0  0
   14.1407  -58.5846   34.0172 C   0  0  0  0  0  0  0  0  0  0  0  0
   14.7836  -59.7650   33.7161 C   0  0  0  0  0  0  0  0  0  0  0  0
   12.6782  -62.2804   35.3495 O   0  0  0  0  0  0  0  0  0  0  0  0
   11.3354  -60.0447   36.0065 O   0  0  0  0  0  0  0  0  0  0  0  0
   11.2665  -59.6642   37.3380 C   0  0  0  0  0  0  0  0  0  0  0  0
   12.1025  -60.4605   38.2995 C   0  0  0  0  0  0  0  0  0  0  0  0
 26 27  1  0  0  0
 27 28  2  0  0  0
 27 32  1  0  0  0
 28 29  1  0  0  0
 28 33  1  0  0  0
 29 30  2  0  0  0
 29 34  1  0  0  0
 30 31  1  0  0  0
 31 32  2  0  0  0
 31 24  1  0  0  0
 24 25  2  0  0  0
 25 20  1  0  0  0
 20 21  1  0  0  0
 21 22  2  0  0  0
 21  1  1  0  0  0
  1  2  1  0  0  0
  2  3  1  0  0  0
  2  6  1  0  0  0
  3  4  2  0  0  0
  3 10  1  0  0  0
  4  5  1  0  0  0
  4  7  1  0  0  0
  5  6  2  0  0  0
  6 11  1  0  0  0
 11 12  2  0  0  0
 11 15  1  0  0  0
 12 13  1  0  0  0
 13 14  1  0  0  0
 14 15  2  0  0  0
 15 16  1  0  0  0
  7  8  2  0  0  0
  8  9  1  0  0  0
  9 10  2  0  0  0
 34 35  1  0  0  0
 35 36  1  0  0  0
 20 23  1  0  0  0
 16 17  1  0  0  0
 16 18  1  0  0  0
 16 19  1  0  0  0
M  CHG 1  16   1
M  CHG 1  33  -1
M  END
> <minimizedAffinity>
-9.41258

$$$$
17


 38 41  0  0  0  0  0  0  0  0999 V2000
   16.8727  -55.0418   37.8214 C   0  0  0  0  0  0  0  0  0  0  0  0
   17.6080  -54.3542   38.7048 N   0  0  0  0  0  0  0  0  0  0  0  0
   18.5202  -53.6593   38.0709 N   0  0  0  0  0  0  0  0  0  0  0  0
   18.4285  -53.8553   36.7430 N   0  0  0  0  0  0  0  0  0  0  0  0
   17.4151  -54.7080   36.5658 C   0  0  0  0  0  0  0  0  0  0  0  0
   19.3115  -53.2408   35.7984 C   0  0  0  0  0  0  0  0  0  0  0  0
   19.9322  -53.7893   34.7420 N   0  0  0  0  0  0  0  0  0  0  0  0
   20.6450  -52.8694   34.1369 O   0  0  0  0  0  0  0  0  0  0  0  0
   20.5245  -51.7180   34.7531 N   0  0  0  0  0  0  0  0  0  0  0  0
   19.6971  -51.9221   35.7939 C   0  0  0  0  0  0  0  0  0  0  0  0
   19.3177  -50.9004   36.7025 N   0  0  0  0  0  0  0  0  0  0  0  0
   19.8670  -50.6394   37.5468 H   0  0  0  0  0  0  0  0  0  0  0  0
   18.4355  -50.3467   36.5519 H   0  0  0  0  0  0  0  0  0  0  0  0
   15.8509  -57.3322   37.8243 N   0  0  0  0  0  0  0  0  0  0  0  0
   15.7552  -55.9437   38.0672 C   0  0  0  0  0  0  0  0  0  0  0  0
   14.6849  -55.4767   38.5039 O   0  0  0  0  0  0  0  0  0  0  0  0
   16.7685  -57.7131   37.4527 H   0  0  0  0  0  0  0  0  0  0  0  0
   13.8827  -58.4911   37.2193 C   0  0  0  0  0  0  0  0  0  0  0  0
   14.8387  -58.2358   38.0341 N   0  0  0  0  0  0  0  0  0  0  0  0
   11.0104  -62.4783   35.3575 Br  0  0  0  0  0  0  0  0  0  0  0  0
   11.5063  -61.2879   36.7605 C   0  0  0  0  0  0  0  0  0  0  0  0
   10.9108  -61.3514   38.0151 C   0  0  0  0  0  0  0  0  0  0  0  0
   11.2638  -60.4947   39.0325 C   0  0  0  0  0  0  0  0  0  0  0  0
   12.2363  -59.5603   38.7673 C   0  0  0  0  0  0  0  0  0  0  0  0
   12.8514  -59.4682   37.5286 C   0  0  0  0  0  0  0  0  0  0  0  0
   12.4673  -60.3459   36.5391 C   0  0  0  0  0  0  0  0  0  0  0  0
    9.9312  -62.3176   38.2249 O   0  0  0  0  0  0  0  0  0  0  0  0
    9.4796  -62.3882   39.1289 H   0  0  0  0  0  0  0  0  0  0  0  0
   10.6325  -60.6152   40.2473 O   0  0  0  0  0  0  0  0  0  0  0  0
   11.1000  -61.2879   41.3702 C   0  0  0  0  0  0  0  0  0  0  0  0
   11.6610  -60.4132   42.4445 C   0  0  0  0  0  0  0  0  0  0  0  0
   16.9007  -55.2841   35.3222 C   0  0  0  0  0  0  0  0  0  0  0  0
   17.1330  -56.6900   35.1079 N   0  0  0  0  0  0  0  0  0  0  0  0
   16.0990  -57.0920   34.1458 C   0  0  0  0  0  0  0  0  0  0  0  0
   16.1595  -56.4037   32.8405 C   0  0  0  0  0  0  0  0  0  0  0  0
   17.4646  -56.0964   32.4884 O   0  0  0  0  0  0  0  0  0  0  0  0
   18.2910  -57.0809   32.9854 C   0  0  0  0  0  0  0  0  0  0  0  0
   18.4430  -56.8773   34.4801 C   0  0  0  0  0  0  0  0  0  0  0  0
 20 21  1  0  0  0
 21 22  2  0  0  0
 21 26  1  0  0  0
 22 23  1  0  0  0
 22 27  1  0  0  0
 23 24  2  0  0  0
 23 29  1  0  0  0
 24 25  1  0  0  0
 25 26  2  0  0  0
 25 18  1  0  0  0
 18 19  2  0  0  0
 19 14  1  0  0  0
 14 15  1  0  0  0
 15 16  2  0  0  0
 15  1  1  0  0  0
  1  2  1  0  0  0
  1  5  2  0  0  0
  2  3  2  0  0  0
  3  4  1  0  0  0
  4  5  1  0  0  0
  4  6  1  0  0  0
  5 32  1  0  0  0
 32 33  1  0  0  0
 33 34  1  0  0  0
 33 38  1  0  0  0
 34 35  1  0  0  0
 35 36  1  0  0  0
 36 37  1  0  0  0
 37 38  1  0  0  0
  6  7  2  0  0  0
  6 10  1  0  0  0
  7  8  1  0  0  0
  8  9  1  0  0  0
  9 10  2  0  0  0
 10 11  1  0  0  0
 29 30  1  0  0  0
 30 31  1  0  0  0
 14 17  1  0  0  0
 11 12  1  0  0  0
 11 13  1  0  0  0
 27 28  1  0  0  0
M  END
> <minimizedAffinity>
-8.59490

$$$$
18


 37 40  0  0  0  0  0  0  0  0999 V2000
   17.2918  -54.8833   38.2108 C   0  0  0  0  0  0  0  0  0  0  0  0
   18.1072  -54.2499   38.9780 N   0  0  0  0  0  0  0  0  0  0  0  0
   19.0928  -53.7346   38.2629 N   0  0  0  0  0  0  0  0  0  0  0  0
   18.9080  -54.0554   36.9904 N   0  0  0  0  0  0  0  0  0  0  0  0
   17.8192  -54.7917   36.8200 C   0  0  0  0  0  0  0  0  0  0  0  0
   19.5672  -53.2975   35.9465 C   0  0  0  0  0  0  0  0  0  0  0  0
   20.2296  -53.6089   34.9120 N   0  0  0  0  0  0  0  0  0  0  0  0
   20.6975  -52.5406   34.2654 O   0  0  0  0  0  0  0  0  0  0  0  0
   20.3037  -51.5157   34.9307 N   0  0  0  0  0  0  0  0  0  0  0  0
   19.5907  -51.8699   36.0005 C   0  0  0  0  0  0  0  0  0  0  0  0
   19.0100  -51.0405   36.9742 N   0  0  0  0  0  0  0  0  0  0  0  0
   19.3546  -50.9902   37.9496 H   0  0  0  0  0  0  0  0  0  0  0  0
   18.1776  -50.3966   36.7528 H   0  0  0  0  0  0  0  0  0  0  0  0
   15.5232  -56.6602   38.1325 N   0  0  0  0  0  0  0  0  0  0  0  0
   15.9005  -55.2716   38.2742 C   0  0  0  0  0  0  0  0  0  0  0  0
   15.0480  -54.4217   38.5286 O   0  0  0  0  0  0  0  0  0  0  0  0
   15.7721  -57.4963   37.8064 H   0  0  0  0  0  0  0  0  0  0  0  0
   13.7595  -57.9126   38.4071 C   0  0  0  0  0  0  0  0  0  0  0  0
   14.1143  -56.7034   38.8811 N   0  0  0  0  0  0  0  0  0  0  0  0
   11.4871  -61.4535   35.3647 Br  0  0  0  0  0  0  0  0  0  0  0  0
   11.6906  -60.5360   37.0509 C   0  0  0  0  0  0  0  0  0  0  0  0
   10.8924  -60.9113   38.1105 C   0  0  0  0  0  0  0  0  0  0  0  0
   11.0295  -60.2924   39.3221 C   0  0  0  0  0  0  0  0  0  0  0  0
   11.9737  -59.2981   39.4346 C   0  0  0  0  0  0  0  0  0  0  0  0
   12.7974  -58.8828   38.4039 C   0  0  0  0  0  0  0  0  0  0  0  0
   12.6048  -59.5778   37.1532 C   0  0  0  0  0  0  0  0  0  0  0  0
    9.9456  -61.9247   37.9360 O   0  0  0  0  0  0  0  0  0  0  0  0
    9.8434  -62.3390   36.9852 H   0  0  0  0  0  0  0  0  0  0  0  0
   10.2496  -60.6567   40.4263 O   0  0  0  0  0  0  0  0  0  0  0  0
    9.2104  -59.7592   40.8664 C   0  0  0  0  0  0  0  0  0  0  0  0
   17.0861  -55.2780   35.6869 C   0  0  0  0  0  0  0  0  0  0  0  0
   17.6263  -56.4294   34.9609 N   0  0  0  0  0  0  0  0  0  0  0  0
   17.9706  -56.1109   33.6136 C   0  0  0  0  0  0  0  0  0  0  0  0
   16.8034  -55.8057   32.7189 C   0  0  0  0  0  0  0  0  0  0  0  0
   16.1331  -56.9787   32.4156 O   0  0  0  0  0  0  0  0  0  0  0  0
   16.3562  -57.9446   33.4034 C   0  0  0  0  0  0  0  0  0  0  0  0
   16.3849  -57.2922   34.7448 C   0  0  0  0  0  0  0  0  0  0  0  0
 20 21  1  0  0  0
 21 22  2  0  0  0
 21 26  1  0  0  0
 22 23  1  0  0  0
 22 27  1  0  0  0
 23 24  2  0  0  0
 23 29  1  0  0  0
 24 25  1  0  0  0
 25 26  2  0  0  0
 25 18  1  0  0  0
 18 19  2  0  0  0
 19 14  1  0  0  0
 14 15  1  0  0  0
 15 16  2  0  0  0
 15  1  1  0  0  0
  1  2  1  0  0  0
  1  5  2  0  0  0
  2  3  2  0  0  0
  3  4  1  0  0  0
  4  5  1  0  0  0
  4  6  1  0  0  0
  5 31  1  0  0  0
 31 32  1  0  0  0
 32 33  1  0  0  0
 32 37  1  0  0  0
 33 34  1  0  0  0
 34 35  1  0  0  0
 35 36  1  0  0  0
 36 37  1  0  0  0
  6  7  2  0  0  0
  6 10  1  0  0  0
  7  8  1  0  0  0
  8  9  1  0  0  0
  9 10  2  0  0  0
 10 11  1  0  0  0
 29 30  1  0  0  0
 14 17  1  0  0  0
 11 12  1  0  0  0
 11 13  1  0  0  0
 27 28  1  0  0  0
M  END
> <minimizedAffinity>
-9.12285

$$$$
20


 34 37  0  0  0  0  0  0  0  0999 V2000
   14.8837  -57.8701   33.5294 C   0  0  0  0  0  0  0  0  0  0  0  0
   14.0838  -57.9033   34.5782 N   0  0  0  0  0  0  0  0  0  0  0  0
   13.4878  -59.0657   34.9698 C   0  0  0  0  0  0  0  0  0  0  0  0
   13.7740  -60.1566   34.2204 N   0  0  0  0  0  0  0  0  0  0  0  0
   14.5792  -60.1828   33.1417 C   0  0  0  0  0  0  0  0  0  0  0  0
   15.1334  -58.9958   32.8066 N   0  0  0  0  0  0  0  0  0  0  0  0
   14.9426  -61.3625   32.5161 N   0  0  0  0  0  0  0  0  0  0  0  0
   15.7269  -61.5734   31.3614 C   0  0  0  0  0  0  0  0  0  0  0  0
   14.8194  -62.2588   30.3358 C   0  0  0  0  0  0  0  0  0  0  0  0
   14.3074  -63.3939   30.9242 O   0  0  0  0  0  0  0  0  0  0  0  0
   13.5324  -63.1879   32.0424 C   0  0  0  0  0  0  0  0  0  0  0  0
   14.4305  -62.6036   33.1705 C   0  0  0  0  0  0  0  0  0  0  0  0
   12.6940  -59.1619   36.1371 N   0  0  0  0  0  0  0  0  0  0  0  0
   13.1611  -58.5377   37.3853 C   0  0  0  0  0  0  0  0  0  0  0  0
   12.9462  -59.6199   38.4747 C   0  0  0  0  0  0  0  0  0  0  0  0
   11.5894  -59.7368   38.5756 O   0  0  0  0  0  0  0  0  0  0  0  0
   10.9992  -60.3190   37.4890 C   0  0  0  0  0  0  0  0  0  0  0  0
   11.4751  -59.8753   36.1447 C   0  0  0  0  0  0  0  0  0  0  0  0
   15.7322  -56.7125   33.1622 N   0  0  0  0  0  0  0  0  0  0  0  0
   15.4884  -56.2564   32.3049 H   0  0  0  0  0  0  0  0  0  0  0  0
   17.4652  -56.3540   34.8848 C   0  0  0  0  0  0  0  0  0  0  0  0
   16.6438  -56.5166   34.0808 N   0  0  0  0  0  0  0  0  0  0  0  0
   14.7497  -55.7449   39.3925 Br  0  0  0  0  0  0  0  0  0  0  0  0
   16.1491  -55.2274   38.1861 C   0  0  0  0  0  0  0  0  0  0  0  0
   16.8681  -54.0916   38.4373 C   0  0  0  0  0  0  0  0  0  0  0  0
   17.8727  -53.7090   37.5508 C   0  0  0  0  0  0  0  0  0  0  0  0
   18.1354  -54.4738   36.4229 C   0  0  0  0  0  0  0  0  0  0  0  0
   17.4182  -55.6038   36.1567 C   0  0  0  0  0  0  0  0  0  0  0  0
   16.4356  -55.9580   37.0538 C   0  0  0  0  0  0  0  0  0  0  0  0
   16.5672  -53.3621   39.5677 O   0  0  0  0  0  0  0  0  0  0  0  0
   15.8472  -53.5971   40.2075 H   0  0  0  0  0  0  0  0  0  0  0  0
   18.5421  -52.5724   37.8812 O   0  0  0  0  0  0  0  0  0  0  0  0
   18.5265  -51.3291   37.2746 C   0  0  0  0  0  0  0  0  0  0  0  0
   19.7282  -51.0973   36.3704 C   0  0  0  0  0  0  0  0  0  0  0  0
 23 24  1  0  0  0
 24 25  2  0  0  0
 24 29  1  0  0  0
 25 26  1  0  0  0
 25 30  1  0  0  0
 26 27  2  0  0  0
 26 32  1  0  0  0
 27 28  1  0  0  0
 28 29  2  0  0  0
 28 21  1  0  0  0
 21 22  2  0  0  0
 22 19  1  0  0  0
 19  1  1  0  0  0
  1  2  2  0  0  0
  1  6  1  0  0  0
  2  3  1  0  0  0
  3  4  2  0  0  0
  3 13  1  0  0  0
  4  5  1  0  0  0
  5  6  2  0  0  0
  5  7  1  0  0  0
  7  8  1  0  0  0
  7 12  1  0  0  0
  8  9  1  0  0  0
  9 10  1  0  0  0
 10 11  1  0  0  0
 11 12  1  0  0  0
 13 14  1  0  0  0
 13 18  1  0  0  0
 14 15  1  0  0  0
 15 16  1  0  0  0
 16 17  1  0  0  0
 17 18  1  0  0  0
 32 33  1  0  0  0
 33 34  1  0  0  0
 19 20  1  0  0  0
 30 31  1  0  0  0
M  END
> <minimizedAffinity>
-8.46937

$$$$
23


 37 40  0  0  0  0  0  0  0  0999 V2000
   16.4626  -57.4542   35.4660 C   0  0  0  0  0  0  0  0  0  0  0  0
   15.0457  -57.6310   35.2268 N   0  0  0  0  0  0  0  0  0  0  0  0
   14.6982  -57.2887   33.9158 C   0  0  0  0  0  0  0  0  0  0  0  0
   13.5485  -57.2173   33.4567 O   0  0  0  0  0  0  0  0  0  0  0  0
   15.9376  -57.0275   33.1830 C   0  0  0  0  0  0  0  0  0  0  0  0
   15.9513  -56.6903   31.9714 O   0  0  0  0  0  0  0  0  0  0  0  0
   17.0452  -57.2268   34.0929 C   0  0  0  0  0  0  0  0  0  0  0  0
   18.3084  -57.1665   33.7682 C   0  0  0  0  0  0  0  0  0  0  0  0
   19.2760  -57.3120   34.7493 O   0  0  0  0  0  0  0  0  0  0  0  0
   18.7408  -56.9590   32.4079 C   0  0  0  0  0  0  0  0  0  0  0  0
   18.8158  -58.1234   31.6326 C   0  0  0  0  0  0  0  0  0  0  0  0
   19.1786  -58.0724   30.3095 C   0  0  0  0  0  0  0  0  0  0  0  0
   19.4780  -56.8655   29.7218 C   0  0  0  0  0  0  0  0  0  0  0  0
   19.3976  -55.7307   30.5071 C   0  0  0  0  0  0  0  0  0  0  0  0
   19.0338  -55.7620   31.8359 C   0  0  0  0  0  0  0  0  0  0  0  0
   19.8144  -57.1066   28.3733 O   0  0  0  0  0  0  0  0  0  0  0  0
   20.1020  -58.4931   28.2226 C   0  0  0  0  0  0  0  0  0  0  0  0
   19.3260  -59.1868   29.3185 C   0  0  0  0  0  0  0  0  0  0  0  0
   21.5726  -58.7961   28.4395 C   0  0  0  0  0  0  0  0  0  0  0  0
   18.7605  -52.7422   36.5579 Br  0  0  0  0  0  0  0  0  0  0  0  0
   17.5532  -54.1621   36.9066 C   0  0  0  0  0  0  0  0  0  0  0  0
   16.7401  -54.0947   38.0469 C   0  0  0  0  0  0  0  0  0  0  0  0
   15.8561  -55.1348   38.3033 C   0  0  0  0  0  0  0  0  0  0  0  0
   15.8117  -56.1785   37.4407 C   0  0  0  0  0  0  0  0  0  0  0  0
   16.6162  -56.2434   36.3142 C   0  0  0  0  0  0  0  0  0  0  0  0
   17.4998  -55.2307   36.0343 C   0  0  0  0  0  0  0  0  0  0  0  0
   16.7951  -53.0312   38.9120 O   0  0  0  0  0  0  0  0  0  0  0  0
   16.2136  -53.0035   39.7129 H   0  0  0  0  0  0  0  0  0  0  0  0
   15.0434  -55.0723   39.4383 O   0  0  0  0  0  0  0  0  0  0  0  0
   14.3326  -56.1730   39.9362 C   0  0  0  0  0  0  0  0  0  0  0  0
   14.1593  -58.1028   36.2706 C   0  0  0  0  0  0  0  0  0  0  0  0
   13.6362  -59.4687   36.1240 C   0  0  0  0  0  0  0  0  0  0  0  0
   12.2800  -59.6397   35.5471 C   0  0  0  0  0  0  0  0  0  0  0  0
   12.2582  -60.3137   34.2722 N   0  0  0  0  0  0  0  0  0  0  0  0
   11.3327  -61.4532   34.3506 C   0  0  0  0  0  0  0  0  0  0  0  0
   13.5853  -60.8593   34.0518 C   0  0  0  0  0  0  0  0  0  0  0  0
   12.0311  -59.7211   33.4690 H   0  0  0  0  0  0  0  0  0  0  0  0
 20 21  1  0  0  0
 21 22  2  0  0  0
 21 26  1  0  0  0
 22 23  1  0  0  0
 22 27  1  0  0  0
 23 24  2  0  0  0
 23 29  1  0  0  0
 24 25  1  0  0  0
 25 26  2  0  0  0
 25  1  1  0  0  0
  1  2  1  0  0  0
  1  7  1  0  0  0
  2  3  1  0  0  0
  2 31  1  0  0  0
  3  4  2  0  0  0
  3  5  1  0  0  0
  5  6  2  0  0  0
  5  7  1  0  0  0
  7  8  2  0  0  0
  8  9  1  0  0  0
  8 10  1  0  0  0
 10 11  2  0  0  0
 10 15  1  0  0  0
 11 12  1  0  0  0
 12 13  2  0  0  0
 12 18  1  0  0  0
 13 14  1  0  0  0
 13 16  1  0  0  0
 14 15  2  0  0  0
 16 17  1  0  0  0
 17 18  1  0  0  0
 17 19  1  0  0  0
 31 32  1  0  0  0
 32 33  1  0  0  0
 33 34  1  0  0  0
 34 35  1  0  0  0
 34 36  1  0  0  0
 29 30  1  0  0  0
 34 37  1  0  0  0
 27 28  1  0  0  0
M  CHG 1   9  -1
M  CHG 1  34   1
M  END
> <minimizedAffinity>
-8.80153

$$$$
26


 29 32  0  0  0  0  0  0  0  0999 V2000
   17.5169  -57.8661   34.6723 C   0  0  0  0  0  0  0  0  0  0  0  0
   16.6101  -58.6338   33.9248 N   0  0  0  0  0  0  0  0  0  0  0  0
   15.3186  -58.8871   34.4398 C   0  0  0  0  0  0  0  0  0  0  0  0
   15.1722  -58.7246   35.9287 C   0  0  0  0  0  0  0  0  0  0  0  0
   15.8270  -57.4889   36.4198 C   0  0  0  0  0  0  0  0  0  0  0  0
   15.5137  -56.6141   37.4247 C   0  0  0  0  0  0  0  0  0  0  0  0
   16.5116  -55.6559   37.3892 C   0  0  0  0  0  0  0  0  0  0  0  0
   17.3846  -55.9611   36.3924 N   0  0  0  0  0  0  0  0  0  0  0  0
   16.9677  -57.0855   35.7954 C   0  0  0  0  0  0  0  0  0  0  0  0
   16.4306  -54.6397   38.3171 C   0  0  0  0  0  0  0  0  0  0  0  0
   15.4056  -54.5781   39.2371 C   0  0  0  0  0  0  0  0  0  0  0  0
   14.4114  -55.5341   39.2709 C   0  0  0  0  0  0  0  0  0  0  0  0
   14.4779  -56.5629   38.3459 C   0  0  0  0  0  0  0  0  0  0  0  0
   16.5014  -58.2642   32.9368 H   0  0  0  0  0  0  0  0  0  0  0  0
   17.0680  -59.5836   33.7396 H   0  0  0  0  0  0  0  0  0  0  0  0
   18.2141  -55.3584   36.2002 H   0  0  0  0  0  0  0  0  0  0  0  0
   18.7957  -56.6874   29.6361 Br  0  0  0  0  0  0  0  0  0  0  0  0
   18.8031  -56.3099   31.4992 C   0  0  0  0  0  0  0  0  0  0  0  0
   19.4174  -55.1733   31.9672 C   0  0  0  0  0  0  0  0  0  0  0  0
   19.4068  -54.9250   33.3235 C   0  0  0  0  0  0  0  0  0  0  0  0
   18.8130  -55.7548   34.2498 C   0  0  0  0  0  0  0  0  0  0  0  0
   18.1982  -56.8928   33.7729 C   0  0  0  0  0  0  0  0  0  0  0  0
   18.1940  -57.1651   32.4226 C   0  0  0  0  0  0  0  0  0  0  0  0
   20.2659  -53.3430   33.9495 Br  0  0  0  0  0  0  0  0  0  0  0  0
   20.0479  -54.2735   31.0842 O   0  0  0  0  0  0  0  0  0  0  0  0
   20.0324  -54.4944   30.0984 H   0  0  0  0  0  0  0  0  0  0  0  0
   14.2676  -58.0482   33.8007 C   0  0  0  0  0  0  0  0  0  0  0  0
   14.6010  -56.9518   33.2344 O   0  0  0  0  0  0  0  0  0  0  0  0
   12.9460  -58.4624   33.8298 O   0  0  0  0  0  0  0  0  0  0  0  0
 17 18  1  0  0  0
 18 19  2  0  0  0
 18 23  1  0  0  0
 19 20  1  0  0  0
 19 25  1  0  0  0
 20 21  2  0  0  0
 20 24  1  0  0  0
 21 22  1  0  0  0
 22 23  2  0  0  0
 22  1  1  0  0  0
  1  2  1  0  0  0
  1  9  1  0  0  0
  2  3  1  0  0  0
  3  4  1  0  0  0
  3 27  1  0  0  0
  4  5  1  0  0  0
  5  6  1  0  0  0
  5  9  2  0  0  0
  6  7  2  0  0  0
  6 13  1  0  0  0
  7  8  1  0  0  0
  7 10  1  0  0  0
  8  9  1  0  0  0
 10 11  2  0  0  0
 11 12  1  0  0  0
 12 13  2  0  0  0
 27 28  2  0  0  0
 27 29  1  0  0  0
  2 14  1  0  0  0
  2 15  1  0  0  0
  8 16  1  0  0  0
 25 26  1  0  0  0
M  CHG 1   2   1
M  END
> <minimizedAffinity>
-10.40601

$$$$
31


 24 27  0  0  0  0  0  0  0  0999 V2000
   16.3354  -52.1367   39.0658 Br  0  0  0  0  0  0  0  0  0  0  0  0
   17.5569  -52.5254   37.6352 C   0  0  0  0  0  0  0  0  0  0  0  0
   17.5136  -53.7023   36.9765 C   0  0  0  0  0  0  0  0  0  0  0  0
   18.4661  -54.0037   35.9597 C   0  0  0  0  0  0  0  0  0  0  0  0
   19.4116  -53.0760   35.6898 C   0  0  0  0  0  0  0  0  0  0  0  0
   19.4459  -51.8823   36.3838 C   0  0  0  0  0  0  0  0  0  0  0  0
   18.5315  -51.5934   37.3498 C   0  0  0  0  0  0  0  0  0  0  0  0
   18.5335  -55.4426   35.6380 C   0  0  0  0  0  0  0  0  0  0  0  0
   17.7808  -55.9989   34.5898 N   0  0  0  0  0  0  0  0  0  0  0  0
   17.0130  -55.2285   33.7477 C   0  0  0  0  0  0  0  0  0  0  0  0
   16.4343  -56.0108   32.6579 N   0  0  0  0  0  0  0  0  0  0  0  0
   15.6280  -57.0625   33.2552 C   0  0  0  0  0  0  0  0  0  0  0  0
   16.3901  -57.8774   34.1786 N   0  0  0  0  0  0  0  0  0  0  0  0
   17.0166  -57.1392   35.2025 C   0  0  0  0  0  0  0  0  0  0  0  0
   17.3795  -58.6108   33.4167 C   0  0  0  0  0  0  0  0  0  0  0  0
   18.2380  -57.5768   32.7324 C   0  0  0  0  0  0  0  0  0  0  0  0
   18.8312  -56.7150   33.7847 C   0  0  0  0  0  0  0  0  0  0  0  0
   17.4218  -56.6566   31.8285 C   0  0  0  0  0  0  0  0  0  0  0  0
   16.5727  -54.6279   37.2564 O   0  0  0  0  0  0  0  0  0  0  0  0
   16.5175  -55.3669   38.4933 C   0  0  0  0  0  0  0  0  0  0  0  0
   15.2153  -55.8813   38.9085 C   0  0  0  0  0  0  0  0  0  0  0  0
   14.3881  -55.2632   39.5634 O   0  0  0  0  0  0  0  0  0  0  0  0
   14.8752  -57.1739   38.4939 O   0  0  0  0  0  0  0  0  0  0  0  0
   13.9895  -57.4315   37.4372 C   0  0  0  0  0  0  0  0  0  0  0  0
  1  2  1  0  0  0
  2  3  2  0  0  0
  2  7  1  0  0  0
  3  4  1  0  0  0
  3 19  1  0  0  0
  4  5  2  0  0  0
  4  8  1  0  0  0
  5  6  1  0  0  0
  6  7  2  0  0  0
  8  9  1  0  0  0
  9 10  1  0  0  0
  9 14  1  0  0  0
  9 17  1  0  0  0
 10 11  1  0  0  0
 11 12  1  0  0  0
 11 18  1  0  0  0
 12 13  1  0  0  0
 13 14  1  0  0  0
 13 15  1  0  0  0
 15 16  1  0  0  0
 16 17  1  0  0  0
 16 18  1  0  0  0
 19 20  1  0  0  0
 20 21  1  0  0  0
 21 22  2  0  0  0
 21 23  1  0  0  0
 23 24  1  0  0  0
M  CHG 1   9   1
M  END
> <minimizedAffinity>
-7.91944

$$$$
33


 33 36  0  0  0  0  0  0  0  0999 V2000
   13.4298  -57.8957   38.2888 C   0  0  0  0  0  0  0  0  0  0  0  0
   12.6707  -58.9181   38.6497 N   0  0  0  0  0  0  0  0  0  0  0  0
   12.3066  -59.9186   37.8289 C   0  0  0  0  0  0  0  0  0  0  0  0
   12.7586  -59.8536   36.5576 N   0  0  0  0  0  0  0  0  0  0  0  0
   13.5425  -58.8291   36.1270 C   0  0  0  0  0  0  0  0  0  0  0  0
   13.8690  -57.8556   37.0130 N   0  0  0  0  0  0  0  0  0  0  0  0
   13.9939  -58.7656   34.7934 N   0  0  0  0  0  0  0  0  0  0  0  0
   13.7093  -57.6267   33.9588 C   0  0  0  0  0  0  0  0  0  0  0  0
   15.0717  -57.1733   33.4140 C   0  0  0  0  0  0  0  0  0  0  0  0
   15.7018  -58.2523   32.8281 O   0  0  0  0  0  0  0  0  0  0  0  0
   16.0957  -59.1736   33.7977 C   0  0  0  0  0  0  0  0  0  0  0  0
   14.7778  -59.8425   34.2440 C   0  0  0  0  0  0  0  0  0  0  0  0
   11.4759  -61.0069   38.2661 N   0  0  0  0  0  0  0  0  0  0  0  0
   12.0393  -62.2708   38.6469 C   0  0  0  0  0  0  0  0  0  0  0  0
   11.1324  -63.2283   39.3161 C   0  0  0  0  0  0  0  0  0  0  0  0
    9.7819  -62.9437   39.1695 O   0  0  0  0  0  0  0  0  0  0  0  0
    9.4939  -61.6153   39.4510 C   0  0  0  0  0  0  0  0  0  0  0  0
   10.0585  -60.7984   38.3147 C   0  0  0  0  0  0  0  0  0  0  0  0
   13.7369  -56.8653   39.2198 N   0  0  0  0  0  0  0  0  0  0  0  0
   13.4045  -56.9455   40.1880 H   0  0  0  0  0  0  0  0  0  0  0  0
   15.7576  -55.6775   38.9227 C   0  0  0  0  0  0  0  0  0  0  0  0
   14.4750  -55.7609   38.8284 N   0  0  0  0  0  0  0  0  0  0  0  0
   19.5532  -53.3898   35.8981 Br  0  0  0  0  0  0  0  0  0  0  0  0
   18.1545  -53.3364   37.1847 C   0  0  0  0  0  0  0  0  0  0  0  0
   17.8124  -52.1085   37.7289 C   0  0  0  0  0  0  0  0  0  0  0  0
   16.7968  -52.0962   38.6658 C   0  0  0  0  0  0  0  0  0  0  0  0
   16.1599  -53.2517   39.0377 C   0  0  0  0  0  0  0  0  0  0  0  0
   16.4852  -54.4976   38.5026 C   0  0  0  0  0  0  0  0  0  0  0  0
   17.5000  -54.4907   37.5707 C   0  0  0  0  0  0  0  0  0  0  0  0
   15.1336  -53.2320   39.9880 O   0  0  0  0  0  0  0  0  0  0  0  0
   18.4535  -50.9281   37.3589 O   0  0  0  0  0  0  0  0  0  0  0  0
   14.8746  -52.3392   40.3970 H   0  0  0  0  0  0  0  0  0  0  0  0
   19.1953  -50.8834   36.6767 H   0  0  0  0  0  0  0  0  0  0  0  0
 23 24  1  0  0  0
 24 25  2  0  0  0
 24 29  1  0  0  0
 25 26  1  0  0  0
 25 31  1  0  0  0
 26 27  2  0  0  0
 27 28  1  0  0  0
 27 30  1  0  0  0
 28 29  2  0  0  0
 28 21  1  0  0  0
 21 22  2  0  0  0
 22 19  1  0  0  0
 19  1  1  0  0  0
  1  2  2  0  0  0
  1  6  1  0  0  0
  2  3  1  0  0  0
  3  4  2  0  0  0
  3 13  1  0  0  0
  4  5  1  0  0  0
  5  6  2  0  0  0
  5  7  1  0  0  0
  7  8  1  0  0  0
  7 12  1  0  0  0
  8  9  1  0  0  0
  9 10  1  0  0  0
 10 11  1  0  0  0
 11 12  1  0  0  0
 13 14  1  0  0  0
 13 18  1  0  0  0
 14 15  1  0  0  0
 15 16  1  0  0  0
 16 17  1  0  0  0
 17 18  1  0  0  0
 19 20  1  0  0  0
 30 32  1  0  0  0
 31 33  1  0  0  0
M  END
> <minimizedAffinity>
-9.75315

$$$$
35


 33 36  0  0  0  0  0  0  0  0999 V2000
   17.7088  -57.5672   33.4548 C   0  0  0  0  0  0  0  0  0  0  0  0
   16.6266  -57.5469   34.2383 N   0  0  0  0  0  0  0  0  0  0  0  0
   15.5202  -58.2890   33.9657 C   0  0  0  0  0  0  0  0  0  0  0  0
   15.5173  -59.0668   32.8717 N   0  0  0  0  0  0  0  0  0  0  0  0
   16.5881  -59.1097   32.0650 C   0  0  0  0  0  0  0  0  0  0  0  0
   17.6813  -58.3497   32.3717 N   0  0  0  0  0  0  0  0  0  0  0  0
   16.5924  -59.9326   30.8987 N   0  0  0  0  0  0  0  0  0  0  0  0
   17.4249  -59.6794   29.7473 C   0  0  0  0  0  0  0  0  0  0  0  0
   16.6287  -59.8174   28.4672 C   0  0  0  0  0  0  0  0  0  0  0  0
   15.2977  -60.1292   28.7000 O   0  0  0  0  0  0  0  0  0  0  0  0
   15.2321  -61.3254   29.4404 C   0  0  0  0  0  0  0  0  0  0  0  0
   15.7133  -61.0837   30.8575 C   0  0  0  0  0  0  0  0  0  0  0  0
   14.4317  -58.1906   34.8560 N   0  0  0  0  0  0  0  0  0  0  0  0
   13.1371  -58.6598   34.4411 C   0  0  0  0  0  0  0  0  0  0  0  0
   12.7244  -59.6931   35.5012 C   0  0  0  0  0  0  0  0  0  0  0  0
   12.6412  -58.9822   36.6989 O   0  0  0  0  0  0  0  0  0  0  0  0
   13.8904  -58.5699   37.1505 C   0  0  0  0  0  0  0  0  0  0  0  0
   14.5696  -57.6277   36.1771 C   0  0  0  0  0  0  0  0  0  0  0  0
   18.8269  -56.7799   33.7986 N   0  0  0  0  0  0  0  0  0  0  0  0
   19.7728  -57.2031   33.6978 H   0  0  0  0  0  0  0  0  0  0  0  0
   19.2075  -55.0890   35.3979 C   0  0  0  0  0  0  0  0  0  0  0  0
   18.6891  -55.4444   34.2687 N   0  0  0  0  0  0  0  0  0  0  0  0
   17.0687  -54.8198   37.5695 Br  0  0  0  0  0  0  0  0  0  0  0  0
   18.2211  -53.4365   36.9428 C   0  0  0  0  0  0  0  0  0  0  0  0
   18.1375  -52.1608   37.4706 C   0  0  0  0  0  0  0  0  0  0  0  0
   18.9874  -51.1727   36.9974 C   0  0  0  0  0  0  0  0  0  0  0  0
   19.8983  -51.4735   36.0098 C   0  0  0  0  0  0  0  0  0  0  0  0
   19.9512  -52.7642   35.5059 C   0  0  0  0  0  0  0  0  0  0  0  0
   19.1220  -53.7624   35.9568 C   0  0  0  0  0  0  0  0  0  0  0  0
   20.7275  -50.4558   35.5650 O   0  0  0  0  0  0  0  0  0  0  0  0
   17.2206  -51.8635   38.4620 O   0  0  0  0  0  0  0  0  0  0  0  0
   21.6318  -50.2435   35.9638 H   0  0  0  0  0  0  0  0  0  0  0  0
   16.6133  -52.6032   38.7899 H   0  0  0  0  0  0  0  0  0  0  0  0
 23 24  1  0  0  0
 24 25  2  0  0  0
 24 29  1  0  0  0
 25 26  1  0  0  0
 25 31  1  0  0  0
 26 27  2  0  0  0
 27 28  1  0  0  0
 27 30  1  0  0  0
 28 29  2  0  0  0
 29 21  1  0  0  0
 21 22  2  0  0  0
 22 19  1  0  0  0
 19  1  1  0  0  0
  1  2  2  0  0  0
  1  6  1  0  0  0
  2  3  1  0  0  0
  3  4  2  0  0  0
  3 13  1  0  0  0
  4  5  1  0  0  0
  5  6  2  0  0  0
  5  7  1  0  0  0
  7  8  1  0  0  0
  7 12  1  0  0  0
  8  9  1  0  0  0
  9 10  1  0  0  0
 10 11  1  0  0  0
 11 12  1  0  0  0
 13 14  1  0  0  0
 13 18  1  0  0  0
 14 15  1  0  0  0
 15 16  1  0  0  0
 16 17  1  0  0  0
 17 18  1  0  0  0
 19 20  1  0  0  0
 30 32  1  0  0  0
 31 33  1  0  0  0
M  END
> <minimizedAffinity>
-9.28086

$$$$
37


 27 30  0  0  0  0  0  0  0  0999 V2000
   14.9531  -57.5285   35.3259 N   0  0  0  0  0  0  0  0  0  0  0  0
   16.3315  -57.1124   35.4344 C   0  0  0  0  0  0  0  0  0  0  0  0
   16.8669  -57.4507   34.0603 C   0  0  0  0  0  0  0  0  0  0  0  0
   15.7604  -56.9088   33.1726 C   0  0  0  0  0  0  0  0  0  0  0  0
   14.5792  -57.3233   33.9755 C   0  0  0  0  0  0  0  0  0  0  0  0
   13.4278  -57.4661   33.5123 O   0  0  0  0  0  0  0  0  0  0  0  0
   11.6731  -59.6302   40.0539 Br  0  0  0  0  0  0  0  0  0  0  0  0
   12.6979  -58.9663   38.5903 C   0  0  0  0  0  0  0  0  0  0  0  0
   12.7269  -59.7030   37.4121 C   0  0  0  0  0  0  0  0  0  0  0  0
   13.4677  -59.2048   36.3755 C   0  0  0  0  0  0  0  0  0  0  0  0
   14.1868  -58.0299   36.4127 C   0  0  0  0  0  0  0  0  0  0  0  0
   14.1313  -57.3200   37.6149 C   0  0  0  0  0  0  0  0  0  0  0  0
   13.3974  -57.7811   38.6901 C   0  0  0  0  0  0  0  0  0  0  0  0
   11.9629  -60.9779   37.3369 C   0  0  0  0  0  0  0  0  0  0  0  0
   18.1627  -56.7940   33.7896 C   0  0  0  0  0  0  0  0  0  0  0  0
   19.1481  -57.4465   33.3693 O   0  0  0  0  0  0  0  0  0  0  0  0
   18.2850  -55.4062   34.0099 N   0  0  0  0  0  0  0  0  0  0  0  0
   17.4773  -54.8598   34.3581 H   0  0  0  0  0  0  0  0  0  0  0  0
   19.5301  -54.7236   33.7561 C   0  0  0  0  0  0  0  0  0  0  0  0
   19.6428  -53.4853   34.5768 C   0  0  0  0  0  0  0  0  0  0  0  0
   18.9621  -53.1730   35.7080 N   0  0  0  0  0  0  0  0  0  0  0  0
   19.3543  -51.9648   36.1458 C   0  0  0  0  0  0  0  0  0  0  0  0
   20.2905  -51.5484   35.2555 N   0  0  0  0  0  0  0  0  0  0  0  0
   20.4641  -52.4557   34.3161 N   0  0  0  0  0  0  0  0  0  0  0  0
   18.6200  -51.5867   37.3977 C   0  0  0  0  0  0  0  0  0  0  0  0
   17.4782  -52.5784   37.4091 C   0  0  0  0  0  0  0  0  0  0  0  0
   17.9472  -53.7494   36.5714 C   0  0  0  0  0  0  0  0  0  0  0  0
  7  8  1  0  0  0
  8  9  2  0  0  0
  8 13  1  0  0  0
  9 10  1  0  0  0
  9 14  1  0  0  0
 10 11  2  0  0  0
 11 12  1  0  0  0
 11  1  1  0  0  0
 12 13  2  0  0  0
  1  2  1  0  0  0
  1  5  1  0  0  0
  2  3  1  0  0  0
  3  4  1  0  0  0
  3 15  1  0  0  0
  4  5  1  0  0  0
  5  6  2  0  0  0
 15 16  2  0  0  0
 15 17  1  0  0  0
 17 19  1  0  0  0
 19 20  1  0  0  0
 20 21  1  0  0  0
 20 24  2  0  0  0
 21 22  1  0  0  0
 21 27  1  0  0  0
 22 23  2  0  0  0
 22 25  1  0  0  0
 23 24  1  0  0  0
 25 26  1  0  0  0
 26 27  1  0  0  0
 17 18  1  0  0  0
M  END
> <minimizedAffinity>
-9.73518

$$$$
39


 21 23  0  0  0  0  0  0  0  0999 V2000
   16.1805  -56.5370   37.2574 N   0  0  0  0  0  0  0  0  0  0  0  0
   14.9201  -56.9982   37.6408 C   0  0  0  0  0  0  0  0  0  0  0  0
   14.0771  -56.2389   38.1393 O   0  0  0  0  0  0  0  0  0  0  0  0
   16.8336  -57.2648   36.8392 H   0  0  0  0  0  0  0  0  0  0  0  0
   17.2854  -55.6423   34.6088 Br  0  0  0  0  0  0  0  0  0  0  0  0
   17.2745  -54.6079   36.2289 C   0  0  0  0  0  0  0  0  0  0  0  0
   16.7056  -55.2275   37.3511 C   0  0  0  0  0  0  0  0  0  0  0  0
   16.7118  -54.4638   38.4989 C   0  0  0  0  0  0  0  0  0  0  0  0
   17.2472  -53.1738   38.5214 C   0  0  0  0  0  0  0  0  0  0  0  0
   17.7995  -52.5878   37.4088 C   0  0  0  0  0  0  0  0  0  0  0  0
   17.8002  -53.3393   36.2584 C   0  0  0  0  0  0  0  0  0  0  0  0
   18.3685  -51.2064   37.4529 C   0  0  0  0  0  0  0  0  0  0  0  0
   14.5910  -58.4236   37.4448 C   0  0  0  0  0  0  0  0  0  0  0  0
   14.1847  -58.7956   36.1287 N   0  0  0  0  0  0  0  0  0  0  0  0
   13.0584  -59.7327   36.2613 C   0  0  0  0  0  0  0  0  0  0  0  0
   12.2692  -59.6635   34.9775 C   0  0  0  0  0  0  0  0  0  0  0  0
   13.2562  -59.5496   33.9044 N   0  0  0  0  0  0  0  0  0  0  0  0
   13.6367  -58.1405   33.8726 C   0  0  0  0  0  0  0  0  0  0  0  0
   13.7692  -57.6593   35.3106 C   0  0  0  0  0  0  0  0  0  0  0  0
   14.4484  -60.2969   34.2725 C   0  0  0  0  0  0  0  0  0  0  0  0
   15.1879  -59.5154   35.3710 C   0  0  0  0  0  0  0  0  0  0  0  0
  5  6  1  0  0  0
  6  7  2  0  0  0
  6 11  1  0  0  0
  7  8  1  0  0  0
  7  1  1  0  0  0
  8  9  2  0  0  0
  9 10  1  0  0  0
 10 11  2  0  0  0
 10 12  1  0  0  0
  1  2  1  0  0  0
  2  3  2  0  0  0
  2 13  1  0  0  0
 13 14  1  0  0  0
 14 15  1  0  0  0
 14 19  1  0  0  0
 14 21  1  0  0  0
 15 16  1  0  0  0
 16 17  1  0  0  0
 17 18  1  0  0  0
 17 20  1  0  0  0
 18 19  1  0  0  0
 20 21  1  0  0  0
  1  4  1  0  0  0
M  CHG 1  14   1
M  END
> <minimizedAffinity>
-7.83290

$$$$
56


 24 27  0  0  0  0  0  0  0  0999 V2000
   16.1151  -56.7852   33.9695 C   0  0  0  0  0  0  0  0  0  0  0  0
   15.5138  -57.9661   33.5306 C   0  0  0  0  0  0  0  0  0  0  0  0
   15.8957  -59.3945   33.3594 C   0  0  0  0  0  0  0  0  0  0  0  0
   15.3498  -59.8157   34.6741 N   0  0  0  0  0  0  0  0  0  0  0  0
   15.6318  -58.8889   35.5353 C   0  0  0  0  0  0  0  0  0  0  0  0
   16.3547  -57.8703   34.8407 C   0  0  0  0  0  0  0  0  0  0  0  0
   15.2727  -58.9013   36.9351 N   0  0  0  0  0  0  0  0  0  0  0  0
   15.1032  -59.9371   32.3418 O   0  0  0  0  0  0  0  0  0  0  0  0
   15.9560  -60.5736   31.4610 C   0  0  0  0  0  0  0  0  0  0  0  0
   17.1506  -60.8959   32.3427 C   0  0  0  0  0  0  0  0  0  0  0  0
   17.1721  -59.7193   33.1321 O   0  0  0  0  0  0  0  0  0  0  0  0
   15.2668  -59.7848   37.4795 H   0  0  0  0  0  0  0  0  0  0  0  0
   15.0133  -58.0239   37.4230 H   0  0  0  0  0  0  0  0  0  0  0  0
   17.8633  -54.4753   35.3024 Br  0  0  0  0  0  0  0  0  0  0  0  0
   18.0018  -55.1987   33.5414 C   0  0  0  0  0  0  0  0  0  0  0  0
   17.1761  -56.2043   33.1064 C   0  0  0  0  0  0  0  0  0  0  0  0
   17.3096  -56.7055   31.8333 C   0  0  0  0  0  0  0  0  0  0  0  0
   18.2697  -56.2162   30.9580 C   0  0  0  0  0  0  0  0  0  0  0  0
   19.1074  -55.2093   31.3731 C   0  0  0  0  0  0  0  0  0  0  0  0
   18.9641  -54.7055   32.6707 C   0  0  0  0  0  0  0  0  0  0  0  0
   17.7826  -58.3038   34.7704 C   0  0  0  0  0  0  0  0  0  0  0  0
   18.9212  -58.6230   34.7239 N   0  0  0  0  0  0  0  0  0  0  0  0
   14.0213  -57.9583   33.7368 C   0  0  0  0  0  0  0  0  0  0  0  0
   12.8483  -57.9546   33.8769 N   0  0  0  0  0  0  0  0  0  0  0  0
 14 15  1  0  0  0
 15 16  2  0  0  0
 15 20  1  0  0  0
 16 17  1  0  0  0
 16  1  1  0  0  0
 17 18  2  0  0  0
 18 19  1  0  0  0
 19 20  2  0  0  0
  1  2  1  0  0  0
  1  6  1  0  0  0
  2  3  1  0  0  0
  2  6  1  0  0  0
  2 23  1  0  0  0
  3  4  1  0  0  0
  3  8  1  0  0  0
  3 11  1  0  0  0
  4  5  2  0  0  0
  5  6  1  0  0  0
  5  7  1  0  0  0
  6 21  1  0  0  0
 21 22  3  0  0  0
  8  9  1  0  0  0
  9 10  1  0  0  0
 10 11  1  0  0  0
 23 24  3  0  0  0
  7 12  1  0  0  0
  7 13  1  0  0  0
M  END
> <minimizedAffinity>
-7.48273

$$$$
64


 22 25  0  0  0  0  0  0  0  0999 V2000
   17.6670  -56.9195   33.8752 N   0  0  0  0  0  0  0  0  0  0  0  0
   16.2901  -57.0312   33.5532 C   0  0  0  0  0  0  0  0  0  0  0  0
   15.6279  -56.1427   32.9886 O   0  0  0  0  0  0  0  0  0  0  0  0
   15.7481  -58.3428   33.9767 C   0  0  0  0  0  0  0  0  0  0  0  0
   14.7133  -58.2359   35.0422 C   0  0  0  0  0  0  0  0  0  0  0  0
   15.1453  -59.1112   36.0737 O   0  0  0  0  0  0  0  0  0  0  0  0
   16.4563  -58.5804   36.1885 C   0  0  0  0  0  0  0  0  0  0  0  0
   16.9241  -58.9369   34.7724 C   0  0  0  0  0  0  0  0  0  0  0  0
   18.1221  -58.1752   34.3885 C   0  0  0  0  0  0  0  0  0  0  0  0
   19.3203  -58.5216   34.4755 O   0  0  0  0  0  0  0  0  0  0  0  0
   16.1547  -57.1395   36.3226 C   0  0  0  0  0  0  0  0  0  0  0  0
   14.9613  -56.9482   35.7609 C   0  0  0  0  0  0  0  0  0  0  0  0
   18.6861  -56.4356   31.0016 Br  0  0  0  0  0  0  0  0  0  0  0  0
   19.1001  -55.3942   32.5692 C   0  0  0  0  0  0  0  0  0  0  0  0
   18.5285  -55.7966   33.7548 C   0  0  0  0  0  0  0  0  0  0  0  0
   18.8463  -55.0290   34.8700 C   0  0  0  0  0  0  0  0  0  0  0  0
   19.6813  -53.9307   34.7982 C   0  0  0  0  0  0  0  0  0  0  0  0
   20.2409  -53.5525   33.5831 C   0  0  0  0  0  0  0  0  0  0  0  0
   19.9341  -54.3021   32.4790 C   0  0  0  0  0  0  0  0  0  0  0  0
   13.3112  -58.4520   34.6555 C   0  0  0  0  0  0  0  0  0  0  0  0
   13.1623  -58.0561   33.3130 O   0  0  0  0  0  0  0  0  0  0  0  0
   13.1563  -57.0557   33.2622 H   0  0  0  0  0  0  0  0  0  0  0  0
 13 14  1  0  0  0
 14 15  2  0  0  0
 14 19  1  0  0  0
 15 16  1  0  0  0
 15  1  1  0  0  0
 16 17  2  0  0  0
 17 18  1  0  0  0
 18 19  2  0  0  0
  1  2  1  0  0  0
  1  9  1  0  0  0
  2  3  2  0  0  0
  2  4  1  0  0  0
  4  5  1  0  0  0
  4  8  1  0  0  0
  5  6  1  0  0  0
  5 12  1  0  0  0
  5 20  1  0  0  0
  6  7  1  0  0  0
  7  8  1  0  0  0
  7 11  1  0  0  0
  8  9  1  0  0  0
  9 10  2  0  0  0
 11 12  2  0  0  0
 20 21  1  0  0  0
 21 22  1  0  0  0
M  END
> <minimizedAffinity>
-7.79359

$$$$
67


 22 25  0  0  0  0  0  0  0  0999 V2000
   17.7448  -56.3990   34.3274 N   0  0  0  0  0  0  0  0  0  0  0  0
   17.7576  -55.4508   33.1970 C   0  0  0  0  0  0  0  0  0  0  0  0
   17.9210  -56.3500   32.0619 C   0  0  0  0  0  0  0  0  0  0  0  0
   16.7421  -56.9184   31.5504 O   0  0  0  0  0  0  0  0  0  0  0  0
   17.3893  -57.8162   30.6602 C   0  0  0  0  0  0  0  0  0  0  0  0
   18.1210  -58.6519   31.7194 C   0  0  0  0  0  0  0  0  0  0  0  0
   18.7503  -57.5596   32.5264 C   0  0  0  0  0  0  0  0  0  0  0  0
   18.4788  -57.5593   33.9546 C   0  0  0  0  0  0  0  0  0  0  0  0
   18.8313  -58.4431   34.7627 O   0  0  0  0  0  0  0  0  0  0  0  0
   18.3133  -56.8806   29.9541 C   0  0  0  0  0  0  0  0  0  0  0  0
   18.5433  -55.8765   30.8295 C   0  0  0  0  0  0  0  0  0  0  0  0
   18.9982  -54.1390   36.1548 Br  0  0  0  0  0  0  0  0  0  0  0  0
   17.5389  -55.2794   36.5058 C   0  0  0  0  0  0  0  0  0  0  0  0
   17.1152  -56.2241   35.5871 C   0  0  0  0  0  0  0  0  0  0  0  0
   16.0271  -56.9936   35.9797 C   0  0  0  0  0  0  0  0  0  0  0  0
   15.3950  -56.8518   37.1893 C   0  0  0  0  0  0  0  0  0  0  0  0
   15.8258  -55.9178   38.0772 C   0  0  0  0  0  0  0  0  0  0  0  0
   16.8958  -55.1339   37.7371 C   0  0  0  0  0  0  0  0  0  0  0  0
   17.0308  -59.3147   32.5034 C   0  0  0  0  0  0  0  0  0  0  0  0
   15.8831  -58.8538   32.5834 O   0  0  0  0  0  0  0  0  0  0  0  0
   17.3224  -60.4979   33.1705 O   0  0  0  0  0  0  0  0  0  0  0  0
   16.9440  -61.7381   32.5612 C   0  0  0  0  0  0  0  0  0  0  0  0
 12 13  1  0  0  0
 13 14  2  0  0  0
 13 18  1  0  0  0
 14 15  1  0  0  0
 14  1  1  0  0  0
 15 16  2  0  0  0
 16 17  1  0  0  0
 17 18  2  0  0  0
  1  2  1  0  0  0
  1  8  1  0  0  0
  2  3  1  0  0  0
  3  4  1  0  0  0
  3  7  1  0  0  0
  3 11  1  0  0  0
  4  5  1  0  0  0
  5  6  1  0  0  0
  5 10  1  0  0  0
  6  7  1  0  0  0
  6 19  1  0  0  0
  7  8  1  0  0  0
  8  9  2  0  0  0
 19 20  2  0  0  0
 19 21  1  0  0  0
 21 22  1  0  0  0
 10 11  2  0  0  0
M  END
> <minimizedAffinity>
-7.54253

$$$$
81


 22 25  0  0  0  0  0  0  0  0999 V2000
   15.7297  -55.6292   38.4099 C   0  0  0  0  0  0  0  0  0  0  0  0
   15.5562  -54.3748   38.8642 N   0  0  0  0  0  0  0  0  0  0  0  0
   16.4836  -53.5774   38.3305 N   0  0  0  0  0  0  0  0  0  0  0  0
   17.2735  -54.3095   37.5189 C   0  0  0  0  0  0  0  0  0  0  0  0
   16.7900  -55.5638   37.5856 N   0  0  0  0  0  0  0  0  0  0  0  0
   18.3128  -53.6902   36.8519 C   0  0  0  0  0  0  0  0  0  0  0  0
   18.5753  -52.3417   36.9845 C   0  0  0  0  0  0  0  0  0  0  0  0
   19.6376  -51.9998   36.2283 N   0  0  0  0  0  0  0  0  0  0  0  0
   20.0529  -53.0949   35.6218 N   0  0  0  0  0  0  0  0  0  0  0  0
   19.2701  -54.1570   35.9745 C   0  0  0  0  0  0  0  0  0  0  0  0
   20.2464  -50.6882   36.0768 C   0  0  0  0  0  0  0  0  0  0  0  0
   17.7644  -51.6480   37.8037 N   0  0  0  0  0  0  0  0  0  0  0  0
   16.7433  -52.2639   38.4569 C   0  0  0  0  0  0  0  0  0  0  0  0
   14.9108  -56.8434   38.7521 C   0  0  0  0  0  0  0  0  0  0  0  0
   11.9444  -60.0149   35.6072 Br  0  0  0  0  0  0  0  0  0  0  0  0
   13.1819  -58.7302   36.2583 C   0  0  0  0  0  0  0  0  0  0  0  0
   13.4204  -58.4135   37.5705 C   0  0  0  0  0  0  0  0  0  0  0  0
   14.3647  -57.4624   37.5666 N   0  0  0  0  0  0  0  0  0  0  0  0
   14.7075  -57.1905   36.3226 N   0  0  0  0  0  0  0  0  0  0  0  0
   13.9938  -57.9590   35.4686 C   0  0  0  0  0  0  0  0  0  0  0  0
   14.0887  -57.9506   33.9641 C   0  0  0  0  0  0  0  0  0  0  0  0
   12.7336  -59.0360   38.7474 C   0  0  0  0  0  0  0  0  0  0  0  0
 15 16  1  0  0  0
 16 17  2  0  0  0
 16 20  1  0  0  0
 17 18  1  0  0  0
 17 22  1  0  0  0
 18 19  1  0  0  0
 18 14  1  0  0  0
 19 20  2  0  0  0
 20 21  1  0  0  0
 14  1  1  0  0  0
  1  2  2  0  0  0
  1  5  1  0  0  0
  2  3  1  0  0  0
  3  4  1  0  0  0
  3 13  1  0  0  0
  4  5  2  0  0  0
  4  6  1  0  0  0
  6  7  2  0  0  0
  6 10  1  0  0  0
  7  8  1  0  0  0
  7 12  1  0  0  0
  8  9  1  0  0  0
  8 11  1  0  0  0
  9 10  2  0  0  0
 12 13  2  0  0  0
M  END
> <minimizedAffinity>
-8.59014

$$$$
85


 26 29  0  0  0  0  0  0  0  0999 V2000
   17.9237  -54.7126   33.8585 C   0  0  0  0  0  0  0  0  0  0  0  0
   17.2437  -55.7211   33.1459 C   0  0  0  0  0  0  0  0  0  0  0  0
   16.0450  -56.3195   33.3828 N   0  0  0  0  0  0  0  0  0  0  0  0
   15.8588  -57.1884   32.4362 O   0  0  0  0  0  0  0  0  0  0  0  0
   16.8585  -57.1855   31.6104 N   0  0  0  0  0  0  0  0  0  0  0  0
   17.7619  -56.2801   32.0077 C   0  0  0  0  0  0  0  0  0  0  0  0
   18.9794  -55.8956   31.4836 C   0  0  0  0  0  0  0  0  0  0  0  0
   19.6432  -54.9070   32.1851 C   0  0  0  0  0  0  0  0  0  0  0  0
   19.1255  -54.3314   33.3438 C   0  0  0  0  0  0  0  0  0  0  0  0
   19.5249  -56.4607   30.3167 N   0  0  0  0  0  0  0  0  0  0  0  0
   20.4798  -57.5567   30.4566 C   0  0  0  0  0  0  0  0  0  0  0  0
   21.0963  -57.9283   29.1362 C   0  0  0  0  0  0  0  0  0  0  0  0
   21.3953  -56.8981   28.3072 O   0  0  0  0  0  0  0  0  0  0  0  0
   20.6237  -55.7742   28.3578 C   0  0  0  0  0  0  0  0  0  0  0  0
   19.2712  -56.1061   28.9529 C   0  0  0  0  0  0  0  0  0  0  0  0
   17.8358  -54.2107   36.3034 C   0  0  0  0  0  0  0  0  0  0  0  0
   19.0126  -54.6946   36.4985 O   0  0  0  0  0  0  0  0  0  0  0  0
   17.2905  -54.2087   35.0226 N   0  0  0  0  0  0  0  0  0  0  0  0
   16.3219  -53.7753   34.9421 H   0  0  0  0  0  0  0  0  0  0  0  0
   15.4849  -56.0414   38.1600 Br  0  0  0  0  0  0  0  0  0  0  0  0
   16.2075  -54.2778   38.2778 C   0  0  0  0  0  0  0  0  0  0  0  0
   17.1407  -53.6804   37.4950 C   0  0  0  0  0  0  0  0  0  0  0  0
   17.3585  -52.4085   37.9761 N   0  0  0  0  0  0  0  0  0  0  0  0
   16.5755  -52.2601   39.0117 N   0  0  0  0  0  0  0  0  0  0  0  0
   15.8453  -53.3401   39.2655 C   0  0  0  0  0  0  0  0  0  0  0  0
   18.2714  -51.4343   37.4376 C   0  0  0  0  0  0  0  0  0  0  0  0
 20 21  1  0  0  0
 21 22  2  0  0  0
 21 25  1  0  0  0
 22 23  1  0  0  0
 22 16  1  0  0  0
 23 24  1  0  0  0
 23 26  1  0  0  0
 24 25  2  0  0  0
 16 17  2  0  0  0
 16 18  1  0  0  0
 18  1  1  0  0  0
  1  2  1  0  0  0
  1  9  2  0  0  0
  2  3  2  0  0  0
  2  6  1  0  0  0
  3  4  1  0  0  0
  4  5  1  0  0  0
  5  6  2  0  0  0
  6  7  1  0  0  0
  7  8  2  0  0  0
  7 10  1  0  0  0
  8  9  1  0  0  0
 10 11  1  0  0  0
 10 15  1  0  0  0
 11 12  1  0  0  0
 12 13  1  0  0  0
 13 14  1  0  0  0
 14 15  1  0  0  0
 18 19  1  0  0  0
M  END
> <minimizedAffinity>
-8.65596

$$$$
95


 26 29  0  0  0  0  0  0  0  0999 V2000
   18.3497  -57.1116   34.5392 C   0  0  0  0  0  0  0  0  0  0  0  0
   19.1241  -58.1113   34.6900 O   0  0  0  0  0  0  0  0  0  0  0  0
   18.6822  -55.9081   33.9651 N   0  0  0  0  0  0  0  0  0  0  0  0
   19.9543  -56.3453   33.7542 H   0  0  0  0  0  0  0  0  0  0  0  0
   14.8336  -56.9479   38.5886 Br  0  0  0  0  0  0  0  0  0  0  0  0
   15.3007  -57.2687   36.7824 C   0  0  0  0  0  0  0  0  0  0  0  0
   16.6209  -57.0637   36.3637 C   0  0  0  0  0  0  0  0  0  0  0  0
   16.9408  -57.3023   35.0516 C   0  0  0  0  0  0  0  0  0  0  0  0
   15.9944  -57.7319   34.1595 C   0  0  0  0  0  0  0  0  0  0  0  0
   14.6683  -57.9404   34.5751 C   0  0  0  0  0  0  0  0  0  0  0  0
   14.3452  -57.7006   35.8954 C   0  0  0  0  0  0  0  0  0  0  0  0
   16.3950  -57.9507   32.8189 N   0  0  0  0  0  0  0  0  0  0  0  0
   16.4058  -57.0096   31.8946 N   0  0  0  0  0  0  0  0  0  0  0  0
   16.8217  -57.4901   30.7423 N   0  0  0  0  0  0  0  0  0  0  0  0
   17.0920  -58.7749   30.9059 N   0  0  0  0  0  0  0  0  0  0  0  0
   16.8265  -59.0520   32.1865 C   0  0  0  0  0  0  0  0  0  0  0  0
   19.0135  -54.7118   33.3942 C   0  0  0  0  0  0  0  0  0  0  0  0
   19.3877  -53.6317   34.3958 C   0  0  0  0  0  0  0  0  0  0  0  0
   18.6446  -53.2771   35.4668 N   0  0  0  0  0  0  0  0  0  0  0  0
   19.2525  -52.2968   36.1473 C   0  0  0  0  0  0  0  0  0  0  0  0
   20.3913  -52.0444   35.4834 N   0  0  0  0  0  0  0  0  0  0  0  0
   20.4757  -52.8544   34.4180 N   0  0  0  0  0  0  0  0  0  0  0  0
   18.6692  -51.7628   37.3040 C   0  0  0  0  0  0  0  0  0  0  0  0
   17.4683  -52.2386   37.7522 C   0  0  0  0  0  0  0  0  0  0  0  0
   16.8421  -53.2495   37.0503 C   0  0  0  0  0  0  0  0  0  0  0  0
   17.4469  -53.7550   35.9087 C   0  0  0  0  0  0  0  0  0  0  0  0
  5  6  1  0  0  0
  6  7  2  0  0  0
  6 11  1  0  0  0
  7  8  1  0  0  0
  8  9  2  0  0  0
  8  1  1  0  0  0
  9 10  1  0  0  0
  9 12  1  0  0  0
 10 11  2  0  0  0
 12 13  1  0  0  0
 12 16  1  0  0  0
 13 14  2  0  0  0
 14 15  1  0  0  0
 15 16  2  0  0  0
  1  2  2  0  0  0
  1  3  1  0  0  0
  3 17  1  0  0  0
 17 18  1  0  0  0
 18 19  1  0  0  0
 18 22  2  0  0  0
 19 20  1  0  0  0
 19 26  1  0  0  0
 20 21  2  0  0  0
 20 23  1  0  0  0
 21 22  1  0  0  0
 23 24  2  0  0  0
 24 25  1  0  0  0
 25 26  2  0  0  0
  3  4  1  0  0  0
M  END
> <minimizedAffinity>
-9.41084

$$$$
106


 29 32  0  0  0  0  0  0  0  0999 V2000
   18.5490  -54.1550   36.4759 C   0  0  0  0  0  0  0  0  0  0  0  0
   18.5684  -54.6202   35.2576 C   0  0  0  0  0  0  0  0  0  0  0  0
   17.5431  -55.3534   34.6807 O   0  0  0  0  0  0  0  0  0  0  0  0
   17.8383  -55.7162   33.3799 C   0  0  0  0  0  0  0  0  0  0  0  0
   19.0796  -55.2456   33.0165 C   0  0  0  0  0  0  0  0  0  0  0  0
   19.5731  -55.4967   31.7536 C   0  0  0  0  0  0  0  0  0  0  0  0
   18.8134  -56.2233   30.8615 C   0  0  0  0  0  0  0  0  0  0  0  0
   17.5464  -56.6943   31.2585 C   0  0  0  0  0  0  0  0  0  0  0  0
   17.0382  -56.4575   32.4987 C   0  0  0  0  0  0  0  0  0  0  0  0
   16.8902  -57.4172   30.2496 O   0  0  0  0  0  0  0  0  0  0  0  0
   19.5787  -54.5351   34.1987 C   0  0  0  0  0  0  0  0  0  0  0  0
   20.6795  -53.9503   34.3021 O   0  0  0  0  0  0  0  0  0  0  0  0
   14.4362  -57.0647   38.3947 Br  0  0  0  0  0  0  0  0  0  0  0  0
   15.6141  -55.5684   38.3466 C   0  0  0  0  0  0  0  0  0  0  0  0
   16.6370  -55.4063   37.4572 C   0  0  0  0  0  0  0  0  0  0  0  0
   17.4757  -54.3136   37.4425 C   0  0  0  0  0  0  0  0  0  0  0  0
   17.2442  -53.3258   38.4047 C   0  0  0  0  0  0  0  0  0  0  0  0
   16.2349  -53.4350   39.3213 C   0  0  0  0  0  0  0  0  0  0  0  0
   15.4207  -54.5609   39.2874 C   0  0  0  0  0  0  0  0  0  0  0  0
   18.0680  -52.2171   38.4085 O   0  0  0  0  0  0  0  0  0  0  0  0
   17.7712  -51.1096   37.5991 C   0  0  0  0  0  0  0  0  0  0  0  0
   15.7465  -56.8956   32.9513 C   0  0  0  0  0  0  0  0  0  0  0  0
   15.5564  -57.5967   34.1544 N   0  0  0  0  0  0  0  0  0  0  0  0
   14.2270  -57.5565   34.7000 C   0  0  0  0  0  0  0  0  0  0  0  0
   13.2777  -58.5546   34.0844 C   0  0  0  0  0  0  0  0  0  0  0  0
   13.8221  -59.2516   33.0145 O   0  0  0  0  0  0  0  0  0  0  0  0
   14.9448  -59.9086   33.5062 C   0  0  0  0  0  0  0  0  0  0  0  0
   15.9934  -59.0016   34.0611 C   0  0  0  0  0  0  0  0  0  0  0  0
   16.1999  -57.2139   34.8774 H   0  0  0  0  0  0  0  0  0  0  0  0
 13 14  1  0  0  0
 14 15  2  0  0  0
 14 19  1  0  0  0
 15 16  1  0  0  0
 16 17  2  0  0  0
 16  1  1  0  0  0
 17 18  1  0  0  0
 17 20  1  0  0  0
 18 19  2  0  0  0
 20 21  1  0  0  0
  1  2  2  0  0  0
  2  3  1  0  0  0
  2 11  1  0  0  0
  3  4  1  0  0  0
  4  5  2  0  0  0
  4  9  1  0  0  0
  5  6  1  0  0  0
  5 11  1  0  0  0
  6  7  2  0  0  0
  7  8  1  0  0  0
  8  9  2  0  0  0
  8 10  1  0  0  0
  9 22  1  0  0  0
 22 23  1  0  0  0
 23 24  1  0  0  0
 23 28  1  0  0  0
 24 25  1  0  0  0
 25 26  1  0  0  0
 26 27  1  0  0  0
 27 28  1  0  0  0
 11 12  2  0  0  0
 23 29  1  0  0  0
M  CHG 1  10  -1
M  CHG 1  23   1
M  END
> <minimizedAffinity>
-9.95681

$$$$
107


 31 34  0  0  0  0  0  0  0  0999 V2000
   15.7217  -57.8379   33.7120 C   0  0  0  0  0  0  0  0  0  0  0  0
   15.2438  -57.9118   34.9730 N   0  0  0  0  0  0  0  0  0  0  0  0
   14.5413  -58.9687   35.3969 C   0  0  0  0  0  0  0  0  0  0  0  0
   14.3141  -59.9724   34.5354 N   0  0  0  0  0  0  0  0  0  0  0  0
   14.7654  -59.9651   33.2526 C   0  0  0  0  0  0  0  0  0  0  0  0
   15.4716  -58.8585   32.8913 N   0  0  0  0  0  0  0  0  0  0  0  0
   14.0376  -59.0459   36.7232 N   0  0  0  0  0  0  0  0  0  0  0  0
   12.7878  -59.7008   37.0406 C   0  0  0  0  0  0  0  0  0  0  0  0
   11.9850  -58.8958   38.0513 C   0  0  0  0  0  0  0  0  0  0  0  0
   12.8097  -58.4530   39.0916 O   0  0  0  0  0  0  0  0  0  0  0  0
   13.8084  -57.6276   38.6334 C   0  0  0  0  0  0  0  0  0  0  0  0
   14.7759  -58.4590   37.8190 C   0  0  0  0  0  0  0  0  0  0  0  0
   14.5238  -61.0203   32.3545 N   0  0  0  0  0  0  0  0  0  0  0  0
   13.6267  -62.0880   32.6821 C   0  0  0  0  0  0  0  0  0  0  0  0
   14.3912  -63.3933   32.4724 C   0  0  0  0  0  0  0  0  0  0  0  0
   14.8479  -63.3896   31.1658 O   0  0  0  0  0  0  0  0  0  0  0  0
   15.8064  -62.4316   30.9335 C   0  0  0  0  0  0  0  0  0  0  0  0
   15.1832  -61.0433   31.0818 C   0  0  0  0  0  0  0  0  0  0  0  0
   16.4720  -56.7302   33.2290 N   0  0  0  0  0  0  0  0  0  0  0  0
   16.8055  -56.6951   32.2276 H   0  0  0  0  0  0  0  0  0  0  0  0
   17.7737  -55.6420   34.8727 C   0  0  0  0  0  0  0  0  0  0  0  0
   16.8093  -55.6395   34.0320 N   0  0  0  0  0  0  0  0  0  0  0  0
   16.4490  -52.3692   38.8728 Br  0  0  0  0  0  0  0  0  0  0  0  0
   17.6074  -52.9712   37.4842 C   0  0  0  0  0  0  0  0  0  0  0  0
   17.2777  -54.0584   36.7057 C   0  0  0  0  0  0  0  0  0  0  0  0
   18.1120  -54.4923   35.7041 C   0  0  0  0  0  0  0  0  0  0  0  0
   19.2903  -53.8079   35.4992 C   0  0  0  0  0  0  0  0  0  0  0  0
   19.6372  -52.7040   36.2821 C   0  0  0  0  0  0  0  0  0  0  0  0
   18.7914  -52.2709   37.2904 C   0  0  0  0  0  0  0  0  0  0  0  0
   20.1158  -54.2683   34.4802 O   0  0  0  0  0  0  0  0  0  0  0  0
   20.4455  -53.5140   33.3372 C   0  0  0  0  0  0  0  0  0  0  0  0
 23 24  1  0  0  0
 24 25  2  0  0  0
 24 29  1  0  0  0
 25 26  1  0  0  0
 26 27  2  0  0  0
 26 21  1  0  0  0
 27 28  1  0  0  0
 27 30  1  0  0  0
 28 29  2  0  0  0
 30 31  1  0  0  0
 21 22  2  0  0  0
 22 19  1  0  0  0
 19  1  1  0  0  0
  1  2  2  0  0  0
  1  6  1  0  0  0
  2  3  1  0  0  0
  3  4  2  0  0  0
  3  7  1  0  0  0
  4  5  1  0  0  0
  5  6  2  0  0  0
  5 13  1  0  0  0
 13 14  1  0  0  0
 13 18  1  0  0  0
 14 15  1  0  0  0
 15 16  1  0  0  0
 16 17  1  0  0  0
 17 18  1  0  0  0
  7  8  1  0  0  0
  7 12  1  0  0  0
  8  9  1  0  0  0
  9 10  1  0  0  0
 10 11  1  0  0  0
 11 12  1  0  0  0
 19 20  1  0  0  0
M  END
> <minimizedAffinity>
-8.59847

$$$$
111


 29 32  0  0  0  0  0  0  0  0999 V2000
   16.8290  -55.7930   34.2934 C   0  0  0  0  0  0  0  0  0  0  0  0
   15.9761  -56.6155   34.8646 N   0  0  0  0  0  0  0  0  0  0  0  0
   15.3135  -57.3533   33.9184 C   0  0  0  0  0  0  0  0  0  0  0  0
   15.7878  -56.9478   32.7185 N   0  0  0  0  0  0  0  0  0  0  0  0
   16.6749  -56.0340   32.9213 N   0  0  0  0  0  0  0  0  0  0  0  0
   14.4526  -58.1812   34.5146 N   0  0  0  0  0  0  0  0  0  0  0  0
   14.5584  -57.9723   35.8369 C   0  0  0  0  0  0  0  0  0  0  0  0
   15.5087  -56.9878   36.0835 C   0  0  0  0  0  0  0  0  0  0  0  0
   15.7998  -56.5659   37.2991 N   0  0  0  0  0  0  0  0  0  0  0  0
   15.1212  -57.1526   38.3345 C   0  0  0  0  0  0  0  0  0  0  0  0
   15.3214  -56.8287   39.5325 O   0  0  0  0  0  0  0  0  0  0  0  0
   14.1955  -58.1141   38.1334 N   0  0  0  0  0  0  0  0  0  0  0  0
   13.8973  -58.5373   36.9108 C   0  0  0  0  0  0  0  0  0  0  0  0
   13.0461  -59.4274   36.6584 O   0  0  0  0  0  0  0  0  0  0  0  0
   16.6872  -55.5166   37.7006 C   0  0  0  0  0  0  0  0  0  0  0  0
   13.6891  -58.5514   38.9316 H   0  0  0  0  0  0  0  0  0  0  0  0
   18.3551  -51.6685   37.3466 Br  0  0  0  0  0  0  0  0  0  0  0  0
   18.6649  -52.9135   35.9353 C   0  0  0  0  0  0  0  0  0  0  0  0
   17.7164  -53.8484   35.6379 C   0  0  0  0  0  0  0  0  0  0  0  0
   17.7939  -54.7972   34.6641 C   0  0  0  0  0  0  0  0  0  0  0  0
   19.0049  -54.7409   33.9364 C   0  0  0  0  0  0  0  0  0  0  0  0
   19.9874  -53.8168   34.2005 C   0  0  0  0  0  0  0  0  0  0  0  0
   19.8215  -52.8856   35.2138 C   0  0  0  0  0  0  0  0  0  0  0  0
   19.2101  -55.6526   32.9154 O   0  0  0  0  0  0  0  0  0  0  0  0
   19.7740  -55.3394   31.6800 C   0  0  0  0  0  0  0  0  0  0  0  0
   13.5720  -59.1236   33.8891 C   0  0  0  0  0  0  0  0  0  0  0  0
   14.3803  -60.2797   33.3379 C   0  0  0  0  0  0  0  0  0  0  0  0
   14.3464  -60.2129   31.9590 O   0  0  0  0  0  0  0  0  0  0  0  0
   14.7441  -61.4263   31.3716 C   0  0  0  0  0  0  0  0  0  0  0  0
 17 18  1  0  0  0
 18 19  2  0  0  0
 18 23  1  0  0  0
 19 20  1  0  0  0
 20 21  2  0  0  0
 20  1  1  0  0  0
 21 22  1  0  0  0
 21 24  1  0  0  0
 22 23  2  0  0  0
 24 25  1  0  0  0
  1  2  1  0  0  0
  1  5  2  0  0  0
  2  3  1  0  0  0
  2  8  1  0  0  0
  3  4  2  0  0  0
  3  6  1  0  0  0
  4  5  1  0  0  0
  6  7  1  0  0  0
  6 26  1  0  0  0
  7  8  2  0  0  0
  7 13  1  0  0  0
  8  9  1  0  0  0
  9 10  1  0  0  0
  9 15  1  0  0  0
 10 11  2  0  0  0
 10 12  1  0  0  0
 12 13  1  0  0  0
 13 14  2  0  0  0
 26 27  1  0  0  0
 27 28  1  0  0  0
 28 29  1  0  0  0
 12 16  1  0  0  0
M  END
> <minimizedAffinity>
-9.13622

$$$$
127


 29 32  0  0  0  0  0  0  0  0999 V2000
   15.7551  -55.7345   37.9962 N   0  0  0  0  0  0  0  0  0  0  0  0
   14.5135  -55.8852   38.6593 C   0  0  0  0  0  0  0  0  0  0  0  0
   13.5339  -56.7861   38.0107 C   0  0  0  0  0  0  0  0  0  0  0  0
   14.1140  -58.0582   37.7212 N   0  0  0  0  0  0  0  0  0  0  0  0
   15.5423  -58.1531   37.6242 C   0  0  0  0  0  0  0  0  0  0  0  0
   16.2195  -56.8540   37.2539 C   0  0  0  0  0  0  0  0  0  0  0  0
   13.3270  -59.2194   37.5008 C   0  0  0  0  0  0  0  0  0  0  0  0
   12.9717  -59.5050   36.2497 C   0  0  0  0  0  0  0  0  0  0  0  0
   13.1880  -58.9089   34.9831 N   0  0  0  0  0  0  0  0  0  0  0  0
   12.5192  -59.7460   34.0611 N   0  0  0  0  0  0  0  0  0  0  0  0
   11.9175  -60.8159   34.7642 C   0  0  0  0  0  0  0  0  0  0  0  0
   12.1537  -60.7238   36.0640 C   0  0  0  0  0  0  0  0  0  0  0  0
   11.7912  -61.5150   37.1904 N   0  0  0  0  0  0  0  0  0  0  0  0
   12.1617  -61.1947   38.3806 C   0  0  0  0  0  0  0  0  0  0  0  0
   12.9411  -60.0463   38.6182 N   0  0  0  0  0  0  0  0  0  0  0  0
   11.1173  -61.9252   34.1806 C   0  0  0  0  0  0  0  0  0  0  0  0
   13.9319  -57.7053   34.7009 C   0  0  0  0  0  0  0  0  0  0  0  0
   12.5133  -59.5426   33.0398 H   0  0  0  0  0  0  0  0  0  0  0  0
   13.2622  -59.7481   39.5553 H   0  0  0  0  0  0  0  0  0  0  0  0
   16.7368  -54.9652   38.6546 C   0  0  0  0  0  0  0  0  0  0  0  0
   16.6554  -53.5288   38.3835 C   0  0  0  0  0  0  0  0  0  0  0  0
   15.7078  -52.8660   38.8783 O   0  0  0  0  0  0  0  0  0  0  0  0
   20.1233  -54.0494   34.3558 Br  0  0  0  0  0  0  0  0  0  0  0  0
   19.2687  -53.0584   35.7370 C   0  0  0  0  0  0  0  0  0  0  0  0
   18.2932  -53.6190   36.5516 C   0  0  0  0  0  0  0  0  0  0  0  0
   17.6758  -52.9067   37.5462 C   0  0  0  0  0  0  0  0  0  0  0  0
   18.0329  -51.5934   37.7460 C   0  0  0  0  0  0  0  0  0  0  0  0
   18.9957  -51.0339   36.9447 C   0  0  0  0  0  0  0  0  0  0  0  0
   19.6301  -51.7435   35.9332 C   0  0  0  0  0  0  0  0  0  0  0  0
 23 24  1  0  0  0
 24 25  2  0  0  0
 24 29  1  0  0  0
 25 26  1  0  0  0
 26 27  2  0  0  0
 26 21  1  0  0  0
 27 28  1  0  0  0
 28 29  2  0  0  0
 21 22  2  0  0  0
 21 20  1  0  0  0
 20  1  1  0  0  0
  1  2  1  0  0  0
  1  6  1  0  0  0
  2  3  1  0  0  0
  3  4  1  0  0  0
  4  5  1  0  0  0
  4  7  1  0  0  0
  5  6  1  0  0  0
  7  8  2  0  0  0
  7 15  1  0  0  0
  8  9  1  0  0  0
  8 12  1  0  0  0
  9 10  1  0  0  0
  9 17  1  0  0  0
 10 11  1  0  0  0
 11 12  2  0  0  0
 11 16  1  0  0  0
 12 13  1  0  0  0
 13 14  2  0  0  0
 14 15  1  0  0  0
 10 18  1  0  0  0
 15 19  1  0  0  0
M  END
> <minimizedAffinity>
-9.76743

$$$$
129


 31 34  0  0  0  0  0  0  0  0999 V2000
   18.1244  -56.4540   32.5148 C   0  0  0  0  0  0  0  0  0  0  0  0
   16.8561  -56.4933   32.4464 O   0  0  0  0  0  0  0  0  0  0  0  0
   18.9070  -56.2748   31.3380 N   0  0  0  0  0  0  0  0  0  0  0  0
   20.3433  -56.3881   31.3362 C   0  0  0  0  0  0  0  0  0  0  0  0
   20.5887  -57.6375   30.4567 C   0  0  0  0  0  0  0  0  0  0  0  0
   20.3097  -57.1745   29.0520 C   0  0  0  0  0  0  0  0  0  0  0  0
   20.1642  -58.3817   28.2404 N   0  0  0  0  0  0  0  0  0  0  0  0
   21.2925  -59.2339   28.2957 C   0  0  0  0  0  0  0  0  0  0  0  0
   22.5472  -58.6011   27.7222 C   0  0  0  0  0  0  0  0  0  0  0  0
   22.5898  -57.1475   27.9682 C   0  0  0  0  0  0  0  0  0  0  0  0
   23.5580  -56.2637   27.6738 N   0  0  0  0  0  0  0  0  0  0  0  0
   23.1330  -55.0494   28.0870 C   0  0  0  0  0  0  0  0  0  0  0  0
   21.9009  -55.1986   28.6362 N   0  0  0  0  0  0  0  0  0  0  0  0
   21.5370  -56.4944   28.5793 C   0  0  0  0  0  0  0  0  0  0  0  0
   19.0812  -56.3521   28.8828 C   0  0  0  0  0  0  0  0  0  0  0  0
   18.2901  -55.9879   30.0927 C   0  0  0  0  0  0  0  0  0  0  0  0
   19.8649  -58.1622   27.2561 H   0  0  0  0  0  0  0  0  0  0  0  0
   21.4114  -54.3607   29.0095 H   0  0  0  0  0  0  0  0  0  0  0  0
   18.7129  -56.6163   33.8363 C   0  0  0  0  0  0  0  0  0  0  0  0
   18.4648  -58.0297   34.3387 C   0  0  0  0  0  0  0  0  0  0  0  0
   19.2195  -54.5439   35.1267 C   0  0  0  0  0  0  0  0  0  0  0  0
   20.3419  -54.2558   34.7494 O   0  0  0  0  0  0  0  0  0  0  0  0
   18.3798  -55.5895   34.7546 N   0  0  0  0  0  0  0  0  0  0  0  0
   17.3860  -55.6188   35.1344 H   0  0  0  0  0  0  0  0  0  0  0  0
   15.4649  -54.0227   38.8583 Br  0  0  0  0  0  0  0  0  0  0  0  0
   16.9510  -53.3365   37.8421 C   0  0  0  0  0  0  0  0  0  0  0  0
   17.5534  -54.1342   36.8984 C   0  0  0  0  0  0  0  0  0  0  0  0
   18.6226  -53.6419   36.1816 C   0  0  0  0  0  0  0  0  0  0  0  0
   19.0799  -52.3813   36.3968 C   0  0  0  0  0  0  0  0  0  0  0  0
   18.4649  -51.6024   37.3381 C   0  0  0  0  0  0  0  0  0  0  0  0
   17.3806  -52.0503   38.0956 C   0  0  0  0  0  0  0  0  0  0  0  0
 25 26  1  0  0  0
 26 27  2  0  0  0
 26 31  1  0  0  0
 27 28  1  0  0  0
 28 29  2  0  0  0
 28 21  1  0  0  0
 29 30  1  0  0  0
 30 31  2  0  0  0
 21 22  2  0  0  0
 21 23  1  0  0  0
 23 19  1  0  0  0
 19 20  1  0  0  0
 19  1  1  0  0  0
  1  2  2  0  0  0
  1  3  1  0  0  0
  3  4  1  0  0  0
  3 16  1  0  0  0
  4  5  1  0  0  0
  5  6  1  0  0  0
  6  7  1  0  0  0
  6 14  1  0  0  0
  6 15  1  0  0  0
  7  8  1  0  0  0
  8  9  1  0  0  0
  9 10  1  0  0  0
 10 11  1  0  0  0
 10 14  2  0  0  0
 11 12  2  0  0  0
 12 13  1  0  0  0
 13 14  1  0  0  0
 15 16  1  0  0  0
 23 24  1  0  0  0
  7 17  1  0  0  0
 13 18  1  0  0  0
M  END
> <minimizedAffinity>
-9.44833

$$$$
130


 30 33  0  0  0  0  0  0  0  0999 V2000
   17.3641  -56.3158   33.8449 C   0  0  0  0  0  0  0  0  0  0  0  0
   16.8516  -55.1502   33.7010 O   0  0  0  0  0  0  0  0  0  0  0  0
   16.6821  -57.4694   33.4351 N   0  0  0  0  0  0  0  0  0  0  0  0
   17.2198  -58.7838   33.5836 C   0  0  0  0  0  0  0  0  0  0  0  0
   16.1692  -59.8078   33.9076 C   0  0  0  0  0  0  0  0  0  0  0  0
   14.9007  -59.2473   34.5126 C   0  0  0  0  0  0  0  0  0  0  0  0
   13.9660  -60.3627   34.4515 N   0  0  0  0  0  0  0  0  0  0  0  0
   12.7463  -60.1918   35.1438 C   0  0  0  0  0  0  0  0  0  0  0  0
   12.6746  -59.1254   36.1743 C   0  0  0  0  0  0  0  0  0  0  0  0
   14.0163  -58.8422   36.7726 C   0  0  0  0  0  0  0  0  0  0  0  0
   14.3876  -58.5224   38.0115 N   0  0  0  0  0  0  0  0  0  0  0  0
   15.7293  -58.3837   37.9690 C   0  0  0  0  0  0  0  0  0  0  0  0
   16.1845  -58.6138   36.7179 N   0  0  0  0  0  0  0  0  0  0  0  0
   15.1036  -58.9077   35.9388 C   0  0  0  0  0  0  0  0  0  0  0  0
   14.3464  -58.0561   33.7742 C   0  0  0  0  0  0  0  0  0  0  0  0
   15.3508  -57.4016   32.8433 C   0  0  0  0  0  0  0  0  0  0  0  0
   13.8105  -60.5055   33.4122 H   0  0  0  0  0  0  0  0  0  0  0  0
   17.1729  -58.5709   36.4179 H   0  0  0  0  0  0  0  0  0  0  0  0
   18.7311  -56.3234   34.4800 C   0  0  0  0  0  0  0  0  0  0  0  0
   19.3990  -53.8772   35.4329 C   0  0  0  0  0  0  0  0  0  0  0  0
   20.3773  -53.1249   35.0881 O   0  0  0  0  0  0  0  0  0  0  0  0
   19.0728  -55.0718   34.9678 N   0  0  0  0  0  0  0  0  0  0  0  0
   20.1563  -55.0478   34.1077 H   0  0  0  0  0  0  0  0  0  0  0  0
   15.3862  -54.4531   38.9064 Br  0  0  0  0  0  0  0  0  0  0  0  0
   16.7395  -53.4214   38.0910 C   0  0  0  0  0  0  0  0  0  0  0  0
   17.5459  -53.9963   37.1206 C   0  0  0  0  0  0  0  0  0  0  0  0
   18.5398  -53.2758   36.5133 C   0  0  0  0  0  0  0  0  0  0  0  0
   18.7882  -51.9726   36.8241 C   0  0  0  0  0  0  0  0  0  0  0  0
   17.9789  -51.3849   37.8013 C   0  0  0  0  0  0  0  0  0  0  0  0
   16.9742  -52.1083   38.4160 C   0  0  0  0  0  0  0  0  0  0  0  0
 24 25  1  0  0  0
 25 26  2  0  0  0
 25 30  1  0  0  0
 26 27  1  0  0  0
 27 28  2  0  0  0
 27 20  1  0  0  0
 28 29  1  0  0  0
 29 30  2  0  0  0
 20 21  2  0  0  0
 20 22  1  0  0  0
 22 19  1  0  0  0
 19  1  1  0  0  0
  1  2  2  0  0  0
  1  3  1  0  0  0
  3  4  1  0  0  0
  3 16  1  0  0  0
  4  5  1  0  0  0
  5  6  1  0  0  0
  6  7  1  0  0  0
  6 14  1  0  0  0
  6 15  1  0  0  0
  7  8  1  0  0  0
  8  9  1  0  0  0
  9 10  1  0  0  0
 10 11  1  0  0  0
 10 14  2  0  0  0
 11 12  2  0  0  0
 12 13  1  0  0  0
 13 14  1  0  0  0
 15 16  1  0  0  0
 22 23  1  0  0  0
  7 17  1  0  0  0
 13 18  1  0  0  0
M  END
> <minimizedAffinity>
-9.74403

$$$$
131


 30 33  0  0  0  0  0  0  0  0999 V2000
   17.1150  -57.6321   33.5878 C   0  0  0  0  0  0  0  0  0  0  0  0
   17.1264  -57.8881   32.3586 O   0  0  0  0  0  0  0  0  0  0  0  0
   15.8875  -57.5698   34.2654 N   0  0  0  0  0  0  0  0  0  0  0  0
   15.7945  -57.2811   35.6751 C   0  0  0  0  0  0  0  0  0  0  0  0
   15.2240  -58.5155   36.3389 C   0  0  0  0  0  0  0  0  0  0  0  0
   13.9709  -58.9489   35.6162 C   0  0  0  0  0  0  0  0  0  0  0  0
   14.2064  -60.2656   35.0630 N   0  0  0  0  0  0  0  0  0  0  0  0
   13.0738  -60.8711   34.4545 C   0  0  0  0  0  0  0  0  0  0  0  0
   11.7628  -60.6826   35.1254 C   0  0  0  0  0  0  0  0  0  0  0  0
   11.8265  -59.9604   36.4133 C   0  0  0  0  0  0  0  0  0  0  0  0
   10.9977  -59.9383   37.5018 N   0  0  0  0  0  0  0  0  0  0  0  0
   11.5492  -59.0983   38.3861 C   0  0  0  0  0  0  0  0  0  0  0  0
   12.6894  -58.6055   37.8757 N   0  0  0  0  0  0  0  0  0  0  0  0
   12.8960  -59.1234   36.6388 C   0  0  0  0  0  0  0  0  0  0  0  0
   13.5123  -58.0034   34.5532 C   0  0  0  0  0  0  0  0  0  0  0  0
   14.6557  -57.7974   33.5548 C   0  0  0  0  0  0  0  0  0  0  0  0
   14.9646  -60.1859   34.3352 H   0  0  0  0  0  0  0  0  0  0  0  0
   10.0991  -60.4983   37.5804 H   0  0  0  0  0  0  0  0  0  0  0  0
   18.4315  -57.4109   34.2425 C   0  0  0  0  0  0  0  0  0  0  0  0
   18.8575  -54.9834   34.6712 C   0  0  0  0  0  0  0  0  0  0  0  0
   19.2818  -54.8931   33.4907 O   0  0  0  0  0  0  0  0  0  0  0  0
   18.4094  -56.2509   35.1075 N   0  0  0  0  0  0  0  0  0  0  0  0
   18.0546  -56.3503   36.0789 H   0  0  0  0  0  0  0  0  0  0  0  0
   16.6258  -52.2698   38.6752 Br  0  0  0  0  0  0  0  0  0  0  0  0
   17.9333  -52.4650   37.3192 C   0  0  0  0  0  0  0  0  0  0  0  0
   17.9196  -53.5985   36.5265 C   0  0  0  0  0  0  0  0  0  0  0  0
   18.8463  -53.8013   35.5210 C   0  0  0  0  0  0  0  0  0  0  0  0
   19.8086  -52.8221   35.3196 C   0  0  0  0  0  0  0  0  0  0  0  0
   19.8164  -51.6981   36.1112 C   0  0  0  0  0  0  0  0  0  0  0  0
   18.9014  -51.4801   37.1172 C   0  0  0  0  0  0  0  0  0  0  0  0
 24 25  1  0  0  0
 25 26  2  0  0  0
 25 30  1  0  0  0
 26 27  1  0  0  0
 27 28  2  0  0  0
 27 20  1  0  0  0
 28 29  1  0  0  0
 29 30  2  0  0  0
 20 21  2  0  0  0
 20 22  1  0  0  0
 22 19  1  0  0  0
 19  1  1  0  0  0
  1  2  2  0  0  0
  1  3  1  0  0  0
  3  4  1  0  0  0
  3 16  1  0  0  0
  4  5  1  0  0  0
  5  6  1  0  0  0
  6  7  1  0  0  0
  6 14  1  0  0  0
  6 15  1  0  0  0
  7  8  1  0  0  0
  8  9  1  0  0  0
  9 10  1  0  0  0
 10 11  1  0  0  0
 10 14  2  0  0  0
 11 12  1  0  0  0
 12 13  2  0  0  0
 13 14  1  0  0  0
 15 16  1  0  0  0
 22 23  1  0  0  0
  7 17  1  0  0  0
 11 18  1  0  0  0
M  END
> <minimizedAffinity>
-9.86281

$$$$
136


 30 33  0  0  0  0  0  0  0  0999 V2000
   14.6221  -57.5410   37.5269 C   0  0  0  0  0  0  0  0  0  0  0  0
   14.0623  -57.6171   36.1195 C   0  0  0  0  0  0  0  0  0  0  0  0
   13.2205  -58.7966   36.1696 N   0  0  0  0  0  0  0  0  0  0  0  0
   13.0876  -59.2823   37.5281 C   0  0  0  0  0  0  0  0  0  0  0  0
   13.4622  -58.0371   38.3430 C   0  0  0  0  0  0  0  0  0  0  0  0
   11.6970  -59.6762   37.7484 C   0  0  0  0  0  0  0  0  0  0  0  0
   11.0417  -59.2357   38.7041 O   0  0  0  0  0  0  0  0  0  0  0  0
   11.1122  -60.5858   36.8301 N   0  0  0  0  0  0  0  0  0  0  0  0
   11.6081  -60.6449   35.4736 C   0  0  0  0  0  0  0  0  0  0  0  0
   12.5290  -59.5322   35.1500 C   0  0  0  0  0  0  0  0  0  0  0  0
   12.7202  -59.2106   33.9477 O   0  0  0  0  0  0  0  0  0  0  0  0
   10.3270  -61.2232   37.0930 H   0  0  0  0  0  0  0  0  0  0  0  0
   16.2370  -55.7120   37.3559 C   0  0  0  0  0  0  0  0  0  0  0  0
   16.9514  -56.4818   36.6139 O   0  0  0  0  0  0  0  0  0  0  0  0
   15.0135  -56.1859   37.8709 N   0  0  0  0  0  0  0  0  0  0  0  0
   14.4397  -55.5766   38.4698 H   0  0  0  0  0  0  0  0  0  0  0  0
   19.8179  -51.9366   36.2691 Br  0  0  0  0  0  0  0  0  0  0  0  0
   18.2951  -52.6124   37.2105 C   0  0  0  0  0  0  0  0  0  0  0  0
   17.8327  -53.8737   36.9554 C   0  0  0  0  0  0  0  0  0  0  0  0
   16.7278  -54.3729   37.6343 C   0  0  0  0  0  0  0  0  0  0  0  0
   16.1247  -53.5714   38.5524 C   0  0  0  0  0  0  0  0  0  0  0  0
   16.6010  -52.2941   38.8034 C   0  0  0  0  0  0  0  0  0  0  0  0
   17.6937  -51.8037   38.1319 C   0  0  0  0  0  0  0  0  0  0  0  0
   12.2036  -61.9940   35.1314 C   0  0  0  0  0  0  0  0  0  0  0  0
   11.5951  -62.6130   33.9423 C   0  0  0  0  0  0  0  0  0  0  0  0
   10.2638  -62.3778   33.6497 C   0  0  0  0  0  0  0  0  0  0  0  0
    9.6877  -62.9527   32.5404 C   0  0  0  0  0  0  0  0  0  0  0  0
   10.3874  -63.7761   31.6787 C   0  0  0  0  0  0  0  0  0  0  0  0
   11.7144  -64.0126   31.9677 C   0  0  0  0  0  0  0  0  0  0  0  0
   12.3097  -63.4439   33.0770 C   0  0  0  0  0  0  0  0  0  0  0  0
 17 18  1  0  0  0
 18 19  2  0  0  0
 18 23  1  0  0  0
 19 20  1  0  0  0
 20 21  2  0  0  0
 20 13  1  0  0  0
 21 22  1  0  0  0
 22 23  2  0  0  0
 13 14  2  0  0  0
 13 15  1  0  0  0
 15  1  1  0  0  0
  1  2  1  0  0  0
  1  5  1  0  0  0
  2  3  1  0  0  0
  3  4  1  0  0  0
  3 10  1  0  0  0
  4  5  1  0  0  0
  4  6  1  0  0  0
  6  7  2  0  0  0
  6  8  1  0  0  0
  8  9  1  0  0  0
  9 10  1  0  0  0
  9 24  1  0  0  0
 10 11  2  0  0  0
 24 25  1  0  0  0
 25 26  2  0  0  0
 25 30  1  0  0  0
 26 27  1  0  0  0
 27 28  2  0  0  0
 28 29  1  0  0  0
 29 30  2  0  0  0
 15 16  1  0  0  0
  8 12  1  0  0  0
M  END
> <minimizedAffinity>
-9.59003

$$$$
137


 25 28  0  0  0  0  0  0  0  0999 V2000
   17.0856  -57.0438   34.7287 C   0  0  0  0  0  0  0  0  0  0  0  0
   15.6386  -56.7627   34.1788 C   0  0  0  0  0  0  0  0  0  0  0  0
   14.8644  -57.8288   34.7170 N   0  0  0  0  0  0  0  0  0  0  0  0
   15.5557  -58.3860   35.8705 C   0  0  0  0  0  0  0  0  0  0  0  0
   16.6249  -57.4176   36.1710 C   0  0  0  0  0  0  0  0  0  0  0  0
   14.5943  -58.6889   36.9428 C   0  0  0  0  0  0  0  0  0  0  0  0
   14.9015  -58.4514   38.1241 O   0  0  0  0  0  0  0  0  0  0  0  0
   13.3329  -59.2457   36.6342 N   0  0  0  0  0  0  0  0  0  0  0  0
   12.6878  -58.9069   35.3852 C   0  0  0  0  0  0  0  0  0  0  0  0
   11.9082  -60.1420   34.9815 C   0  0  0  0  0  0  0  0  0  0  0  0
   12.0746  -61.0900   36.1170 C   0  0  0  0  0  0  0  0  0  0  0  0
   12.4149  -60.1666   37.2966 C   0  0  0  0  0  0  0  0  0  0  0  0
   13.6177  -58.4215   34.3710 C   0  0  0  0  0  0  0  0  0  0  0  0
   13.3198  -58.5241   33.1298 O   0  0  0  0  0  0  0  0  0  0  0  0
   18.7598  -54.9425   34.4521 C   0  0  0  0  0  0  0  0  0  0  0  0
   19.6361  -54.7128   33.5625 O   0  0  0  0  0  0  0  0  0  0  0  0
   17.9071  -56.0089   34.5949 N   0  0  0  0  0  0  0  0  0  0  0  0
   18.4448  -56.5652   33.4553 H   0  0  0  0  0  0  0  0  0  0  0  0
   16.3250  -52.7192   38.7097 Br  0  0  0  0  0  0  0  0  0  0  0  0
   17.6664  -52.7720   37.3644 C   0  0  0  0  0  0  0  0  0  0  0  0
   17.7325  -53.7735   36.4271 C   0  0  0  0  0  0  0  0  0  0  0  0
   18.7147  -53.8223   35.4681 C   0  0  0  0  0  0  0  0  0  0  0  0
   19.6680  -52.8370   35.4394 C   0  0  0  0  0  0  0  0  0  0  0  0
   19.6388  -51.8051   36.3693 C   0  0  0  0  0  0  0  0  0  0  0  0
   18.6474  -51.7859   37.3098 C   0  0  0  0  0  0  0  0  0  0  0  0
 19 20  1  0  0  0
 20 21  2  0  0  0
 20 25  1  0  0  0
 21 22  1  0  0  0
 22 23  2  0  0  0
 22 15  1  0  0  0
 23 24  1  0  0  0
 24 25  2  0  0  0
 15 16  2  0  0  0
 15 17  1  0  0  0
 17  1  1  0  0  0
  1  2  1  0  0  0
  1  5  1  0  0  0
  2  3  1  0  0  0
  3  4  1  0  0  0
  3 13  1  0  0  0
  4  5  1  0  0  0
  4  6  1  0  0  0
  6  7  2  0  0  0
  6  8  1  0  0  0
  8  9  1  0  0  0
  8 12  1  0  0  0
  9 10  1  0  0  0
  9 13  1  0  0  0
 10 11  1  0  0  0
 11 12  1  0  0  0
 13 14  2  0  0  0
 17 18  1  0  0  0
M  END
> <minimizedAffinity>
-10.04028

$$$$
138


 25 28  0  0  0  0  0  0  0  0999 V2000
   15.0072  -57.5063   37.4247 C   0  0  0  0  0  0  0  0  0  0  0  0
   14.1171  -57.6717   36.2383 C   0  0  0  0  0  0  0  0  0  0  0  0
   13.5474  -59.0152   36.4411 N   0  0  0  0  0  0  0  0  0  0  0  0
   13.8230  -59.4509   37.8023 C   0  0  0  0  0  0  0  0  0  0  0  0
   14.1581  -58.1767   38.5152 C   0  0  0  0  0  0  0  0  0  0  0  0
   12.6327  -60.1297   38.3071 C   0  0  0  0  0  0  0  0  0  0  0  0
   12.2942  -60.0298   39.4925 O   0  0  0  0  0  0  0  0  0  0  0  0
   11.8402  -60.9266   37.4158 N   0  0  0  0  0  0  0  0  0  0  0  0
   12.4252  -61.2109   36.1280 C   0  0  0  0  0  0  0  0  0  0  0  0
   11.4712  -61.9473   35.2807 C   0  0  0  0  0  0  0  0  0  0  0  0
   10.4629  -62.4549   36.2925 C   0  0  0  0  0  0  0  0  0  0  0  0
   10.5525  -61.5471   37.4720 C   0  0  0  0  0  0  0  0  0  0  0  0
   12.8238  -59.8744   35.5649 C   0  0  0  0  0  0  0  0  0  0  0  0
   12.5350  -59.5395   34.3942 O   0  0  0  0  0  0  0  0  0  0  0  0
   16.4891  -55.5697   37.1601 C   0  0  0  0  0  0  0  0  0  0  0  0
   17.2051  -56.2455   36.3410 O   0  0  0  0  0  0  0  0  0  0  0  0
   15.3521  -56.1706   37.7431 N   0  0  0  0  0  0  0  0  0  0  0  0
   14.7749  -55.6208   38.4048 H   0  0  0  0  0  0  0  0  0  0  0  0
   19.9935  -51.6558   36.1369 Br  0  0  0  0  0  0  0  0  0  0  0  0
   18.4716  -52.3822   37.0142 C   0  0  0  0  0  0  0  0  0  0  0  0
   18.0345  -53.6623   36.7890 C   0  0  0  0  0  0  0  0  0  0  0  0
   16.9400  -54.2114   37.4083 C   0  0  0  0  0  0  0  0  0  0  0  0
   16.2634  -53.4118   38.2980 C   0  0  0  0  0  0  0  0  0  0  0  0
   16.6767  -52.0964   38.5572 C   0  0  0  0  0  0  0  0  0  0  0  0
   17.7892  -51.5857   37.9077 C   0  0  0  0  0  0  0  0  0  0  0  0
 19 20  1  0  0  0
 20 21  2  0  0  0
 20 25  1  0  0  0
 21 22  1  0  0  0
 22 23  2  0  0  0
 22 15  1  0  0  0
 23 24  1  0  0  0
 24 25  2  0  0  0
 15 16  2  0  0  0
 15 17  1  0  0  0
 17  1  1  0  0  0
  1  2  1  0  0  0
  1  5  1  0  0  0
  2  3  1  0  0  0
  3  4  1  0  0  0
  3 13  1  0  0  0
  4  5  1  0  0  0
  4  6  1  0  0  0
  6  7  2  0  0  0
  6  8  1  0  0  0
  8  9  1  0  0  0
  8 12  1  0  0  0
  9 10  1  0  0  0
  9 13  1  0  0  0
 10 11  1  0  0  0
 11 12  1  0  0  0
 13 14  2  0  0  0
 17 18  1  0  0  0
M  END
> <minimizedAffinity>
-9.04363

$$$$
141


 23 26  0  0  0  0  0  0  0  0999 V2000
   15.7308  -55.3966   38.0496 N   0  0  0  0  0  0  0  0  0  0  0  0
   15.7472  -54.3148   39.0007 C   0  0  0  0  0  0  0  0  0  0  0  0
   14.8472  -53.9994   39.8418 O   0  0  0  0  0  0  0  0  0  0  0  0
   17.0003  -53.5989   38.8563 C   0  0  0  0  0  0  0  0  0  0  0  0
   17.9591  -54.5525   38.1165 C   0  0  0  0  0  0  0  0  0  0  0  0
   18.7248  -53.6987   37.1592 C   0  0  0  0  0  0  0  0  0  0  0  0
   18.5057  -52.2891   37.7441 C   0  0  0  0  0  0  0  0  0  0  0  0
   16.9754  -52.4733   37.8323 C   0  0  0  0  0  0  0  0  0  0  0  0
   16.7267  -53.0123   36.4645 C   0  0  0  0  0  0  0  0  0  0  0  0
   17.8505  -53.5221   35.9429 C   0  0  0  0  0  0  0  0  0  0  0  0
   16.9343  -55.3498   37.3344 C   0  0  0  0  0  0  0  0  0  0  0  0
   17.1592  -55.8731   36.2200 O   0  0  0  0  0  0  0  0  0  0  0  0
   14.6899  -57.6723   37.9978 C   0  0  0  0  0  0  0  0  0  0  0  0
   15.7762  -58.2653   38.1173 O   0  0  0  0  0  0  0  0  0  0  0  0
   14.6278  -56.2686   37.9614 N   0  0  0  0  0  0  0  0  0  0  0  0
   13.6454  -55.8601   37.8550 H   0  0  0  0  0  0  0  0  0  0  0  0
   11.6988  -60.6336   34.8335 Br  0  0  0  0  0  0  0  0  0  0  0  0
   12.0634  -59.8572   36.5330 C   0  0  0  0  0  0  0  0  0  0  0  0
   13.1842  -59.0770   36.6740 C   0  0  0  0  0  0  0  0  0  0  0  0
   13.4930  -58.4835   37.8955 C   0  0  0  0  0  0  0  0  0  0  0  0
   12.6542  -58.6987   38.9445 C   0  0  0  0  0  0  0  0  0  0  0  0
   11.5312  -59.4825   38.7971 C   0  0  0  0  0  0  0  0  0  0  0  0
   11.2053  -60.0786   37.6034 C   0  0  0  0  0  0  0  0  0  0  0  0
 17 18  1  0  0  0
 18 19  2  0  0  0
 18 23  1  0  0  0
 19 20  1  0  0  0
 20 21  2  0  0  0
 20 13  1  0  0  0
 21 22  1  0  0  0
 22 23  2  0  0  0
 13 14  2  0  0  0
 13 15  1  0  0  0
 15  1  1  0  0  0
  1  2  1  0  0  0
  1 11  1  0  0  0
  2  3  2  0  0  0
  2  4  1  0  0  0
  4  5  1  0  0  0
  4  8  1  0  0  0
  5  6  1  0  0  0
  5 11  1  0  0  0
  6  7  1  0  0  0
  6 10  1  0  0  0
  7  8  1  0  0  0
  8  9  1  0  0  0
  9 10  2  0  0  0
 11 12  2  0  0  0
 15 16  1  0  0  0
M  END
> <minimizedAffinity>
-9.40580

$$$$
152


 27 30  0  0  0  0  0  0  0  0999 V2000
   15.3269  -54.8753   38.5791 C   0  0  0  0  0  0  0  0  0  0  0  0
   16.2975  -54.1178   38.0556 C   0  0  0  0  0  0  0  0  0  0  0  0
   17.0920  -54.4454   37.0373 O   0  0  0  0  0  0  0  0  0  0  0  0
   17.9741  -53.3734   36.7491 C   0  0  0  0  0  0  0  0  0  0  0  0
   17.7560  -52.3295   37.5834 C   0  0  0  0  0  0  0  0  0  0  0  0
   18.4926  -51.1649   37.3817 C   0  0  0  0  0  0  0  0  0  0  0  0
   19.4186  -51.0961   36.3883 C   0  0  0  0  0  0  0  0  0  0  0  0
   19.6397  -52.1889   35.5741 C   0  0  0  0  0  0  0  0  0  0  0  0
   18.9458  -53.3672   35.7106 C   0  0  0  0  0  0  0  0  0  0  0  0
   20.6089  -52.0739   34.5747 O   0  0  0  0  0  0  0  0  0  0  0  0
   16.6618  -52.7611   38.4851 C   0  0  0  0  0  0  0  0  0  0  0  0
   16.1613  -52.1060   39.4177 O   0  0  0  0  0  0  0  0  0  0  0  0
   12.0070  -59.0120   38.6818 Br  0  0  0  0  0  0  0  0  0  0  0  0
   13.6741  -58.2442   38.1589 C   0  0  0  0  0  0  0  0  0  0  0  0
   13.8465  -56.8665   38.3484 C   0  0  0  0  0  0  0  0  0  0  0  0
   15.0454  -56.2211   38.0101 C   0  0  0  0  0  0  0  0  0  0  0  0
   16.0366  -56.9942   37.4770 C   0  0  0  0  0  0  0  0  0  0  0  0
   15.8892  -58.3838   37.2763 C   0  0  0  0  0  0  0  0  0  0  0  0
   14.6609  -58.9974   37.6366 C   0  0  0  0  0  0  0  0  0  0  0  0
   19.3464  -54.6950   35.2912 C   0  0  0  0  0  0  0  0  0  0  0  0
   19.0750  -55.6443   34.3741 N   0  0  0  0  0  0  0  0  0  0  0  0
   18.1000  -56.6420   34.4491 C   0  0  0  0  0  0  0  0  0  0  0  0
   16.7763  -56.2789   33.7408 C   0  0  0  0  0  0  0  0  0  0  0  0
   16.9032  -56.1520   32.3781 O   0  0  0  0  0  0  0  0  0  0  0  0
   18.1172  -55.5241   32.0774 C   0  0  0  0  0  0  0  0  0  0  0  0
   18.6478  -54.7564   33.1705 C   0  0  0  0  0  0  0  0  0  0  0  0
   20.0066  -56.0845   34.0219 H   0  0  0  0  0  0  0  0  0  0  0  0
 13 14  1  0  0  0
 14 15  2  0  0  0
 14 19  1  0  0  0
 15 16  1  0  0  0
 16 17  2  0  0  0
 16  1  1  0  0  0
 17 18  1  0  0  0
 18 19  2  0  0  0
  1  2  2  0  0  0
  2  3  1  0  0  0
  2 11  1  0  0  0
  3  4  1  0  0  0
  4  5  2  0  0  0
  4  9  1  0  0  0
  5  6  1  0  0  0
  5 11  1  0  0  0
  6  7  2  0  0  0
  7  8  1  0  0  0
  8  9  2  0  0  0
  8 10  1  0  0  0
  9 20  1  0  0  0
 20 21  1  0  0  0
 21 22  1  0  0  0
 21 26  1  0  0  0
 22 23  1  0  0  0
 23 24  1  0  0  0
 24 25  1  0  0  0
 25 26  1  0  0  0
 11 12  2  0  0  0
 21 27  1  0  0  0
M  CHG 1  10  -1
M  CHG 1  21   1
M  END
> <minimizedAffinity>
-11.03850

$$$$
153


 34 37  0  0  0  0  0  0  0  0999 V2000
   16.3124  -58.7311   33.2917 C   0  0  0  0  0  0  0  0  0  0  0  0
   16.2405  -59.4386   32.2166 N   0  0  0  0  0  0  0  0  0  0  0  0
   15.0652  -60.0567   32.1573 N   0  0  0  0  0  0  0  0  0  0  0  0
   14.3476  -59.7322   33.2648 N   0  0  0  0  0  0  0  0  0  0  0  0
   15.0452  -58.9080   33.9740 C   0  0  0  0  0  0  0  0  0  0  0  0
   13.2708  -60.6388   33.6347 C   0  0  0  0  0  0  0  0  0  0  0  0
   12.1053  -59.9648   34.1549 N   0  0  0  0  0  0  0  0  0  0  0  0
   11.2147  -60.7825   34.4627 O   0  0  0  0  0  0  0  0  0  0  0  0
   11.6370  -61.9847   34.2166 N   0  0  0  0  0  0  0  0  0  0  0  0
   12.9262  -61.8779   33.6958 C   0  0  0  0  0  0  0  0  0  0  0  0
   13.6226  -63.0484   33.3328 N   0  0  0  0  0  0  0  0  0  0  0  0
   13.0765  -63.6538   32.6243 H   0  0  0  0  0  0  0  0  0  0  0  0
   14.5133  -63.4157   33.6062 H   0  0  0  0  0  0  0  0  0  0  0  0
   17.1843  -56.7385   34.3889 N   0  0  0  0  0  0  0  0  0  0  0  0
   17.4761  -57.9933   33.9379 C   0  0  0  0  0  0  0  0  0  0  0  0
   18.5636  -58.6069   34.0049 O   0  0  0  0  0  0  0  0  0  0  0  0
   15.9741  -56.6636   34.2253 H   0  0  0  0  0  0  0  0  0  0  0  0
   17.5307  -55.3023   36.2214 C   0  0  0  0  0  0  0  0  0  0  0  0
   17.4595  -55.5819   34.9501 N   0  0  0  0  0  0  0  0  0  0  0  0
   20.3266  -50.6432   36.1228 Br  0  0  0  0  0  0  0  0  0  0  0  0
   18.9514  -51.8304   36.7364 C   0  0  0  0  0  0  0  0  0  0  0  0
   18.8603  -53.1433   36.2760 C   0  0  0  0  0  0  0  0  0  0  0  0
   17.8304  -53.9475   36.7239 C   0  0  0  0  0  0  0  0  0  0  0  0
   16.9305  -53.4091   37.6261 C   0  0  0  0  0  0  0  0  0  0  0  0
   17.0598  -52.1196   38.0525 C   0  0  0  0  0  0  0  0  0  0  0  0
   18.0509  -51.2702   37.6356 C   0  0  0  0  0  0  0  0  0  0  0  0
   14.8396  -58.1525   35.2054 C   0  0  0  0  0  0  0  0  0  0  0  0
   15.0914  -58.6678   36.4729 N   0  0  0  0  0  0  0  0  0  0  0  0
   16.0739  -58.5648   37.3819 C   0  0  0  0  0  0  0  0  0  0  0  0
   15.5502  -57.7225   38.5770 C   0  0  0  0  0  0  0  0  0  0  0  0
   14.5079  -56.8949   38.0845 N   0  0  0  0  0  0  0  0  0  0  0  0
   13.3424  -57.6659   37.7724 C   0  0  0  0  0  0  0  0  0  0  0  0
   13.8131  -58.9966   37.1717 C   0  0  0  0  0  0  0  0  0  0  0  0
   14.2941  -55.6323   38.6546 C   0  0  0  0  0  0  0  0  0  0  0  0
 20 21  1  0  0  0
 21 22  2  0  0  0
 21 26  1  0  0  0
 22 23  1  0  0  0
 23 24  2  0  0  0
 23 18  1  0  0  0
 24 25  1  0  0  0
 25 26  2  0  0  0
 18 19  2  0  0  0
 19 14  1  0  0  0
 14 15  1  0  0  0
 15 16  2  0  0  0
 15  1  1  0  0  0
  1  2  1  0  0  0
  1  5  2  0  0  0
  2  3  2  0  0  0
  3  4  1  0  0  0
  4  5  1  0  0  0
  4  6  1  0  0  0
  5 27  1  0  0  0
 27 28  1  0  0  0
 28 29  1  0  0  0
 28 33  1  0  0  0
 29 30  1  0  0  0
 30 31  1  0  0  0
 31 32  1  0  0  0
 31 34  1  0  0  0
 32 33  1  0  0  0
  6  7  2  0  0  0
  6 10  1  0  0  0
  7  8  1  0  0  0
  8  9  1  0  0  0
  9 10  2  0  0  0
 10 11  1  0  0  0
 14 17  1  0  0  0
 11 12  1  0  0  0
 11 13  1  0  0  0
M  END
> <minimizedAffinity>
-9.09678

$$$$
156


 29 32  0  0  0  0  0  0  0  0999 V2000
   14.0522  -57.1482   38.4692 C   0  0  0  0  0  0  0  0  0  0  0  0
   14.4047  -57.3398   37.1940 N   0  0  0  0  0  0  0  0  0  0  0  0
   13.8568  -58.3094   36.4094 C   0  0  0  0  0  0  0  0  0  0  0  0
   12.9207  -59.0802   37.0039 N   0  0  0  0  0  0  0  0  0  0  0  0
   12.5245  -58.9369   38.2800 C   0  0  0  0  0  0  0  0  0  0  0  0
   13.1215  -57.9466   38.9880 N   0  0  0  0  0  0  0  0  0  0  0  0
   11.5477  -59.7530   38.8748 N   0  0  0  0  0  0  0  0  0  0  0  0
   11.6596  -60.2128   40.2329 C   0  0  0  0  0  0  0  0  0  0  0  0
   10.2356  -60.1807   40.8044 C   0  0  0  0  0  0  0  0  0  0  0  0
    9.4703  -59.2247   40.1410 O   0  0  0  0  0  0  0  0  0  0  0  0
    9.1797  -59.5427   38.8385 C   0  0  0  0  0  0  0  0  0  0  0  0
   10.3926  -60.1549   38.1239 C   0  0  0  0  0  0  0  0  0  0  0  0
   14.2458  -58.4928   35.0646 N   0  0  0  0  0  0  0  0  0  0  0  0
   13.8561  -57.5512   34.0522 C   0  0  0  0  0  0  0  0  0  0  0  0
   15.1324  -57.1059   33.3471 C   0  0  0  0  0  0  0  0  0  0  0  0
   15.6989  -58.2561   32.8038 O   0  0  0  0  0  0  0  0  0  0  0  0
   16.1687  -59.1205   33.7759 C   0  0  0  0  0  0  0  0  0  0  0  0
   15.0401  -59.6238   34.6701 C   0  0  0  0  0  0  0  0  0  0  0  0
   14.6648  -56.1151   39.2319 N   0  0  0  0  0  0  0  0  0  0  0  0
   14.3298  -55.9005   40.1939 H   0  0  0  0  0  0  0  0  0  0  0  0
   15.6426  -54.1401   38.3618 C   0  0  0  0  0  0  0  0  0  0  0  0
   15.7240  -55.3607   38.7199 N   0  0  0  0  0  0  0  0  0  0  0  0
   19.9114  -54.0362   35.1337 Br  0  0  0  0  0  0  0  0  0  0  0  0
   18.7197  -53.2276   36.3963 C   0  0  0  0  0  0  0  0  0  0  0  0
   17.6527  -53.9197   36.9157 C   0  0  0  0  0  0  0  0  0  0  0  0
   16.7647  -53.3784   37.8290 C   0  0  0  0  0  0  0  0  0  0  0  0
   16.9977  -52.0756   38.2134 C   0  0  0  0  0  0  0  0  0  0  0  0
   18.0683  -51.3407   37.7099 C   0  0  0  0  0  0  0  0  0  0  0  0
   18.9250  -51.9247   36.8007 C   0  0  0  0  0  0  0  0  0  0  0  0
 23 24  1  0  0  0
 24 25  2  0  0  0
 24 29  1  0  0  0
 25 26  1  0  0  0
 26 27  2  0  0  0
 26 21  1  0  0  0
 27 28  1  0  0  0
 28 29  2  0  0  0
 21 22  2  0  0  0
 22 19  1  0  0  0
 19  1  1  0  0  0
  1  2  2  0  0  0
  1  6  1  0  0  0
  2  3  1  0  0  0
  3  4  2  0  0  0
  3 13  1  0  0  0
  4  5  1  0  0  0
  5  6  2  0  0  0
  5  7  1  0  0  0
  7  8  1  0  0  0
  7 12  1  0  0  0
  8  9  1  0  0  0
  9 10  1  0  0  0
 10 11  1  0  0  0
 11 12  1  0  0  0
 13 14  1  0  0  0
 13 18  1  0  0  0
 14 15  1  0  0  0
 15 16  1  0  0  0
 16 17  1  0  0  0
 17 18  1  0  0  0
 19 20  1  0  0  0
M  END
> <minimizedAffinity>
-9.55781

$$$$
167


 35 38  0  0  0  0  0  0  0  0999 V2000
   13.9135  -59.7924   36.1895 C   0  0  0  0  0  0  0  0  0  0  0  0
   13.0497  -59.8539   35.0704 N   0  0  0  0  0  0  0  0  0  0  0  0
   13.2734  -58.7327   34.2314 C   0  0  0  0  0  0  0  0  0  0  0  0
   12.5927  -58.4499   33.1968 O   0  0  0  0  0  0  0  0  0  0  0  0
   14.3989  -57.9866   34.7509 C   0  0  0  0  0  0  0  0  0  0  0  0
   14.8106  -56.9340   34.1923 O   0  0  0  0  0  0  0  0  0  0  0  0
   14.8641  -58.6779   35.9380 C   0  0  0  0  0  0  0  0  0  0  0  0
   15.9040  -58.3141   36.6537 C   0  0  0  0  0  0  0  0  0  0  0  0
   16.2063  -59.0131   37.7996 O   0  0  0  0  0  0  0  0  0  0  0  0
   11.2421  -62.2859   40.0606 Br  0  0  0  0  0  0  0  0  0  0  0  0
   11.9308  -60.7124   39.2272 C   0  0  0  0  0  0  0  0  0  0  0  0
   12.6384  -60.7173   38.0641 C   0  0  0  0  0  0  0  0  0  0  0  0
   13.1545  -59.6005   37.4296 C   0  0  0  0  0  0  0  0  0  0  0  0
   12.9300  -58.3656   38.0321 C   0  0  0  0  0  0  0  0  0  0  0  0
   12.2142  -58.3237   39.2132 C   0  0  0  0  0  0  0  0  0  0  0  0
   11.7119  -59.4598   39.8233 C   0  0  0  0  0  0  0  0  0  0  0  0
   16.7344  -57.2046   36.2562 C   0  0  0  0  0  0  0  0  0  0  0  0
   16.7305  -55.9524   36.8957 C   0  0  0  0  0  0  0  0  0  0  0  0
   17.6370  -55.1594   36.3114 N   0  0  0  0  0  0  0  0  0  0  0  0
   18.1985  -55.8608   35.3441 N   0  0  0  0  0  0  0  0  0  0  0  0
   17.6845  -57.0981   35.2788 C   0  0  0  0  0  0  0  0  0  0  0  0
   15.8407  -55.6086   38.0426 C   0  0  0  0  0  0  0  0  0  0  0  0
   17.9605  -53.8206   36.6591 C   0  0  0  0  0  0  0  0  0  0  0  0
   19.1575  -53.2829   36.2052 C   0  0  0  0  0  0  0  0  0  0  0  0
   19.5309  -51.9859   36.4957 C   0  0  0  0  0  0  0  0  0  0  0  0
   18.7114  -51.1576   37.2637 C   0  0  0  0  0  0  0  0  0  0  0  0
   17.5187  -51.6933   37.7161 C   0  0  0  0  0  0  0  0  0  0  0  0
   17.1708  -52.9846   37.4140 C   0  0  0  0  0  0  0  0  0  0  0  0
   12.0597  -60.9242   34.7630 C   0  0  0  0  0  0  0  0  0  0  0  0
   12.7835  -62.2118   34.4645 C   0  0  0  0  0  0  0  0  0  0  0  0
   13.0064  -62.4464   33.0040 C   0  0  0  0  0  0  0  0  0  0  0  0
   14.3467  -62.3056   32.5397 N   0  0  0  0  0  0  0  0  0  0  0  0
   14.6350  -61.1357   31.7771 C   0  0  0  0  0  0  0  0  0  0  0  0
   15.2823  -62.3377   33.6755 C   0  0  0  0  0  0  0  0  0  0  0  0
   14.6135  -63.1581   31.9599 H   0  0  0  0  0  0  0  0  0  0  0  0
 10 11  1  0  0  0
 11 12  2  0  0  0
 11 16  1  0  0  0
 12 13  1  0  0  0
 13 14  2  0  0  0
 13  1  1  0  0  0
 14 15  1  0  0  0
 15 16  2  0  0  0
  1  2  1  0  0  0
  1  7  1  0  0  0
  2  3  1  0  0  0
  2 29  1  0  0  0
  3  4  2  0  0  0
  3  5  1  0  0  0
  5  6  2  0  0  0
  5  7  1  0  0  0
  7  8  2  0  0  0
  8  9  1  0  0  0
  8 17  1  0  0  0
 17 18  2  0  0  0
 17 21  1  0  0  0
 18 19  1  0  0  0
 18 22  1  0  0  0
 19 20  1  0  0  0
 19 23  1  0  0  0
 20 21  2  0  0  0
 23 24  2  0  0  0
 23 28  1  0  0  0
 24 25  1  0  0  0
 25 26  2  0  0  0
 26 27  1  0  0  0
 27 28  2  0  0  0
 29 30  1  0  0  0
 30 31  1  0  0  0
 31 32  1  0  0  0
 32 33  1  0  0  0
 32 34  1  0  0  0
 32 35  1  0  0  0
M  CHG 1   9  -1
M  CHG 1  32   1
M  END
> <minimizedAffinity>
-9.10150

$$$$
169


 37 40  0  0  0  0  0  0  0  0999 V2000
   16.1313  -59.1898   34.5618 C   0  0  0  0  0  0  0  0  0  0  0  0
   14.9606  -58.4574   35.0043 N   0  0  0  0  0  0  0  0  0  0  0  0
   14.5736  -57.6320   33.9153 C   0  0  0  0  0  0  0  0  0  0  0  0
   13.4329  -57.1800   33.6712 O   0  0  0  0  0  0  0  0  0  0  0  0
   15.7878  -57.3999   33.1020 C   0  0  0  0  0  0  0  0  0  0  0  0
   15.8827  -56.7197   32.0571 O   0  0  0  0  0  0  0  0  0  0  0  0
   16.8537  -58.1270   33.7781 C   0  0  0  0  0  0  0  0  0  0  0  0
   18.1199  -57.8484   33.7206 C   0  0  0  0  0  0  0  0  0  0  0  0
   19.0059  -58.6260   34.4953 O   0  0  0  0  0  0  0  0  0  0  0  0
   18.7228  -56.7952   32.9164 C   0  0  0  0  0  0  0  0  0  0  0  0
   19.0037  -55.4905   33.1454 C   0  0  0  0  0  0  0  0  0  0  0  0
   19.6202  -54.9938   32.0529 N   0  0  0  0  0  0  0  0  0  0  0  0
   19.7551  -55.9289   31.1043 C   0  0  0  0  0  0  0  0  0  0  0  0
   19.2004  -57.0702   31.6191 C   0  0  0  0  0  0  0  0  0  0  0  0
   19.1191  -58.3850   30.9142 C   0  0  0  0  0  0  0  0  0  0  0  0
   18.6656  -54.6739   34.3593 C   0  0  0  0  0  0  0  0  0  0  0  0
   19.9503  -53.9890   31.9653 H   0  0  0  0  0  0  0  0  0  0  0  0
   20.3751  -55.7646   29.7741 C   0  0  0  0  0  0  0  0  0  0  0  0
   19.6476  -55.6840   28.7733 O   0  0  0  0  0  0  0  0  0  0  0  0
   21.7488  -55.7006   29.6392 O   0  0  0  0  0  0  0  0  0  0  0  0
   22.5656  -56.8237   29.3999 C   0  0  0  0  0  0  0  0  0  0  0  0
   12.3081  -62.6876   33.2278 Br  0  0  0  0  0  0  0  0  0  0  0  0
   14.0287  -61.9041   32.9759 C   0  0  0  0  0  0  0  0  0  0  0  0
   14.4443  -60.8834   33.8042 C   0  0  0  0  0  0  0  0  0  0  0  0
   15.6872  -60.2807   33.6614 C   0  0  0  0  0  0  0  0  0  0  0  0
   16.4784  -60.7731   32.6344 C   0  0  0  0  0  0  0  0  0  0  0  0
   16.0720  -61.7935   31.8012 C   0  0  0  0  0  0  0  0  0  0  0  0
   14.8338  -62.3754   31.9622 C   0  0  0  0  0  0  0  0  0  0  0  0
   14.3011  -58.5396   36.3101 C   0  0  0  0  0  0  0  0  0  0  0  0
   15.3126  -58.5120   37.4346 C   0  0  0  0  0  0  0  0  0  0  0  0
   15.5757  -57.2065   37.9456 N   0  0  0  0  0  0  0  0  0  0  0  0
   14.3784  -56.3979   38.1428 C   0  0  0  0  0  0  0  0  0  0  0  0
   14.7381  -55.2776   39.0809 C   0  0  0  0  0  0  0  0  0  0  0  0
   16.0916  -55.0559   39.0279 O   0  0  0  0  0  0  0  0  0  0  0  0
   16.6242  -55.0735   37.7507 C   0  0  0  0  0  0  0  0  0  0  0  0
   16.4272  -56.4220   37.0600 C   0  0  0  0  0  0  0  0  0  0  0  0
   16.1001  -57.2853   38.8355 H   0  0  0  0  0  0  0  0  0  0  0  0
 22 23  1  0  0  0
 23 24  2  0  0  0
 23 28  1  0  0  0
 24 25  1  0  0  0
 25 26  2  0  0  0
 25  1  1  0  0  0
 26 27  1  0  0  0
 27 28  2  0  0  0
  1  2  1  0  0  0
  1  7  1  0  0  0
  2  3  1  0  0  0
  2 29  1  0  0  0
  3  4  2  0  0  0
  3  5  1  0  0  0
  5  6  2  0  0  0
  5  7  1  0  0  0
  7  8  2  0  0  0
  8  9  1  0  0  0
  8 10  1  0  0  0
 10 11  2  0  0  0
 10 14  1  0  0  0
 11 12  1  0  0  0
 11 16  1  0  0  0
 12 13  1  0  0  0
 13 14  2  0  0  0
 13 18  1  0  0  0
 14 15  1  0  0  0
 18 19  2  0  0  0
 18 20  1  0  0  0
 20 21  1  0  0  0
 29 30  1  0  0  0
 30 31  1  0  0  0
 31 32  1  0  0  0
 31 36  1  0  0  0
 32 33  1  0  0  0
 33 34  1  0  0  0
 34 35  1  0  0  0
 35 36  1  0  0  0
 12 17  1  0  0  0
 31 37  1  0  0  0
M  CHG 1   9  -1
M  CHG 1  31   1
M  END
> <minimizedAffinity>
-8.82266

$$$$
170


 35 38  0  0  0  0  0  0  0  0999 V2000
   16.0948  -58.0709   35.5370 C   0  0  0  0  0  0  0  0  0  0  0  0
   14.7404  -58.3717   35.1167 N   0  0  0  0  0  0  0  0  0  0  0  0
   14.3700  -57.5741   34.0133 C   0  0  0  0  0  0  0  0  0  0  0  0
   13.2396  -57.2899   33.5407 O   0  0  0  0  0  0  0  0  0  0  0  0
   15.6425  -57.0705   33.4377 C   0  0  0  0  0  0  0  0  0  0  0  0
   15.7008  -56.3288   32.4367 O   0  0  0  0  0  0  0  0  0  0  0  0
   16.7197  -57.6052   34.2506 C   0  0  0  0  0  0  0  0  0  0  0  0
   17.9742  -57.7036   33.8929 C   0  0  0  0  0  0  0  0  0  0  0  0
   18.8910  -58.3121   34.7678 O   0  0  0  0  0  0  0  0  0  0  0  0
   18.1685  -53.4527   37.2921 Br  0  0  0  0  0  0  0  0  0  0  0  0
   17.0271  -54.9679   37.4686 C   0  0  0  0  0  0  0  0  0  0  0  0
   16.9793  -55.9339   36.4700 C   0  0  0  0  0  0  0  0  0  0  0  0
   16.1613  -57.0352   36.5831 C   0  0  0  0  0  0  0  0  0  0  0  0
   15.3808  -57.1687   37.7097 C   0  0  0  0  0  0  0  0  0  0  0  0
   15.4245  -56.2127   38.7048 C   0  0  0  0  0  0  0  0  0  0  0  0
   16.2408  -55.1068   38.6012 C   0  0  0  0  0  0  0  0  0  0  0  0
   18.4580  -57.2043   32.6338 C   0  0  0  0  0  0  0  0  0  0  0  0
   18.3973  -58.0822   31.5414 C   0  0  0  0  0  0  0  0  0  0  0  0
   18.8725  -57.7062   30.3159 C   0  0  0  0  0  0  0  0  0  0  0  0
   19.4311  -56.4531   30.0972 C   0  0  0  0  0  0  0  0  0  0  0  0
   19.4804  -55.6189   31.1703 C   0  0  0  0  0  0  0  0  0  0  0  0
   19.0064  -55.9822   32.4144 C   0  0  0  0  0  0  0  0  0  0  0  0
   18.8003  -58.6565   29.1601 C   0  0  0  0  0  0  0  0  0  0  0  0
   19.8873  -56.1503   28.8306 O   0  0  0  0  0  0  0  0  0  0  0  0
   21.1206  -55.4725   28.6431 C   0  0  0  0  0  0  0  0  0  0  0  0
   13.8497  -59.3711   35.7280 C   0  0  0  0  0  0  0  0  0  0  0  0
   13.4577  -60.3999   34.7039 C   0  0  0  0  0  0  0  0  0  0  0  0
   14.5710  -61.2636   34.2175 C   0  0  0  0  0  0  0  0  0  0  0  0
   15.0972  -60.8643   32.9304 N   0  0  0  0  0  0  0  0  0  0  0  0
   16.5378  -61.0114   32.8683 C   0  0  0  0  0  0  0  0  0  0  0  0
   16.9264  -62.0499   31.8509 C   0  0  0  0  0  0  0  0  0  0  0  0
   16.4667  -61.6097   30.5929 O   0  0  0  0  0  0  0  0  0  0  0  0
   15.0750  -61.5517   30.5746 C   0  0  0  0  0  0  0  0  0  0  0  0
   14.4446  -61.7045   31.9217 C   0  0  0  0  0  0  0  0  0  0  0  0
   14.8509  -59.8870   32.6675 H   0  0  0  0  0  0  0  0  0  0  0  0
 10 11  1  0  0  0
 11 12  2  0  0  0
 11 16  1  0  0  0
 12 13  1  0  0  0
 13 14  2  0  0  0
 13  1  1  0  0  0
 14 15  1  0  0  0
 15 16  2  0  0  0
  1  2  1  0  0  0
  1  7  1  0  0  0
  2  3  1  0  0  0
  2 26  1  0  0  0
  3  4  2  0  0  0
  3  5  1  0  0  0
  5  6  2  0  0  0
  5  7  1  0  0  0
  7  8  2  0  0  0
  8  9  1  0  0  0
  8 17  1  0  0  0
 17 18  2  0  0  0
 17 22  1  0  0  0
 18 19  1  0  0  0
 19 20  2  0  0  0
 19 23  1  0  0  0
 20 21  1  0  0  0
 20 24  1  0  0  0
 21 22  2  0  0  0
 24 25  1  0  0  0
 26 27  1  0  0  0
 27 28  1  0  0  0
 28 29  1  0  0  0
 29 30  1  0  0  0
 29 34  1  0  0  0
 30 31  1  0  0  0
 31 32  1  0  0  0
 32 33  1  0  0  0
 33 34  1  0  0  0
 29 35  1  0  0  0
M  CHG 1   9  -1
M  CHG 1  29   1
M  END
> <minimizedAffinity>
-9.26233

$$$$
175


 32 35  0  0  0  0  0  0  0  0999 V2000
   17.1205  -56.7987   35.6648 C   0  0  0  0  0  0  0  0  0  0  0  0
   17.5366  -56.3216   34.3799 N   0  0  0  0  0  0  0  0  0  0  0  0
   16.3585  -56.2066   33.5965 C   0  0  0  0  0  0  0  0  0  0  0  0
   16.2358  -55.5237   32.5494 O   0  0  0  0  0  0  0  0  0  0  0  0
   15.2848  -57.0252   34.2077 C   0  0  0  0  0  0  0  0  0  0  0  0
   14.1187  -57.1746   33.8056 O   0  0  0  0  0  0  0  0  0  0  0  0
   15.8889  -57.6201   35.3847 C   0  0  0  0  0  0  0  0  0  0  0  0
   15.4916  -58.6830   36.0491 C   0  0  0  0  0  0  0  0  0  0  0  0
   16.2365  -59.1455   37.1129 O   0  0  0  0  0  0  0  0  0  0  0  0
   18.1345  -51.8147   37.4525 Br  0  0  0  0  0  0  0  0  0  0  0  0
   17.1729  -53.4643   37.4945 C   0  0  0  0  0  0  0  0  0  0  0  0
   17.4724  -54.4945   36.6089 C   0  0  0  0  0  0  0  0  0  0  0  0
   16.7969  -55.6970   36.6142 C   0  0  0  0  0  0  0  0  0  0  0  0
   15.7879  -55.8336   37.5572 C   0  0  0  0  0  0  0  0  0  0  0  0
   15.4744  -54.8252   38.4433 C   0  0  0  0  0  0  0  0  0  0  0  0
   16.1751  -53.6468   38.3998 C   0  0  0  0  0  0  0  0  0  0  0  0
   14.2831  -59.3856   35.7011 C   0  0  0  0  0  0  0  0  0  0  0  0
   13.0317  -59.1433   36.1891 C   0  0  0  0  0  0  0  0  0  0  0  0
   11.9494  -59.8727   35.7334 C   0  0  0  0  0  0  0  0  0  0  0  0
   12.0469  -60.8661   34.7858 C   0  0  0  0  0  0  0  0  0  0  0  0
   13.3119  -61.1104   34.2941 C   0  0  0  0  0  0  0  0  0  0  0  0
   14.4001  -60.3976   34.7337 C   0  0  0  0  0  0  0  0  0  0  0  0
   10.8641  -61.6379   34.3120 C   0  0  0  0  0  0  0  0  0  0  0  0
   18.9030  -55.9985   33.9232 C   0  0  0  0  0  0  0  0  0  0  0  0
   19.2272  -56.9316   32.7904 C   0  0  0  0  0  0  0  0  0  0  0  0
   18.9722  -56.4203   31.4925 N   0  0  0  0  0  0  0  0  0  0  0  0
   19.9457  -55.5049   30.9728 C   0  0  0  0  0  0  0  0  0  0  0  0
   21.0415  -56.1543   30.1728 C   0  0  0  0  0  0  0  0  0  0  0  0
   20.5994  -57.1513   29.3318 O   0  0  0  0  0  0  0  0  0  0  0  0
   19.9104  -58.1340   30.0032 C   0  0  0  0  0  0  0  0  0  0  0  0
   18.6758  -57.5084   30.5954 C   0  0  0  0  0  0  0  0  0  0  0  0
   18.0590  -55.8777   31.5574 H   0  0  0  0  0  0  0  0  0  0  0  0
 10 11  1  0  0  0
 11 12  2  0  0  0
 11 16  1  0  0  0
 12 13  1  0  0  0
 13 14  2  0  0  0
 13  1  1  0  0  0
 14 15  1  0  0  0
 15 16  2  0  0  0
  1  2  1  0  0  0
  1  7  1  0  0  0
  2  3  1  0  0  0
  2 24  1  0  0  0
  3  4  2  0  0  0
  3  5  1  0  0  0
  5  6  2  0  0  0
  5  7  1  0  0  0
  7  8  2  0  0  0
  8  9  1  0  0  0
  8 17  1  0  0  0
 17 18  2  0  0  0
 17 22  1  0  0  0
 18 19  1  0  0  0
 19 20  2  0  0  0
 20 21  1  0  0  0
 20 23  1  0  0  0
 21 22  2  0  0  0
 24 25  1  0  0  0
 25 26  1  0  0  0
 26 27  1  0  0  0
 26 31  1  0  0  0
 27 28  1  0  0  0
 28 29  1  0  0  0
 29 30  1  0  0  0
 30 31  1  0  0  0
 26 32  1  0  0  0
M  CHG 1   9  -1
M  CHG 1  26   1
M  END
> <minimizedAffinity>
-8.87312

$$$$
176


 33 36  0  0  0  0  0  0  0  0999 V2000
   16.0489  -58.1783   35.4068 C   0  0  0  0  0  0  0  0  0  0  0  0
   14.6707  -58.4415   35.0259 N   0  0  0  0  0  0  0  0  0  0  0  0
   14.3712  -57.5759   33.9113 C   0  0  0  0  0  0  0  0  0  0  0  0
   13.2133  -57.2794   33.5267 O   0  0  0  0  0  0  0  0  0  0  0  0
   15.6374  -57.1440   33.3583 C   0  0  0  0  0  0  0  0  0  0  0  0
   15.8404  -56.3712   32.3700 O   0  0  0  0  0  0  0  0  0  0  0  0
   16.6948  -57.7597   34.1487 C   0  0  0  0  0  0  0  0  0  0  0  0
   17.9647  -57.8613   33.7846 C   0  0  0  0  0  0  0  0  0  0  0  0
   18.7973  -58.4520   34.7583 O   0  0  0  0  0  0  0  0  0  0  0  0
   18.1471  -53.5308   37.0784 Br  0  0  0  0  0  0  0  0  0  0  0  0
   17.0244  -55.0506   37.2791 C   0  0  0  0  0  0  0  0  0  0  0  0
   16.9300  -56.0450   36.3152 C   0  0  0  0  0  0  0  0  0  0  0  0
   16.1113  -57.1409   36.4669 C   0  0  0  0  0  0  0  0  0  0  0  0
   15.3742  -57.2353   37.6092 C   0  0  0  0  0  0  0  0  0  0  0  0
   15.4619  -56.2381   38.5905 C   0  0  0  0  0  0  0  0  0  0  0  0
   16.2810  -55.1428   38.4367 C   0  0  0  0  0  0  0  0  0  0  0  0
   18.5003  -57.4227   32.5064 C   0  0  0  0  0  0  0  0  0  0  0  0
   18.4664  -58.1467   31.3384 C   0  0  0  0  0  0  0  0  0  0  0  0
   18.9618  -57.6633   30.1441 C   0  0  0  0  0  0  0  0  0  0  0  0
   19.5237  -56.4086   30.0760 C   0  0  0  0  0  0  0  0  0  0  0  0
   19.5670  -55.6669   31.2398 C   0  0  0  0  0  0  0  0  0  0  0  0
   19.0682  -56.1592   32.4299 C   0  0  0  0  0  0  0  0  0  0  0  0
   20.1641  -55.7673   28.5595 Cl  0  0  0  0  0  0  0  0  0  0  0  0
   13.7701  -59.3141   35.7075 C   0  0  0  0  0  0  0  0  0  0  0  0
   13.1681  -60.4439   34.9777 C   0  0  0  0  0  0  0  0  0  0  0  0
   14.0255  -61.3719   34.2009 C   0  0  0  0  0  0  0  0  0  0  0  0
   13.9853  -61.2991   32.7794 N   0  0  0  0  0  0  0  0  0  0  0  0
   15.1909  -60.7042   32.2608 C   0  0  0  0  0  0  0  0  0  0  0  0
   16.2532  -61.7211   31.8990 C   0  0  0  0  0  0  0  0  0  0  0  0
   15.8159  -62.5123   30.8342 O   0  0  0  0  0  0  0  0  0  0  0  0
   14.4214  -62.5576   30.7881 C   0  0  0  0  0  0  0  0  0  0  0  0
   13.9358  -62.6796   32.2058 C   0  0  0  0  0  0  0  0  0  0  0  0
   13.1336  -60.8709   32.4255 H   0  0  0  0  0  0  0  0  0  0  0  0
 10 11  1  0  0  0
 11 12  2  0  0  0
 11 16  1  0  0  0
 12 13  1  0  0  0
 13 14  2  0  0  0
 13  1  1  0  0  0
 14 15  1  0  0  0
 15 16  2  0  0  0
  1  2  1  0  0  0
  1  7  1  0  0  0
  2  3  1  0  0  0
  2 24  1  0  0  0
  3  4  2  0  0  0
  3  5  1  0  0  0
  5  6  2  0  0  0
  5  7  1  0  0  0
  7  8  2  0  0  0
  8  9  1  0  0  0
  8 17  1  0  0  0
 17 18  2  0  0  0
 17 22  1  0  0  0
 18 19  1  0  0  0
 19 20  2  0  0  0
 20 21  1  0  0  0
 20 23  1  0  0  0
 21 22  2  0  0  0
 24 25  1  0  0  0
 25 26  1  0  0  0
 26 27  1  0  0  0
 27 28  1  0  0  0
 27 32  1  0  0  0
 28 29  1  0  0  0
 29 30  1  0  0  0
 30 31  1  0  0  0
 31 32  1  0  0  0
 27 33  1  0  0  0
M  CHG 1   9  -1
M  CHG 1  27   1
M  END
> <minimizedAffinity>
-9.24556

$$$$
182


 36 40  0  0  0  0  0  0  0  0999 V2000
   16.6011  -57.0410   36.9570 C   0  0  0  0  0  0  0  0  0  0  0  0
   17.4503  -56.8155   35.8399 N   0  0  0  0  0  0  0  0  0  0  0  0
   17.5390  -58.1369   35.2111 C   0  0  0  0  0  0  0  0  0  0  0  0
   18.4845  -58.5623   34.5285 O   0  0  0  0  0  0  0  0  0  0  0  0
   16.2912  -58.8391   35.5538 C   0  0  0  0  0  0  0  0  0  0  0  0
   15.9379  -59.9938   35.2228 O   0  0  0  0  0  0  0  0  0  0  0  0
   15.5289  -57.8987   36.3717 C   0  0  0  0  0  0  0  0  0  0  0  0
   14.2279  -57.8355   36.4905 C   0  0  0  0  0  0  0  0  0  0  0  0
   13.7061  -56.7965   37.2914 O   0  0  0  0  0  0  0  0  0  0  0  0
   13.3254  -58.7801   35.8492 C   0  0  0  0  0  0  0  0  0  0  0  0
   12.6862  -59.8631   36.3141 N   0  0  0  0  0  0  0  0  0  0  0  0
   11.9973  -60.4380   35.3245 C   0  0  0  0  0  0  0  0  0  0  0  0
   12.2063  -59.6973   34.2043 N   0  0  0  0  0  0  0  0  0  0  0  0
   13.0162  -58.6680   34.4843 C   0  0  0  0  0  0  0  0  0  0  0  0
   13.4941  -57.6186   33.5402 C   0  0  0  0  0  0  0  0  0  0  0  0
   11.2266  -61.5791   35.5355 C   0  0  0  0  0  0  0  0  0  0  0  0
   11.2003  -62.0936   36.8170 C   0  0  0  0  0  0  0  0  0  0  0  0
   11.9235  -61.4734   37.8189 C   0  0  0  0  0  0  0  0  0  0  0  0
   12.6780  -60.3494   37.5864 C   0  0  0  0  0  0  0  0  0  0  0  0
   10.4837  -62.1760   34.3984 C   0  0  0  0  0  0  0  0  0  0  0  0
   17.1200  -51.8559   37.9648 Br  0  0  0  0  0  0  0  0  0  0  0  0
   16.3671  -53.5794   38.3295 C   0  0  0  0  0  0  0  0  0  0  0  0
   16.7045  -54.6691   37.5702 C   0  0  0  0  0  0  0  0  0  0  0  0
   16.1803  -55.9581   37.7942 C   0  0  0  0  0  0  0  0  0  0  0  0
   15.2988  -56.0109   38.8513 C   0  0  0  0  0  0  0  0  0  0  0  0
   14.9446  -54.9285   39.6276 C   0  0  0  0  0  0  0  0  0  0  0  0
   15.4836  -53.6888   39.3693 C   0  0  0  0  0  0  0  0  0  0  0  0
   18.1793  -55.6684   35.3277 C   0  0  0  0  0  0  0  0  0  0  0  0
   18.8080  -55.8604   33.9909 C   0  0  0  0  0  0  0  0  0  0  0  0
   18.1454  -55.1108   32.9419 N   0  0  0  0  0  0  0  0  0  0  0  0
   19.0467  -54.8185   31.8497 C   0  0  0  0  0  0  0  0  0  0  0  0
   19.3197  -56.0975   31.0519 C   0  0  0  0  0  0  0  0  0  0  0  0
   18.0968  -56.4504   30.4708 O   0  0  0  0  0  0  0  0  0  0  0  0
   17.2895  -56.9057   31.5335 C   0  0  0  0  0  0  0  0  0  0  0  0
   16.9455  -55.7830   32.4838 C   0  0  0  0  0  0  0  0  0  0  0  0
   17.8381  -54.1849   33.3287 H   0  0  0  0  0  0  0  0  0  0  0  0
 21 22  1  0  0  0
 22 23  2  0  0  0
 22 27  1  0  0  0
 23 24  1  0  0  0
 24 25  2  0  0  0
 24  1  1  0  0  0
 25 26  1  0  0  0
 26 27  2  0  0  0
  1  2  1  0  0  0
  1  7  1  0  0  0
  2  3  1  0  0  0
  2 28  1  0  0  0
  3  4  2  0  0  0
  3  5  1  0  0  0
  5  6  2  0  0  0
  5  7  1  0  0  0
  7  8  2  0  0  0
  8  9  1  0  0  0
  8 10  1  0  0  0
 10 11  1  0  0  0
 10 14  2  0  0  0
 11 12  1  0  0  0
 11 19  1  0  0  0
 12 13  2  0  0  0
 12 16  1  0  0  0
 13 14  1  0  0  0
 14 15  1  0  0  0
 16 17  2  0  0  0
 16 20  1  0  0  0
 17 18  1  0  0  0
 18 19  2  0  0  0
 28 29  1  0  0  0
 29 30  1  0  0  0
 30 31  1  0  0  0
 30 35  1  0  0  0
 31 32  1  0  0  0
 32 33  1  0  0  0
 33 34  1  0  0  0
 34 35  1  0  0  0
 30 36  1  0  0  0
M  CHG 1   9  -1
M  CHG 1  30   1
M  END
> <minimizedAffinity>
-9.54325

$$$$
184


 33 36  0  0  0  0  0  0  0  0999 V2000
   13.0857  -58.9977   35.8788 C   0  0  0  0  0  0  0  0  0  0  0  0
   13.4492  -59.1934   37.2687 N   0  0  0  0  0  0  0  0  0  0  0  0
   12.5397  -60.1891   37.7561 C   0  0  0  0  0  0  0  0  0  0  0  0
   12.1745  -60.3741   38.9305 O   0  0  0  0  0  0  0  0  0  0  0  0
   12.1070  -60.9689   36.6027 C   0  0  0  0  0  0  0  0  0  0  0  0
   11.3088  -61.9500   36.5249 O   0  0  0  0  0  0  0  0  0  0  0  0
   12.7880  -60.3998   35.4495 C   0  0  0  0  0  0  0  0  0  0  0  0
   13.0167  -61.0129   34.3051 C   0  0  0  0  0  0  0  0  0  0  0  0
   13.6344  -60.2441   33.3084 O   0  0  0  0  0  0  0  0  0  0  0  0
   12.6864  -62.4003   34.0153 C   0  0  0  0  0  0  0  0  0  0  0  0
   11.5198  -62.8876   33.5680 N   0  0  0  0  0  0  0  0  0  0  0  0
   11.5993  -64.2288   33.3718 C   0  0  0  0  0  0  0  0  0  0  0  0
   12.8737  -64.5599   33.7198 N   0  0  0  0  0  0  0  0  0  0  0  0
   13.5564  -63.4972   34.1100 C   0  0  0  0  0  0  0  0  0  0  0  0
   14.9531  -63.3493   34.5759 C   0  0  0  0  0  0  0  0  0  0  0  0
   10.5304  -64.9890   32.9239 C   0  0  0  0  0  0  0  0  0  0  0  0
    9.3207  -64.3811   32.6593 C   0  0  0  0  0  0  0  0  0  0  0  0
    9.2473  -63.0083   32.8645 C   0  0  0  0  0  0  0  0  0  0  0  0
   10.3178  -62.2936   33.3052 C   0  0  0  0  0  0  0  0  0  0  0  0
   18.2360  -58.4085   34.5728 Br  0  0  0  0  0  0  0  0  0  0  0  0
   16.3889  -58.0226   34.3532 C   0  0  0  0  0  0  0  0  0  0  0  0
   15.4564  -58.6481   35.1815 C   0  0  0  0  0  0  0  0  0  0  0  0
   14.1332  -58.3921   35.0477 C   0  0  0  0  0  0  0  0  0  0  0  0
   13.7343  -57.4871   34.0582 C   0  0  0  0  0  0  0  0  0  0  0  0
   14.6486  -56.8780   33.2513 C   0  0  0  0  0  0  0  0  0  0  0  0
   15.9991  -57.1237   33.3708 C   0  0  0  0  0  0  0  0  0  0  0  0
   14.4996  -58.5230   38.0388 C   0  0  0  0  0  0  0  0  0  0  0  0
   14.0370  -57.2935   38.7305 C   0  0  0  0  0  0  0  0  0  0  0  0
   15.0452  -56.3279   39.2003 C   0  0  0  0  0  0  0  0  0  0  0  0
   15.2931  -55.2058   38.3641 N   0  0  0  0  0  0  0  0  0  0  0  0
   16.5492  -55.3702   37.6726 C   0  0  0  0  0  0  0  0  0  0  0  0
   15.4520  -54.0019   39.2014 C   0  0  0  0  0  0  0  0  0  0  0  0
   14.5067  -54.9613   37.7235 H   0  0  0  0  0  0  0  0  0  0  0  0
 20 21  1  0  0  0
 21 22  2  0  0  0
 21 26  1  0  0  0
 22 23  1  0  0  0
 23 24  2  0  0  0
 23  1  1  0  0  0
 24 25  1  0  0  0
 25 26  2  0  0  0
  1  2  1  0  0  0
  1  7  1  0  0  0
  2  3  1  0  0  0
  2 27  1  0  0  0
  3  4  2  0  0  0
  3  5  1  0  0  0
  5  6  2  0  0  0
  5  7  1  0  0  0
  7  8  2  0  0  0
  8  9  1  0  0  0
  8 10  1  0  0  0
 10 11  1  0  0  0
 10 14  2  0  0  0
 11 12  1  0  0  0
 11 19  1  0  0  0
 12 13  2  0  0  0
 12 16  1  0  0  0
 13 14  1  0  0  0
 14 15  1  0  0  0
 16 17  2  0  0  0
 17 18  1  0  0  0
 18 19  2  0  0  0
 27 28  1  0  0  0
 28 29  1  0  0  0
 29 30  1  0  0  0
 30 31  1  0  0  0
 30 32  1  0  0  0
 30 33  1  0  0  0
M  CHG 1   9  -1
M  CHG 1  30   1
M  END
> <minimizedAffinity>
-7.25083

$$$$
188


 31 34  0  0  0  0  0  0  0  0999 V2000
   15.9877  -59.1914   34.3584 C   0  0  0  0  0  0  0  0  0  0  0  0
   14.7237  -58.6441   34.8281 N   0  0  0  0  0  0  0  0  0  0  0  0
   14.4330  -57.6109   33.8572 C   0  0  0  0  0  0  0  0  0  0  0  0
   13.3053  -57.1559   33.5694 O   0  0  0  0  0  0  0  0  0  0  0  0
   15.6834  -57.1731   33.2513 C   0  0  0  0  0  0  0  0  0  0  0  0
   15.9168  -56.3093   32.3673 O   0  0  0  0  0  0  0  0  0  0  0  0
   16.7340  -57.9692   33.8847 C   0  0  0  0  0  0  0  0  0  0  0  0
   18.0065  -57.7200   34.0009 C   0  0  0  0  0  0  0  0  0  0  0  0
   18.8162  -58.6864   34.6352 O   0  0  0  0  0  0  0  0  0  0  0  0
   18.0104  -60.9363   29.6969 Br  0  0  0  0  0  0  0  0  0  0  0  0
   16.6322  -60.8792   31.0294 C   0  0  0  0  0  0  0  0  0  0  0  0
   16.7623  -60.1052   32.1722 C   0  0  0  0  0  0  0  0  0  0  0  0
   15.7924  -60.0437   33.1483 C   0  0  0  0  0  0  0  0  0  0  0  0
   14.6491  -60.7955   32.9576 C   0  0  0  0  0  0  0  0  0  0  0  0
   14.5018  -61.5814   31.8121 C   0  0  0  0  0  0  0  0  0  0  0  0
   15.4881  -61.6283   30.8448 C   0  0  0  0  0  0  0  0  0  0  0  0
   18.5692  -56.4820   33.4937 C   0  0  0  0  0  0  0  0  0  0  0  0
   18.9831  -56.3308   32.2639 O   0  0  0  0  0  0  0  0  0  0  0  0
   19.4470  -55.1276   32.0654 C   0  0  0  0  0  0  0  0  0  0  0  0
   19.3364  -54.4329   33.2314 C   0  0  0  0  0  0  0  0  0  0  0  0
   18.7682  -55.3073   34.1650 C   0  0  0  0  0  0  0  0  0  0  0  0
   13.8912  -58.9919   35.9489 C   0  0  0  0  0  0  0  0  0  0  0  0
   14.4767  -58.6086   37.2884 C   0  0  0  0  0  0  0  0  0  0  0  0
   14.5126  -57.1370   37.4116 C   0  0  0  0  0  0  0  0  0  0  0  0
   15.6442  -56.6089   38.1396 N   0  0  0  0  0  0  0  0  0  0  0  0
   16.6712  -56.0906   37.2667 C   0  0  0  0  0  0  0  0  0  0  0  0
   16.6111  -54.6236   37.0306 C   0  0  0  0  0  0  0  0  0  0  0  0
   16.3266  -53.8538   38.1387 O   0  0  0  0  0  0  0  0  0  0  0  0
   15.2200  -54.2922   38.8537 C   0  0  0  0  0  0  0  0  0  0  0  0
   15.3276  -55.7480   39.2281 C   0  0  0  0  0  0  0  0  0  0  0  0
   16.0898  -57.4756   38.5798 H   0  0  0  0  0  0  0  0  0  0  0  0
 10 11  1  0  0  0
 11 12  2  0  0  0
 11 16  1  0  0  0
 12 13  1  0  0  0
 13 14  2  0  0  0
 13  1  1  0  0  0
 14 15  1  0  0  0
 15 16  2  0  0  0
  1  2  1  0  0  0
  1  7  1  0  0  0
  2  3  1  0  0  0
  2 22  1  0  0  0
  3  4  2  0  0  0
  3  5  1  0  0  0
  5  6  2  0  0  0
  5  7  1  0  0  0
  7  8  2  0  0  0
  8  9  1  0  0  0
  8 17  1  0  0  0
 17 18  1  0  0  0
 17 21  2  0  0  0
 18 19  1  0  0  0
 19 20  2  0  0  0
 20 21  1  0  0  0
 22 23  1  0  0  0
 23 24  1  0  0  0
 24 25  1  0  0  0
 25 26  1  0  0  0
 25 30  1  0  0  0
 26 27  1  0  0  0
 27 28  1  0  0  0
 28 29  1  0  0  0
 29 30  1  0  0  0
 25 31  1  0  0  0
M  CHG 1   9  -1
M  CHG 1  25   1
M  END
> <minimizedAffinity>
-8.15997

$$$$
191


 34 37  0  0  0  0  0  0  0  0999 V2000
   16.1420  -59.3067   33.7693 C   0  0  0  0  0  0  0  0  0  0  0  0
   14.7500  -59.0954   34.1114 N   0  0  0  0  0  0  0  0  0  0  0  0
   14.4606  -57.7292   33.7437 C   0  0  0  0  0  0  0  0  0  0  0  0
   13.3200  -57.2668   33.4993 O   0  0  0  0  0  0  0  0  0  0  0  0
   15.7436  -57.0203   33.7192 C   0  0  0  0  0  0  0  0  0  0  0  0
   15.9644  -55.8117   33.4496 O   0  0  0  0  0  0  0  0  0  0  0  0
   16.7876  -57.9753   34.0727 C   0  0  0  0  0  0  0  0  0  0  0  0
   18.0005  -57.7161   34.5306 C   0  0  0  0  0  0  0  0  0  0  0  0
   18.8571  -58.7559   34.7903 O   0  0  0  0  0  0  0  0  0  0  0  0
   18.4513  -56.3324   34.7708 C   0  0  0  0  0  0  0  0  0  0  0  0
   18.1795  -55.6194   35.8299 O   0  0  0  0  0  0  0  0  0  0  0  0
   18.6913  -54.4344   35.8022 C   0  0  0  0  0  0  0  0  0  0  0  0
   19.3758  -54.3264   34.6157 C   0  0  0  0  0  0  0  0  0  0  0  0
   19.2221  -55.5312   33.9626 C   0  0  0  0  0  0  0  0  0  0  0  0
   20.0195  -53.1397   34.3407 C   0  0  0  0  0  0  0  0  0  0  0  0
   19.9894  -52.0761   35.2198 C   0  0  0  0  0  0  0  0  0  0  0  0
   19.2813  -52.2308   36.4158 C   0  0  0  0  0  0  0  0  0  0  0  0
   18.6283  -53.3974   36.7238 C   0  0  0  0  0  0  0  0  0  0  0  0
   17.9467  -53.5086   37.9086 O   0  0  0  0  0  0  0  0  0  0  0  0
   17.1872  -52.5224   38.5311 C   0  0  0  0  0  0  0  0  0  0  0  0
   18.7900  -58.3199   29.2090 Br  0  0  0  0  0  0  0  0  0  0  0  0
   17.4939  -59.3075   30.2341 C   0  0  0  0  0  0  0  0  0  0  0  0
   17.2737  -59.0024   31.5460 C   0  0  0  0  0  0  0  0  0  0  0  0
   16.3503  -59.6781   32.3467 C   0  0  0  0  0  0  0  0  0  0  0  0
   15.6629  -60.6930   31.7186 C   0  0  0  0  0  0  0  0  0  0  0  0
   15.8792  -61.0138   30.3809 C   0  0  0  0  0  0  0  0  0  0  0  0
   16.7954  -60.3189   29.6442 C   0  0  0  0  0  0  0  0  0  0  0  0
   13.8105  -60.0320   34.6781 C   0  0  0  0  0  0  0  0  0  0  0  0
   12.9303  -59.3763   35.7144 C   0  0  0  0  0  0  0  0  0  0  0  0
   13.5252  -59.2672   37.0716 C   0  0  0  0  0  0  0  0  0  0  0  0
   14.3416  -58.1130   37.2838 N   0  0  0  0  0  0  0  0  0  0  0  0
   15.7110  -58.5041   37.6299 C   0  0  0  0  0  0  0  0  0  0  0  0
   13.8240  -57.2432   38.2945 C   0  0  0  0  0  0  0  0  0  0  0  0
   14.4572  -57.5331   36.4036 H   0  0  0  0  0  0  0  0  0  0  0  0
 21 22  1  0  0  0
 22 23  2  0  0  0
 22 27  1  0  0  0
 23 24  1  0  0  0
 24 25  2  0  0  0
 24  1  1  0  0  0
 25 26  1  0  0  0
 26 27  2  0  0  0
  1  2  1  0  0  0
  1  7  1  0  0  0
  2  3  1  0  0  0
  2 28  1  0  0  0
  3  4  2  0  0  0
  3  5  1  0  0  0
  5  6  2  0  0  0
  5  7  1  0  0  0
  7  8  2  0  0  0
  8  9  1  0  0  0
  8 10  1  0  0  0
 10 11  1  0  0  0
 10 14  2  0  0  0
 11 12  1  0  0  0
 12 13  2  0  0  0
 12 18  1  0  0  0
 13 14  1  0  0  0
 13 15  1  0  0  0
 15 16  2  0  0  0
 16 17  1  0  0  0
 17 18  2  0  0  0
 18 19  1  0  0  0
 19 20  1  0  0  0
 28 29  1  0  0  0
 29 30  1  0  0  0
 30 31  1  0  0  0
 31 32  1  0  0  0
 31 33  1  0  0  0
 31 34  1  0  0  0
M  CHG 1   9  -1
M  CHG 1  31   1
M  END
> <minimizedAffinity>
-8.77429

$$$$
199


 25 28  0  0  0  0  0  0  0  0999 V2000
   14.6347  -57.6692   38.3847 C   0  0  0  0  0  0  0  0  0  0  0  0
   15.6858  -58.4978   37.6930 C   0  0  0  0  0  0  0  0  0  0  0  0
   14.9883  -58.3606   36.4058 N   0  0  0  0  0  0  0  0  0  0  0  0
   13.8124  -57.9895   37.1710 C   0  0  0  0  0  0  0  0  0  0  0  0
   15.3812  -58.5378   35.0507 C   0  0  0  0  0  0  0  0  0  0  0  0
   15.0481  -59.6472   34.3413 N   0  0  0  0  0  0  0  0  0  0  0  0
   15.4373  -59.7928   33.0408 C   0  0  0  0  0  0  0  0  0  0  0  0
   16.1574  -58.8509   32.4238 N   0  0  0  0  0  0  0  0  0  0  0  0
   16.5197  -57.7360   33.0606 C   0  0  0  0  0  0  0  0  0  0  0  0
   17.2310  -56.6596   32.6699 N   0  0  0  0  0  0  0  0  0  0  0  0
   17.2856  -55.8542   33.7083 N   0  0  0  0  0  0  0  0  0  0  0  0
   16.6315  -56.3847   34.7478 N   0  0  0  0  0  0  0  0  0  0  0  0
   16.1254  -57.5909   34.3752 C   0  0  0  0  0  0  0  0  0  0  0  0
   17.8342  -56.4038   31.3644 C   0  0  0  0  0  0  0  0  0  0  0  0
   16.1605  -55.7397   37.8980 N   0  0  0  0  0  0  0  0  0  0  0  0
   14.9997  -56.2166   38.5263 C   0  0  0  0  0  0  0  0  0  0  0  0
   14.2169  -55.5420   39.2111 O   0  0  0  0  0  0  0  0  0  0  0  0
   16.7638  -56.4364   37.3246 H   0  0  0  0  0  0  0  0  0  0  0  0
   19.7473  -52.3185   36.0624 Br  0  0  0  0  0  0  0  0  0  0  0  0
   18.2456  -52.7710   37.1445 C   0  0  0  0  0  0  0  0  0  0  0  0
   17.7282  -54.0452   37.1591 C   0  0  0  0  0  0  0  0  0  0  0  0
   16.6245  -54.4108   37.9443 C   0  0  0  0  0  0  0  0  0  0  0  0
   16.0752  -53.4207   38.7097 C   0  0  0  0  0  0  0  0  0  0  0  0
   16.6083  -52.1296   38.6886 C   0  0  0  0  0  0  0  0  0  0  0  0
   17.6783  -51.8028   37.9185 C   0  0  0  0  0  0  0  0  0  0  0  0
 19 20  1  0  0  0
 20 21  2  0  0  0
 20 25  1  0  0  0
 21 22  1  0  0  0
 22 23  2  0  0  0
 22 15  1  0  0  0
 23 24  1  0  0  0
 24 25  2  0  0  0
 15 16  1  0  0  0
 16 17  2  0  0  0
 16  1  1  0  0  0
  1  2  1  0  0  0
  1  4  1  0  0  0
  2  3  1  0  0  0
  3  4  1  0  0  0
  3  5  1  0  0  0
  5  6  2  0  0  0
  5 13  1  0  0  0
  6  7  1  0  0  0
  7  8  2  0  0  0
  8  9  1  0  0  0
  9 10  1  0  0  0
  9 13  2  0  0  0
 10 11  1  0  0  0
 10 14  1  0  0  0
 11 12  2  0  0  0
 12 13  1  0  0  0
 15 18  1  0  0  0
M  END
> <minimizedAffinity>
-9.55984

$$$$
200


 21 24  0  0  0  0  0  0  0  0999 V2000
   15.8629  -56.9060   36.0364 C   0  0  0  0  0  0  0  0  0  0  0  0
   14.7883  -57.6578   36.2490 N   0  0  0  0  0  0  0  0  0  0  0  0
   13.9598  -58.1132   35.2943 C   0  0  0  0  0  0  0  0  0  0  0  0
   12.8459  -58.8646   35.2498 N   0  0  0  0  0  0  0  0  0  0  0  0
   12.4262  -59.0130   34.0328 O   0  0  0  0  0  0  0  0  0  0  0  0
   13.2367  -58.3770   33.2637 N   0  0  0  0  0  0  0  0  0  0  0  0
   14.2177  -57.7906   33.9694 C   0  0  0  0  0  0  0  0  0  0  0  0
   15.2918  -57.0321   33.7047 N   0  0  0  0  0  0  0  0  0  0  0  0
   15.7415  -56.5954   32.5309 N   0  0  0  0  0  0  0  0  0  0  0  0
   16.8454  -55.8728   32.7747 N   0  0  0  0  0  0  0  0  0  0  0  0
   17.0577  -55.8769   34.0922 N   0  0  0  0  0  0  0  0  0  0  0  0
   16.0989  -56.5941   34.6833 C   0  0  0  0  0  0  0  0  0  0  0  0
   16.7615  -56.4043   37.0072 N   0  0  0  0  0  0  0  0  0  0  0  0
   17.5623  -57.0122   37.3429 H   0  0  0  0  0  0  0  0  0  0  0  0
   18.4152  -51.3117   37.3219 Br  0  0  0  0  0  0  0  0  0  0  0  0
   17.3204  -52.7789   37.8554 C   0  0  0  0  0  0  0  0  0  0  0  0
   17.4306  -54.0241   37.2584 C   0  0  0  0  0  0  0  0  0  0  0  0
   16.6815  -55.1212   37.5879 C   0  0  0  0  0  0  0  0  0  0  0  0
   15.7471  -54.8939   38.6207 C   0  0  0  0  0  0  0  0  0  0  0  0
   15.6109  -53.6731   39.2342 C   0  0  0  0  0  0  0  0  0  0  0  0
   16.3979  -52.6087   38.8549 C   0  0  0  0  0  0  0  0  0  0  0  0
 15 16  1  0  0  0
 16 17  2  0  0  0
 16 21  1  0  0  0
 17 18  1  0  0  0
 18 19  2  0  0  0
 18 13  1  0  0  0
 19 20  1  0  0  0
 20 21  2  0  0  0
 13  1  1  0  0  0
  1  2  2  0  0  0
  1 12  1  0  0  0
  2  3  1  0  0  0
  3  4  2  0  0  0
  3  7  1  0  0  0
  4  5  1  0  0  0
  5  6  1  0  0  0
  6  7  2  0  0  0
  7  8  1  0  0  0
  8  9  1  0  0  0
  8 12  1  0  0  0
  9 10  2  0  0  0
 10 11  1  0  0  0
 11 12  2  0  0  0
 13 14  1  0  0  0
M  END
> <minimizedAffinity>
-9.44296

$$$$
201


 25 28  0  0  0  0  0  0  0  0999 V2000
   14.1639  -57.7094   38.2602 C   0  0  0  0  0  0  0  0  0  0  0  0
   14.9687  -58.6700   38.1753 O   0  0  0  0  0  0  0  0  0  0  0  0
   12.7802  -57.9730   38.2030 N   0  0  0  0  0  0  0  0  0  0  0  0
   12.1264  -57.1615   38.2753 H   0  0  0  0  0  0  0  0  0  0  0  0
   15.9533  -54.5597   38.1535 N   0  0  0  0  0  0  0  0  0  0  0  0
   15.0618  -54.3311   39.0811 N   0  0  0  0  0  0  0  0  0  0  0  0
   14.2964  -55.3944   39.2658 N   0  0  0  0  0  0  0  0  0  0  0  0
   14.7081  -56.3661   38.4156 C   0  0  0  0  0  0  0  0  0  0  0  0
   15.7599  -55.8159   37.7190 C   0  0  0  0  0  0  0  0  0  0  0  0
   19.9742  -53.6816   34.7380 Br  0  0  0  0  0  0  0  0  0  0  0  0
   18.7996  -53.1776   36.1522 C   0  0  0  0  0  0  0  0  0  0  0  0
   17.8193  -54.0591   36.6197 C   0  0  0  0  0  0  0  0  0  0  0  0
   16.9742  -53.6937   37.6392 C   0  0  0  0  0  0  0  0  0  0  0  0
   17.1232  -52.4366   38.1834 C   0  0  0  0  0  0  0  0  0  0  0  0
   18.1000  -51.5458   37.7249 C   0  0  0  0  0  0  0  0  0  0  0  0
   18.9414  -51.9228   36.7032 C   0  0  0  0  0  0  0  0  0  0  0  0
   12.2037  -59.2894   38.0497 C   0  0  0  0  0  0  0  0  0  0  0  0
   12.1101  -59.6743   36.5984 C   0  0  0  0  0  0  0  0  0  0  0  0
   11.5304  -60.7731   36.0583 N   0  0  0  0  0  0  0  0  0  0  0  0
   11.6619  -60.7387   34.7281 C   0  0  0  0  0  0  0  0  0  0  0  0
   12.3363  -59.5972   34.4504 N   0  0  0  0  0  0  0  0  0  0  0  0
   12.6044  -58.9589   35.5721 N   0  0  0  0  0  0  0  0  0  0  0  0
   11.0281  -61.9490   34.0891 C   0  0  0  0  0  0  0  0  0  0  0  0
   10.9229  -62.8781   35.2800 C   0  0  0  0  0  0  0  0  0  0  0  0
   10.8204  -61.9657   36.4875 C   0  0  0  0  0  0  0  0  0  0  0  0
 10 11  1  0  0  0
 11 12  2  0  0  0
 11 16  1  0  0  0
 12 13  1  0  0  0
 13 14  2  0  0  0
 13  5  1  0  0  0
 14 15  1  0  0  0
 15 16  2  0  0  0
  5  6  1  0  0  0
  5  9  1  0  0  0
  6  7  2  0  0  0
  7  8  1  0  0  0
  8  9  2  0  0  0
  8  1  1  0  0  0
  1  2  2  0  0  0
  1  3  1  0  0  0
  3 17  1  0  0  0
 17 18  1  0  0  0
 18 19  1  0  0  0
 18 22  2  0  0  0
 19 20  1  0  0  0
 19 25  1  0  0  0
 20 21  2  0  0  0
 20 23  1  0  0  0
 21 22  1  0  0  0
 23 24  1  0  0  0
 24 25  1  0  0  0
  3  4  1  0  0  0
M  END
> <minimizedAffinity>
-9.38394

$$$$
205


 25 28  0  0  0  0  0  0  0  0999 V2000
   16.3399  -55.5625   37.2402 N   0  0  0  0  0  0  0  0  0  0  0  0
   16.6390  -56.4335   36.1308 C   0  0  0  0  0  0  0  0  0  0  0  0
   17.0634  -56.0236   35.0135 O   0  0  0  0  0  0  0  0  0  0  0  0
   16.3739  -57.8168   36.5212 C   0  0  0  0  0  0  0  0  0  0  0  0
   15.8673  -58.6660   35.5773 O   0  0  0  0  0  0  0  0  0  0  0  0
   15.0381  -59.4880   36.3371 N   0  0  0  0  0  0  0  0  0  0  0  0
   14.3928  -58.6888   37.2995 C   0  0  0  0  0  0  0  0  0  0  0  0
   15.1927  -57.6227   37.4428 C   0  0  0  0  0  0  0  0  0  0  0  0
   15.4313  -56.3218   38.0569 C   0  0  0  0  0  0  0  0  0  0  0  0
   14.9230  -55.9268   39.1272 O   0  0  0  0  0  0  0  0  0  0  0  0
   14.9179  -60.5013   36.2148 H   0  0  0  0  0  0  0  0  0  0  0  0
   19.9429  -51.7716   36.1952 Br  0  0  0  0  0  0  0  0  0  0  0  0
   18.4031  -52.4593   37.0855 C   0  0  0  0  0  0  0  0  0  0  0  0
   17.9219  -53.7247   36.8630 C   0  0  0  0  0  0  0  0  0  0  0  0
   16.8015  -54.2528   37.5010 C   0  0  0  0  0  0  0  0  0  0  0  0
   16.1768  -53.4053   38.4027 C   0  0  0  0  0  0  0  0  0  0  0  0
   16.6497  -52.1358   38.6327 C   0  0  0  0  0  0  0  0  0  0  0  0
   17.7716  -51.6259   37.9859 C   0  0  0  0  0  0  0  0  0  0  0  0
   13.1669  -58.9463   38.0391 C   0  0  0  0  0  0  0  0  0  0  0  0
   11.9826  -59.4252   37.4711 C   0  0  0  0  0  0  0  0  0  0  0  0
   11.0891  -59.5668   38.4299 N   0  0  0  0  0  0  0  0  0  0  0  0
   11.6462  -59.2003   39.5816 N   0  0  0  0  0  0  0  0  0  0  0  0
   12.8956  -58.8213   39.3728 C   0  0  0  0  0  0  0  0  0  0  0  0
    9.7125  -60.0364   38.2825 C   0  0  0  0  0  0  0  0  0  0  0  0
   11.7524  -59.7016   36.0336 C   0  0  0  0  0  0  0  0  0  0  0  0
 12 13  1  0  0  0
 13 14  2  0  0  0
 13 18  1  0  0  0
 14 15  1  0  0  0
 15 16  2  0  0  0
 15  1  1  0  0  0
 16 17  1  0  0  0
 17 18  2  0  0  0
  1  2  1  0  0  0
  1  9  1  0  0  0
  2  3  2  0  0  0
  2  4  1  0  0  0
  4  5  1  0  0  0
  4  8  1  0  0  0
  5  6  1  0  0  0
  6  7  1  0  0  0
  7  8  2  0  0  0
  7 19  1  0  0  0
  8  9  1  0  0  0
  9 10  2  0  0  0
 19 20  2  0  0  0
 19 23  1  0  0  0
 20 21  1  0  0  0
 20 25  1  0  0  0
 21 22  1  0  0  0
 21 24  1  0  0  0
 22 23  2  0  0  0
  6 11  1  0  0  0
M  END
> <minimizedAffinity>
-9.92322

$$$$
211


 22 25  0  0  0  0  0  0  0  0999 V2000
   17.7985  -55.4542   36.0542 N   0  0  0  0  0  0  0  0  0  0  0  0
   18.9587  -54.7486   36.4712 C   0  0  0  0  0  0  0  0  0  0  0  0
   20.1072  -54.8240   35.8970 O   0  0  0  0  0  0  0  0  0  0  0  0
   18.6251  -53.9333   37.6480 C   0  0  0  0  0  0  0  0  0  0  0  0
   18.2393  -52.5644   37.1789 C   0  0  0  0  0  0  0  0  0  0  0  0
   16.9925  -52.8635   36.5720 O   0  0  0  0  0  0  0  0  0  0  0  0
   16.3610  -53.3502   37.7473 C   0  0  0  0  0  0  0  0  0  0  0  0
   17.3041  -54.4828   38.1089 C   0  0  0  0  0  0  0  0  0  0  0  0
   16.9813  -55.6031   37.2027 C   0  0  0  0  0  0  0  0  0  0  0  0
   16.1364  -56.5097   37.4244 O   0  0  0  0  0  0  0  0  0  0  0  0
   16.5660  -52.1900   38.6441 C   0  0  0  0  0  0  0  0  0  0  0  0
   17.7526  -51.6760   38.2691 C   0  0  0  0  0  0  0  0  0  0  0  0
   17.0319  -59.6753   32.9426 Br  0  0  0  0  0  0  0  0  0  0  0  0
   17.1404  -57.7855   33.1940 C   0  0  0  0  0  0  0  0  0  0  0  0
   17.4091  -57.2807   34.4258 C   0  0  0  0  0  0  0  0  0  0  0  0
   17.5108  -55.9293   34.7187 C   0  0  0  0  0  0  0  0  0  0  0  0
   17.3201  -55.0639   33.6658 C   0  0  0  0  0  0  0  0  0  0  0  0
   17.0414  -55.5504   32.3861 C   0  0  0  0  0  0  0  0  0  0  0  0
   16.9513  -56.9056   32.1461 C   0  0  0  0  0  0  0  0  0  0  0  0
   19.1986  -51.9135   36.2567 C   0  0  0  0  0  0  0  0  0  0  0  0
   19.2896  -50.5604   36.5873 O   0  0  0  0  0  0  0  0  0  0  0  0
   19.2137  -50.0024   35.7733 H   0  0  0  0  0  0  0  0  0  0  0  0
 13 14  1  0  0  0
 14 15  2  0  0  0
 14 19  1  0  0  0
 15 16  1  0  0  0
 16 17  2  0  0  0
 16  1  1  0  0  0
 17 18  1  0  0  0
 18 19  2  0  0  0
  1  2  1  0  0  0
  1  9  1  0  0  0
  2  3  2  0  0  0
  2  4  1  0  0  0
  4  5  1  0  0  0
  4  8  1  0  0  0
  5  6  1  0  0  0
  5 12  1  0  0  0
  5 20  1  0  0  0
  6  7  1  0  0  0
  7  8  1  0  0  0
  7 11  1  0  0  0
  8  9  1  0  0  0
  9 10  2  0  0  0
 11 12  2  0  0  0
 20 21  1  0  0  0
 21 22  1  0  0  0
M  END
> <minimizedAffinity>
-8.40025

$$$$
213


 25 28  0  0  0  0  0  0  0  0999 V2000
   16.0446  -55.5243   37.5903 N   0  0  0  0  0  0  0  0  0  0  0  0
   15.1391  -56.1694   38.5125 C   0  0  0  0  0  0  0  0  0  0  0  0
   14.3783  -55.6403   39.3302 O   0  0  0  0  0  0  0  0  0  0  0  0
   15.2704  -57.6419   38.3134 C   0  0  0  0  0  0  0  0  0  0  0  0
   14.0878  -58.3438   38.4583 O   0  0  0  0  0  0  0  0  0  0  0  0
   14.2807  -59.3923   37.5901 N   0  0  0  0  0  0  0  0  0  0  0  0
   14.8301  -58.7807   36.4092 C   0  0  0  0  0  0  0  0  0  0  0  0
   15.4490  -57.6964   36.8094 C   0  0  0  0  0  0  0  0  0  0  0  0
   16.2327  -56.4873   36.5294 C   0  0  0  0  0  0  0  0  0  0  0  0
   16.9323  -56.3663   35.5181 O   0  0  0  0  0  0  0  0  0  0  0  0
   14.0869  -60.3905   37.7241 H   0  0  0  0  0  0  0  0  0  0  0  0
   19.8207  -52.1270   36.1245 Br  0  0  0  0  0  0  0  0  0  0  0  0
   18.2837  -52.6008   37.1414 C   0  0  0  0  0  0  0  0  0  0  0  0
   17.7110  -53.8700   37.0103 C   0  0  0  0  0  0  0  0  0  0  0  0
   16.6000  -54.2327   37.7374 C   0  0  0  0  0  0  0  0  0  0  0  0
   16.0723  -53.3019   38.5973 C   0  0  0  0  0  0  0  0  0  0  0  0
   16.6433  -52.0283   38.7316 C   0  0  0  0  0  0  0  0  0  0  0  0
   17.7560  -51.6672   38.0025 C   0  0  0  0  0  0  0  0  0  0  0  0
   14.7376  -59.2229   35.0440 C   0  0  0  0  0  0  0  0  0  0  0  0
   15.8597  -59.4043   34.2383 C   0  0  0  0  0  0  0  0  0  0  0  0
   15.4753  -59.8343   33.0230 N   0  0  0  0  0  0  0  0  0  0  0  0
   14.1569  -59.9174   33.0717 N   0  0  0  0  0  0  0  0  0  0  0  0
   13.6624  -59.5643   34.2563 C   0  0  0  0  0  0  0  0  0  0  0  0
   12.2251  -59.5380   34.6917 C   0  0  0  0  0  0  0  0  0  0  0  0
   16.3538  -60.1422   31.8826 C   0  0  0  0  0  0  0  0  0  0  0  0
 12 13  1  0  0  0
 13 14  2  0  0  0
 13 18  1  0  0  0
 14 15  1  0  0  0
 15 16  2  0  0  0
 15  1  1  0  0  0
 16 17  1  0  0  0
 17 18  2  0  0  0
  1  2  1  0  0  0
  1  9  1  0  0  0
  2  3  2  0  0  0
  2  4  1  0  0  0
  4  5  1  0  0  0
  4  8  1  0  0  0
  5  6  1  0  0  0
  6  7  1  0  0  0
  7  8  2  0  0  0
  7 19  1  0  0  0
  8  9  1  0  0  0
  9 10  2  0  0  0
 19 20  2  0  0  0
 19 23  1  0  0  0
 20 21  1  0  0  0
 21 22  1  0  0  0
 21 25  1  0  0  0
 22 23  2  0  0  0
 23 24  1  0  0  0
  6 11  1  0  0  0
M  END
> <minimizedAffinity>
-10.06170

$$$$
216


 28 31  0  0  0  0  0  0  0  0999 V2000
   17.1974  -57.9463   32.9863 C   0  0  0  0  0  0  0  0  0  0  0  0
   17.9276  -58.8739   32.5562 O   0  0  0  0  0  0  0  0  0  0  0  0
   15.8623  -58.1734   33.3823 N   0  0  0  0  0  0  0  0  0  0  0  0
   14.9881  -57.1238   33.8870 C   0  0  0  0  0  0  0  0  0  0  0  0
   13.9612  -57.7483   34.8231 C   0  0  0  0  0  0  0  0  0  0  0  0
   14.4418  -58.9612   35.4550 N   0  0  0  0  0  0  0  0  0  0  0  0
   14.5743  -59.9794   34.4732 C   0  0  0  0  0  0  0  0  0  0  0  0
   15.3472  -59.5443   33.2748 C   0  0  0  0  0  0  0  0  0  0  0  0
   19.2184  -55.1206   33.8960 N   0  0  0  0  0  0  0  0  0  0  0  0
   18.8708  -56.5128   34.1389 C   0  0  0  0  0  0  0  0  0  0  0  0
   17.7604  -56.6135   33.0723 C   0  0  0  0  0  0  0  0  0  0  0  0
   18.6214  -56.2201   31.8668 C   0  0  0  0  0  0  0  0  0  0  0  0
   19.3201  -55.0553   32.4779 C   0  0  0  0  0  0  0  0  0  0  0  0
   19.9095  -54.1527   31.8405 O   0  0  0  0  0  0  0  0  0  0  0  0
   18.8143  -54.0709   39.0197 Br  0  0  0  0  0  0  0  0  0  0  0  0
   19.2315  -53.5404   37.2557 C   0  0  0  0  0  0  0  0  0  0  0  0
   19.0969  -54.4583   36.2201 C   0  0  0  0  0  0  0  0  0  0  0  0
   19.3829  -54.1441   34.9044 C   0  0  0  0  0  0  0  0  0  0  0  0
   19.8125  -52.8555   34.6755 C   0  0  0  0  0  0  0  0  0  0  0  0
   19.9678  -51.8949   35.6535 C   0  0  0  0  0  0  0  0  0  0  0  0
   19.6714  -52.2531   36.9507 C   0  0  0  0  0  0  0  0  0  0  0  0
   15.5545  -58.7273   36.3050 C   0  0  0  0  0  0  0  0  0  0  0  0
   15.1984  -58.6010   37.7644 C   0  0  0  0  0  0  0  0  0  0  0  0
   15.0625  -57.2469   38.2186 N   0  0  0  0  0  0  0  0  0  0  0  0
   14.2333  -56.7601   39.1436 C   0  0  0  0  0  0  0  0  0  0  0  0
   14.4230  -55.4284   39.2634 N   0  0  0  0  0  0  0  0  0  0  0  0
   15.3833  -55.0649   38.4053 C   0  0  0  0  0  0  0  0  0  0  0  0
   15.7765  -56.2116   37.7556 C   0  0  0  0  0  0  0  0  0  0  0  0
 15 16  1  0  0  0
 16 17  2  0  0  0
 16 21  1  0  0  0
 17 18  1  0  0  0
 18 19  2  0  0  0
 18  9  1  0  0  0
 19 20  1  0  0  0
 20 21  2  0  0  0
  9 10  1  0  0  0
  9 13  1  0  0  0
 10 11  1  0  0  0
 11 12  1  0  0  0
 11  1  1  0  0  0
 12 13  1  0  0  0
 13 14  2  0  0  0
  1  2  2  0  0  0
  1  3  1  0  0  0
  3  4  1  0  0  0
  3  8  1  0  0  0
  4  5  1  0  0  0
  5  6  1  0  0  0
  6  7  1  0  0  0
  6 22  1  0  0  0
  7  8  1  0  0  0
 22 23  1  0  0  0
 23 24  1  0  0  0
 24 25  1  0  0  0
 24 28  1  0  0  0
 25 26  2  0  0  0
 26 27  1  0  0  0
 27 28  2  0  0  0
M  END
> <minimizedAffinity>
-9.02915

$$$$
219


 27 30  0  0  0  0  0  0  0  0999 V2000
   14.7133  -57.4059   36.9866 N   0  0  0  0  0  0  0  0  0  0  0  0
   14.5487  -58.6191   36.2631 C   0  0  0  0  0  0  0  0  0  0  0  0
   13.5434  -59.3281   36.6180 O   0  0  0  0  0  0  0  0  0  0  0  0
   15.5127  -56.7867   36.7364 H   0  0  0  0  0  0  0  0  0  0  0  0
   15.4336  -59.0850   35.1757 C   0  0  0  0  0  0  0  0  0  0  0  0
   16.2005  -58.0490   34.5395 N   0  0  0  0  0  0  0  0  0  0  0  0
   15.5860  -57.0360   33.7255 C   0  0  0  0  0  0  0  0  0  0  0  0
   14.4389  -57.0511   33.2131 O   0  0  0  0  0  0  0  0  0  0  0  0
   16.5457  -55.9415   33.5809 C   0  0  0  0  0  0  0  0  0  0  0  0
   17.8064  -56.3433   34.3724 C   0  0  0  0  0  0  0  0  0  0  0  0
   18.9572  -56.1366   33.4521 C   0  0  0  0  0  0  0  0  0  0  0  0
   18.4109  -55.0047   32.5564 C   0  0  0  0  0  0  0  0  0  0  0  0
   17.1307  -55.7882   32.2038 C   0  0  0  0  0  0  0  0  0  0  0  0
   17.7671  -57.0928   31.8169 C   0  0  0  0  0  0  0  0  0  0  0  0
   18.9276  -57.2306   32.4496 C   0  0  0  0  0  0  0  0  0  0  0  0
   17.6123  -57.8017   34.5821 C   0  0  0  0  0  0  0  0  0  0  0  0
   18.4844  -58.6695   34.7611 O   0  0  0  0  0  0  0  0  0  0  0  0
   13.8288  -57.0053   38.0384 C   0  0  0  0  0  0  0  0  0  0  0  0
   14.6291  -56.5156   39.2555 C   0  0  0  0  0  0  0  0  0  0  0  0
   15.4089  -55.5285   38.9555 O   0  0  0  0  0  0  0  0  0  0  0  0
   19.5870  -53.7555   36.4118 Br  0  0  0  0  0  0  0  0  0  0  0  0
   18.0397  -53.5514   37.5120 C   0  0  0  0  0  0  0  0  0  0  0  0
   17.2509  -54.6141   37.8582 C   0  0  0  0  0  0  0  0  0  0  0  0
   16.1061  -54.4925   38.6666 C   0  0  0  0  0  0  0  0  0  0  0  0
   15.8279  -53.1804   39.1000 C   0  0  0  0  0  0  0  0  0  0  0  0
   16.6180  -52.1118   38.7544 C   0  0  0  0  0  0  0  0  0  0  0  0
   17.7299  -52.2948   37.9565 C   0  0  0  0  0  0  0  0  0  0  0  0
 21 22  1  0  0  0
 22 23  2  0  0  0
 22 27  1  0  0  0
 23 24  1  0  0  0
 24 25  2  0  0  0
 24 20  1  0  0  0
 25 26  1  0  0  0
 26 27  2  0  0  0
 20 19  1  0  0  0
 19 18  1  0  0  0
 18  1  1  0  0  0
  1  2  1  0  0  0
  2  3  2  0  0  0
  2  5  1  0  0  0
  5  6  1  0  0  0
  6  7  1  0  0  0
  6 16  1  0  0  0
  7  8  2  0  0  0
  7  9  1  0  0  0
  9 10  1  0  0  0
  9 13  1  0  0  0
 10 11  1  0  0  0
 10 16  1  0  0  0
 11 12  1  0  0  0
 11 15  1  0  0  0
 12 13  1  0  0  0
 13 14  1  0  0  0
 14 15  2  0  0  0
 16 17  2  0  0  0
  1  4  1  0  0  0
M  END
> <minimizedAffinity>
-9.33374

$$$$
226


 30 33  0  0  0  0  0  0  0  0999 V2000
   15.6508  -56.9998   36.9172 N   0  0  0  0  0  0  0  0  0  0  0  0
   14.5485  -57.5005   37.4994 C   0  0  0  0  0  0  0  0  0  0  0  0
   13.8272  -58.2351   36.5778 C   0  0  0  0  0  0  0  0  0  0  0  0
   14.5322  -58.1550   35.4428 N   0  0  0  0  0  0  0  0  0  0  0  0
   15.6407  -57.4138   35.6183 C   0  0  0  0  0  0  0  0  0  0  0  0
   12.6792  -58.8351   36.9414 N   0  0  0  0  0  0  0  0  0  0  0  0
   12.2181  -58.7286   38.2000 C   0  0  0  0  0  0  0  0  0  0  0  0
   11.1519  -59.2722   38.5813 O   0  0  0  0  0  0  0  0  0  0  0  0
   12.9193  -58.0083   39.1183 N   0  0  0  0  0  0  0  0  0  0  0  0
   14.0716  -57.3902   38.8034 C   0  0  0  0  0  0  0  0  0  0  0  0
   14.6973  -56.7236   39.6905 O   0  0  0  0  0  0  0  0  0  0  0  0
   11.8997  -59.6111   35.9989 C   0  0  0  0  0  0  0  0  0  0  0  0
   12.5263  -57.9514   40.0866 H   0  0  0  0  0  0  0  0  0  0  0  0
   16.6511  -57.0901   34.6812 N   0  0  0  0  0  0  0  0  0  0  0  0
   17.8644  -57.8417   34.6829 C   0  0  0  0  0  0  0  0  0  0  0  0
   18.7372  -57.7222   33.4896 C   0  0  0  0  0  0  0  0  0  0  0  0
   18.5984  -56.5129   32.7333 N   0  0  0  0  0  0  0  0  0  0  0  0
   17.1903  -56.3252   32.4429 C   0  0  0  0  0  0  0  0  0  0  0  0
   16.4475  -56.0265   33.7464 C   0  0  0  0  0  0  0  0  0  0  0  0
   19.1966  -55.3688   33.3600 C   0  0  0  0  0  0  0  0  0  0  0  0
   16.6662  -56.1893   37.5281 C   0  0  0  0  0  0  0  0  0  0  0  0
   16.2897  -54.7441   37.6177 C   0  0  0  0  0  0  0  0  0  0  0  0
   15.1500  -54.4064   37.9771 O   0  0  0  0  0  0  0  0  0  0  0  0
   20.3945  -50.3292   36.2044 Br  0  0  0  0  0  0  0  0  0  0  0  0
   19.1180  -51.6639   36.6580 C   0  0  0  0  0  0  0  0  0  0  0  0
   19.2145  -52.9365   36.1141 C   0  0  0  0  0  0  0  0  0  0  0  0
   18.3001  -53.9292   36.4250 C   0  0  0  0  0  0  0  0  0  0  0  0
   17.2548  -53.6983   37.2852 C   0  0  0  0  0  0  0  0  0  0  0  0
   17.1694  -52.4256   37.8209 C   0  0  0  0  0  0  0  0  0  0  0  0
   18.0709  -51.4298   37.5215 C   0  0  0  0  0  0  0  0  0  0  0  0
 24 25  1  0  0  0
 25 26  2  0  0  0
 25 30  1  0  0  0
 26 27  1  0  0  0
 27 28  2  0  0  0
 28 29  1  0  0  0
 28 22  1  0  0  0
 29 30  2  0  0  0
 22 23  2  0  0  0
 22 21  1  0  0  0
 21  1  1  0  0  0
  1  2  1  0  0  0
  1  5  1  0  0  0
  2  3  2  0  0  0
  2 10  1  0  0  0
  3  4  1  0  0  0
  3  6  1  0  0  0
  4  5  2  0  0  0
  5 14  1  0  0  0
 14 15  1  0  0  0
 14 19  1  0  0  0
 15 16  1  0  0  0
 16 17  1  0  0  0
 17 18  1  0  0  0
 17 20  1  0  0  0
 18 19  1  0  0  0
  6  7  1  0  0  0
  6 12  1  0  0  0
  7  8  2  0  0  0
  7  9  1  0  0  0
  9 10  1  0  0  0
 10 11  2  0  0  0
  9 13  1  0  0  0
M  END
> <minimizedAffinity>
-9.65988

$$$$
231


 34 37  0  0  0  0  0  0  0  0999 V2000
   17.7906  -56.6841   34.3613 C   0  0  0  0  0  0  0  0  0  0  0  0
   16.7775  -56.7017   33.2428 C   0  0  0  0  0  0  0  0  0  0  0  0
   17.6122  -56.8948   32.0792 N   0  0  0  0  0  0  0  0  0  0  0  0
   18.6908  -57.7265   32.4943 C   0  0  0  0  0  0  0  0  0  0  0  0
   19.5654  -58.2438   31.7328 O   0  0  0  0  0  0  0  0  0  0  0  0
   18.6138  -57.8836   33.9596 C   0  0  0  0  0  0  0  0  0  0  0  0
   19.1136  -58.7863   34.6494 O   0  0  0  0  0  0  0  0  0  0  0  0
   15.7249  -57.6937   33.3982 C   0  0  0  0  0  0  0  0  0  0  0  0
   15.9040  -59.0331   33.0239 C   0  0  0  0  0  0  0  0  0  0  0  0
   14.9026  -59.9693   33.1781 C   0  0  0  0  0  0  0  0  0  0  0  0
   13.6764  -59.6202   33.7132 C   0  0  0  0  0  0  0  0  0  0  0  0
   13.4791  -58.3086   34.0890 C   0  0  0  0  0  0  0  0  0  0  0  0
   14.4948  -57.3795   33.9269 C   0  0  0  0  0  0  0  0  0  0  0  0
   12.6510  -60.5428   33.8790 O   0  0  0  0  0  0  0  0  0  0  0  0
   15.0726  -61.2924   32.8103 O   0  0  0  0  0  0  0  0  0  0  0  0
   14.9526  -61.7545   31.4892 C   0  0  0  0  0  0  0  0  0  0  0  0
   17.2390  -56.8187   35.6968 C   0  0  0  0  0  0  0  0  0  0  0  0
   16.9499  -57.9379   36.1680 O   0  0  0  0  0  0  0  0  0  0  0  0
   16.2184  -51.8854   39.1961 Br  0  0  0  0  0  0  0  0  0  0  0  0
   16.5497  -53.3984   38.0997 C   0  0  0  0  0  0  0  0  0  0  0  0
   15.9959  -54.6062   38.4506 C   0  0  0  0  0  0  0  0  0  0  0  0
   16.2273  -55.7072   37.6678 C   0  0  0  0  0  0  0  0  0  0  0  0
   17.0147  -55.6393   36.5126 C   0  0  0  0  0  0  0  0  0  0  0  0
   17.5407  -54.3982   36.2162 C   0  0  0  0  0  0  0  0  0  0  0  0
   17.3296  -53.2664   36.9817 C   0  0  0  0  0  0  0  0  0  0  0  0
   17.4621  -56.3882   30.7379 C   0  0  0  0  0  0  0  0  0  0  0  0
   18.5907  -56.7631   29.8261 C   0  0  0  0  0  0  0  0  0  0  0  0
   19.4370  -55.7029   29.4350 N   0  0  0  0  0  0  0  0  0  0  0  0
   19.7598  -55.8787   28.0152 C   0  0  0  0  0  0  0  0  0  0  0  0
   20.6709  -57.0365   27.7740 C   0  0  0  0  0  0  0  0  0  0  0  0
   21.2857  -57.5303   28.8985 O   0  0  0  0  0  0  0  0  0  0  0  0
   21.7446  -56.5162   29.7024 C   0  0  0  0  0  0  0  0  0  0  0  0
   20.6616  -55.5677   30.1404 C   0  0  0  0  0  0  0  0  0  0  0  0
   18.9304  -54.7751   29.4787 H   0  0  0  0  0  0  0  0  0  0  0  0
 19 20  1  0  0  0
 20 21  2  0  0  0
 20 25  1  0  0  0
 21 22  1  0  0  0
 22 23  2  0  0  0
 23 24  1  0  0  0
 23 17  1  0  0  0
 24 25  2  0  0  0
 17 18  2  0  0  0
 17  1  1  0  0  0
  1  2  1  0  0  0
  1  6  1  0  0  0
  2  3  1  0  0  0
  2  8  1  0  0  0
  3  4  1  0  0  0
  3 26  1  0  0  0
  4  5  2  0  0  0
  4  6  1  0  0  0
  6  7  2  0  0  0
 26 27  1  0  0  0
 27 28  1  0  0  0
 28 29  1  0  0  0
 28 33  1  0  0  0
 29 30  1  0  0  0
 30 31  1  0  0  0
 31 32  1  0  0  0
 32 33  1  0  0  0
  8  9  2  0  0  0
  8 13  1  0  0  0
  9 10  1  0  0  0
 10 11  2  0  0  0
 10 15  1  0  0  0
 11 12  1  0  0  0
 11 14  1  0  0  0
 12 13  2  0  0  0
 15 16  1  0  0  0
 28 34  1  0  0  0
M  CHG 1  14  -1
M  CHG 1  28   1
M  END
> <minimizedAffinity>
-8.49995

$$$$
235


 25 28  0  0  0  0  0  0  0  0999 V2000
   15.4705  -57.5378   34.5424 C   0  0  0  0  0  0  0  0  0  0  0  0
   15.6638  -58.8606   33.9693 N   0  0  0  0  0  0  0  0  0  0  0  0
   16.5771  -59.8883   34.0838 N   0  0  0  0  0  0  0  0  0  0  0  0
   16.4340  -61.0349   33.5184 C   0  0  0  0  0  0  0  0  0  0  0  0
   15.2690  -61.2888   32.7025 C   0  0  0  0  0  0  0  0  0  0  0  0
   14.3683  -60.3509   32.5227 C   0  0  0  0  0  0  0  0  0  0  0  0
   14.4946  -59.0303   33.1104 C   0  0  0  0  0  0  0  0  0  0  0  0
   13.4002  -58.6070   34.0250 C   0  0  0  0  0  0  0  0  0  0  0  0
   14.0478  -57.6601   35.0420 C   0  0  0  0  0  0  0  0  0  0  0  0
   13.9460  -58.3804   36.3094 C   0  0  0  0  0  0  0  0  0  0  0  0
   14.5781  -58.0998   37.3652 O   0  0  0  0  0  0  0  0  0  0  0  0
   13.0256  -59.4437   36.1596 N   0  0  0  0  0  0  0  0  0  0  0  0
   12.7972  -59.7108   34.7819 C   0  0  0  0  0  0  0  0  0  0  0  0
   12.1958  -60.6991   34.2958 O   0  0  0  0  0  0  0  0  0  0  0  0
   16.4344  -57.2737   35.6195 C   0  0  0  0  0  0  0  0  0  0  0  0
   16.9670  -58.2936   36.1664 O   0  0  0  0  0  0  0  0  0  0  0  0
   18.1269  -51.6675   37.5748 Br  0  0  0  0  0  0  0  0  0  0  0  0
   17.6080  -53.3963   36.9532 C   0  0  0  0  0  0  0  0  0  0  0  0
   17.0291  -54.3156   37.8006 C   0  0  0  0  0  0  0  0  0  0  0  0
   16.6388  -55.5730   37.3992 C   0  0  0  0  0  0  0  0  0  0  0  0
   16.8197  -55.9652   36.0980 C   0  0  0  0  0  0  0  0  0  0  0  0
   17.4009  -55.0490   35.2360 C   0  0  0  0  0  0  0  0  0  0  0  0
   17.7879  -53.7941   35.6464 C   0  0  0  0  0  0  0  0  0  0  0  0
   12.3927  -60.1701   37.2355 C   0  0  0  0  0  0  0  0  0  0  0  0
   10.9428  -59.8356   37.4127 C   0  0  0  0  0  0  0  0  0  0  0  0
 17 18  1  0  0  0
 18 19  2  0  0  0
 18 23  1  0  0  0
 19 20  1  0  0  0
 20 21  2  0  0  0
 21 22  1  0  0  0
 21 15  1  0  0  0
 22 23  2  0  0  0
 15 16  2  0  0  0
 15  1  1  0  0  0
  1  2  1  0  0  0
  1  9  1  0  0  0
  2  3  1  0  0  0
  2  7  1  0  0  0
  3  4  2  0  0  0
  4  5  1  0  0  0
  5  6  2  0  0  0
  6  7  1  0  0  0
  7  8  1  0  0  0
  8  9  1  0  0  0
  8 13  1  0  0  0
  9 10  1  0  0  0
 10 11  2  0  0  0
 10 12  1  0  0  0
 12 13  1  0  0  0
 12 24  1  0  0  0
 13 14  2  0  0  0
 24 25  1  0  0  0
M  END
> <minimizedAffinity>
-7.88388

$$$$
243


 30 33  0  0  0  0  0  0  0  0999 V2000
   17.9160  -55.9306   31.5791 C   0  0  0  0  0  0  0  0  0  0  0  0
   19.2226  -55.2311   31.8640 C   0  0  0  0  0  0  0  0  0  0  0  0
   19.0734  -54.7323   33.2143 N   0  0  0  0  0  0  0  0  0  0  0  0
   17.6666  -54.6955   33.5775 C   0  0  0  0  0  0  0  0  0  0  0  0
   16.8799  -55.3005   32.4680 C   0  0  0  0  0  0  0  0  0  0  0  0
   17.5546  -55.4363   34.8545 C   0  0  0  0  0  0  0  0  0  0  0  0
   16.6729  -56.3150   34.9796 O   0  0  0  0  0  0  0  0  0  0  0  0
   18.4614  -55.1158   35.8937 N   0  0  0  0  0  0  0  0  0  0  0  0
   19.7056  -54.4120   35.6842 C   0  0  0  0  0  0  0  0  0  0  0  0
   19.9716  -54.2875   34.2225 C   0  0  0  0  0  0  0  0  0  0  0  0
   21.0673  -53.7540   33.8206 O   0  0  0  0  0  0  0  0  0  0  0  0
   18.1830  -55.4229   36.8629 H   0  0  0  0  0  0  0  0  0  0  0  0
   17.3644  -58.2769   31.0433 C   0  0  0  0  0  0  0  0  0  0  0  0
   16.7522  -57.9088   29.9843 O   0  0  0  0  0  0  0  0  0  0  0  0
   17.9678  -57.3375   31.8835 N   0  0  0  0  0  0  0  0  0  0  0  0
   18.4626  -57.6386   32.7395 H   0  0  0  0  0  0  0  0  0  0  0  0
   17.4279  -64.3775   32.1681 Br  0  0  0  0  0  0  0  0  0  0  0  0
   17.4177  -62.5149   31.7923 C   0  0  0  0  0  0  0  0  0  0  0  0
   17.7570  -61.9887   30.5625 C   0  0  0  0  0  0  0  0  0  0  0  0
   17.7392  -60.6299   30.3223 C   0  0  0  0  0  0  0  0  0  0  0  0
   17.3826  -59.7241   31.2996 C   0  0  0  0  0  0  0  0  0  0  0  0
   17.0446  -60.2487   32.5257 C   0  0  0  0  0  0  0  0  0  0  0  0
   17.0585  -61.6000   32.7758 C   0  0  0  0  0  0  0  0  0  0  0  0
   19.7038  -53.0750   36.3852 C   0  0  0  0  0  0  0  0  0  0  0  0
   18.7031  -53.0401   37.4889 C   0  0  0  0  0  0  0  0  0  0  0  0
   18.7982  -53.9296   38.5598 C   0  0  0  0  0  0  0  0  0  0  0  0
   17.8459  -53.8517   39.5518 C   0  0  0  0  0  0  0  0  0  0  0  0
   16.8085  -52.9358   39.5316 C   0  0  0  0  0  0  0  0  0  0  0  0
   16.7567  -52.0802   38.4561 C   0  0  0  0  0  0  0  0  0  0  0  0
   17.6798  -52.1113   37.4342 C   0  0  0  0  0  0  0  0  0  0  0  0
 17 18  1  0  0  0
 18 19  2  0  0  0
 18 23  1  0  0  0
 19 20  1  0  0  0
 20 21  2  0  0  0
 21 22  1  0  0  0
 21 13  1  0  0  0
 22 23  2  0  0  0
 13 14  2  0  0  0
 13 15  1  0  0  0
 15  1  1  0  0  0
  1  2  1  0  0  0
  1  5  1  0  0  0
  2  3  1  0  0  0
  3  4  1  0  0  0
  3 10  1  0  0  0
  4  5  1  0  0  0
  4  6  1  0  0  0
  6  7  2  0  0  0
  6  8  1  0  0  0
  8  9  1  0  0  0
  9 10  1  0  0  0
  9 24  1  0  0  0
 10 11  2  0  0  0
 24 25  1  0  0  0
 25 26  2  0  0  0
 25 30  1  0  0  0
 26 27  1  0  0  0
 27 28  2  0  0  0
 28 29  1  0  0  0
 29 30  2  0  0  0
 15 16  1  0  0  0
  8 12  1  0  0  0
M  END
> <minimizedAffinity>
-9.39934

$$$$
244


 25 28  0  0  0  0  0  0  0  0999 V2000
   17.3055  -57.9763   33.1307 C   0  0  0  0  0  0  0  0  0  0  0  0
   15.8826  -58.0197   32.6244 C   0  0  0  0  0  0  0  0  0  0  0  0
   15.1428  -58.5112   33.7733 N   0  0  0  0  0  0  0  0  0  0  0  0
   16.0312  -59.2964   34.6076 C   0  0  0  0  0  0  0  0  0  0  0  0
   17.4195  -59.1399   34.0849 C   0  0  0  0  0  0  0  0  0  0  0  0
   15.8694  -58.7883   35.9935 C   0  0  0  0  0  0  0  0  0  0  0  0
   16.8308  -58.5412   36.7585 O   0  0  0  0  0  0  0  0  0  0  0  0
   14.5702  -58.5605   36.5073 N   0  0  0  0  0  0  0  0  0  0  0  0
   13.4410  -58.2504   35.6551 C   0  0  0  0  0  0  0  0  0  0  0  0
   12.4364  -59.2445   36.1448 C   0  0  0  0  0  0  0  0  0  0  0  0
   12.6630  -59.1857   37.6602 C   0  0  0  0  0  0  0  0  0  0  0  0
   14.0546  -58.5734   37.8478 C   0  0  0  0  0  0  0  0  0  0  0  0
   13.7986  -58.3880   34.2208 C   0  0  0  0  0  0  0  0  0  0  0  0
   12.8767  -58.3978   33.3350 O   0  0  0  0  0  0  0  0  0  0  0  0
   18.6587  -55.9391   33.3883 C   0  0  0  0  0  0  0  0  0  0  0  0
   19.2981  -56.2486   32.3615 O   0  0  0  0  0  0  0  0  0  0  0  0
   17.6147  -56.7823   33.8466 N   0  0  0  0  0  0  0  0  0  0  0  0
   17.0519  -56.5603   34.7060 H   0  0  0  0  0  0  0  0  0  0  0  0
   20.2621  -50.6834   36.2285 Br  0  0  0  0  0  0  0  0  0  0  0  0
   19.7300  -52.3071   35.4018 C   0  0  0  0  0  0  0  0  0  0  0  0
   20.3156  -52.6942   34.2087 C   0  0  0  0  0  0  0  0  0  0  0  0
   19.9660  -53.8619   33.5671 C   0  0  0  0  0  0  0  0  0  0  0  0
   19.0089  -54.6954   34.1021 C   0  0  0  0  0  0  0  0  0  0  0  0
   18.4288  -54.3204   35.2762 C   0  0  0  0  0  0  0  0  0  0  0  0
   18.7691  -53.1432   35.9387 C   0  0  0  0  0  0  0  0  0  0  0  0
 19 20  1  0  0  0
 20 21  2  0  0  0
 20 25  1  0  0  0
 21 22  1  0  0  0
 22 23  2  0  0  0
 23 24  1  0  0  0
 23 15  1  0  0  0
 24 25  2  0  0  0
 15 16  2  0  0  0
 15 17  1  0  0  0
 17  1  1  0  0  0
  1  2  1  0  0  0
  1  5  1  0  0  0
  2  3  1  0  0  0
  3  4  1  0  0  0
  3 13  1  0  0  0
  4  5  1  0  0  0
  4  6  1  0  0  0
  6  7  2  0  0  0
  6  8  1  0  0  0
  8  9  1  0  0  0
  8 12  1  0  0  0
  9 10  1  0  0  0
  9 13  1  0  0  0
 10 11  1  0  0  0
 11 12  1  0  0  0
 13 14  2  0  0  0
 17 18  1  0  0  0
M  END
> <minimizedAffinity>
-8.11248

$$$$
247


 23 26  0  0  0  0  0  0  0  0999 V2000
   17.8375  -54.9535   36.3358 N   0  0  0  0  0  0  0  0  0  0  0  0
   18.5837  -54.3657   37.3953 C   0  0  0  0  0  0  0  0  0  0  0  0
   19.7436  -53.8664   37.1983 O   0  0  0  0  0  0  0  0  0  0  0  0
   17.8242  -54.4351   38.6708 C   0  0  0  0  0  0  0  0  0  0  0  0
   16.4853  -54.9780   38.2095 C   0  0  0  0  0  0  0  0  0  0  0  0
   15.6770  -53.7008   38.1281 C   0  0  0  0  0  0  0  0  0  0  0  0
   16.0230  -53.1613   39.5318 C   0  0  0  0  0  0  0  0  0  0  0  0
   17.5246  -53.0622   39.2035 C   0  0  0  0  0  0  0  0  0  0  0  0
   17.4072  -52.1682   37.9972 C   0  0  0  0  0  0  0  0  0  0  0  0
   16.3820  -52.6686   37.3184 C   0  0  0  0  0  0  0  0  0  0  0  0
   16.7024  -55.5903   36.8869 C   0  0  0  0  0  0  0  0  0  0  0  0
   16.0045  -56.4936   36.3777 O   0  0  0  0  0  0  0  0  0  0  0  0
   18.6092  -56.0964   34.2886 C   0  0  0  0  0  0  0  0  0  0  0  0
   18.8359  -57.1810   34.9170 O   0  0  0  0  0  0  0  0  0  0  0  0
   18.1087  -54.9507   34.9428 N   0  0  0  0  0  0  0  0  0  0  0  0
   17.9253  -54.0848   34.4046 H   0  0  0  0  0  0  0  0  0  0  0  0
   19.6834  -56.2002   28.2402 Br  0  0  0  0  0  0  0  0  0  0  0  0
   19.3599  -56.1404   30.1241 C   0  0  0  0  0  0  0  0  0  0  0  0
   18.5745  -57.0922   30.7062 C   0  0  0  0  0  0  0  0  0  0  0  0
   18.3328  -57.0663   32.0643 C   0  0  0  0  0  0  0  0  0  0  0  0
   18.8806  -56.0740   32.8714 C   0  0  0  0  0  0  0  0  0  0  0  0
   19.6701  -55.1229   32.2670 C   0  0  0  0  0  0  0  0  0  0  0  0
   19.9166  -55.1388   30.9186 C   0  0  0  0  0  0  0  0  0  0  0  0
 17 18  1  0  0  0
 18 19  2  0  0  0
 18 23  1  0  0  0
 19 20  1  0  0  0
 20 21  2  0  0  0
 21 22  1  0  0  0
 21 13  1  0  0  0
 22 23  2  0  0  0
 13 14  2  0  0  0
 13 15  1  0  0  0
 15  1  1  0  0  0
  1  2  1  0  0  0
  1 11  1  0  0  0
  2  3  2  0  0  0
  2  4  1  0  0  0
  4  5  1  0  0  0
  4  8  1  0  0  0
  5  6  1  0  0  0
  5 11  1  0  0  0
  6  7  1  0  0  0
  6 10  1  0  0  0
  7  8  1  0  0  0
  8  9  1  0  0  0
  9 10  2  0  0  0
 11 12  2  0  0  0
 15 16  1  0  0  0
M  END
> <minimizedAffinity>
-8.90990

$$$$
257


 31 34  0  0  0  0  0  0  0  0999 V2000
   17.3517  -57.0372   32.1732 C   0  0  0  0  0  0  0  0  0  0  0  0
   17.3165  -56.2995   33.2528 C   0  0  0  0  0  0  0  0  0  0  0  0
   16.2434  -56.2213   34.2950 C   0  0  0  0  0  0  0  0  0  0  0  0
   17.0469  -56.1016   35.5059 N   0  0  0  0  0  0  0  0  0  0  0  0
   18.1250  -55.2206   35.1324 C   0  0  0  0  0  0  0  0  0  0  0  0
   18.7579  -54.5084   35.9289 O   0  0  0  0  0  0  0  0  0  0  0  0
   18.3159  -55.3311   33.6780 C   0  0  0  0  0  0  0  0  0  0  0  0
   19.1519  -54.7246   32.9579 O   0  0  0  0  0  0  0  0  0  0  0  0
   16.2619  -57.8875   31.9012 O   0  0  0  0  0  0  0  0  0  0  0  0
   22.1375  -56.7609   28.2554 Br  0  0  0  0  0  0  0  0  0  0  0  0
   20.6581  -56.8260   29.4543 C   0  0  0  0  0  0  0  0  0  0  0  0
   19.4924  -56.1186   29.2527 C   0  0  0  0  0  0  0  0  0  0  0  0
   18.4323  -56.1775   30.1309 C   0  0  0  0  0  0  0  0  0  0  0  0
   18.4977  -56.9717   31.2829 C   0  0  0  0  0  0  0  0  0  0  0  0
   19.6700  -57.6725   31.4696 C   0  0  0  0  0  0  0  0  0  0  0  0
   20.7431  -57.6135   30.5827 C   0  0  0  0  0  0  0  0  0  0  0  0
   15.4016  -57.4429   34.2764 C   0  0  0  0  0  0  0  0  0  0  0  0
   15.9775  -58.6083   34.6123 N   0  0  0  0  0  0  0  0  0  0  0  0
   15.3184  -59.7690   34.6426 C   0  0  0  0  0  0  0  0  0  0  0  0
   13.9836  -59.7639   34.3110 C   0  0  0  0  0  0  0  0  0  0  0  0
   13.3527  -58.5934   33.9607 C   0  0  0  0  0  0  0  0  0  0  0  0
   14.0750  -57.4281   33.9458 C   0  0  0  0  0  0  0  0  0  0  0  0
   16.7983  -56.7178   36.7767 C   0  0  0  0  0  0  0  0  0  0  0  0
   15.5036  -56.2277   37.4061 C   0  0  0  0  0  0  0  0  0  0  0  0
   15.8570  -55.5764   38.7430 C   0  0  0  0  0  0  0  0  0  0  0  0
   16.5430  -54.3125   38.5569 N   0  0  0  0  0  0  0  0  0  0  0  0
   17.7836  -53.9791   38.9833 C   0  0  0  0  0  0  0  0  0  0  0  0
   18.0484  -52.7165   38.6076 N   0  0  0  0  0  0  0  0  0  0  0  0
   16.9980  -52.2162   37.9402 C   0  0  0  0  0  0  0  0  0  0  0  0
   16.0649  -53.2331   37.9196 C   0  0  0  0  0  0  0  0  0  0  0  0
   18.9409  -52.1794   38.7973 H   0  0  0  0  0  0  0  0  0  0  0  0
 10 11  1  0  0  0
 11 12  2  0  0  0
 11 16  1  0  0  0
 12 13  1  0  0  0
 13 14  2  0  0  0
 14 15  1  0  0  0
 14  1  1  0  0  0
 15 16  2  0  0  0
  1  2  2  0  0  0
  1  9  1  0  0  0
  2  3  1  0  0  0
  2  7  1  0  0  0
  3  4  1  0  0  0
  3 17  1  0  0  0
  4  5  1  0  0  0
  4 23  1  0  0  0
  5  6  2  0  0  0
  5  7  1  0  0  0
  7  8  2  0  0  0
 23 24  1  0  0  0
 24 25  1  0  0  0
 25 26  1  0  0  0
 26 27  1  0  0  0
 26 30  1  0  0  0
 27 28  2  0  0  0
 28 29  1  0  0  0
 29 30  2  0  0  0
 17 18  2  0  0  0
 17 22  1  0  0  0
 18 19  1  0  0  0
 19 20  2  0  0  0
 20 21  1  0  0  0
 21 22  2  0  0  0
 28 31  1  0  0  0
M  CHG 1   9  -1
M  END
> <minimizedAffinity>
-8.05801

$$$$
263


 34 37  0  0  0  0  0  0  0  0999 V2000
   18.3057  -56.6247   31.7145 C   0  0  0  0  0  0  0  0  0  0  0  0
   18.4773  -55.6287   32.5430 C   0  0  0  0  0  0  0  0  0  0  0  0
   17.6863  -55.3364   33.7916 C   0  0  0  0  0  0  0  0  0  0  0  0
   18.6433  -54.7305   34.6519 N   0  0  0  0  0  0  0  0  0  0  0  0
   19.6047  -54.0523   33.8076 C   0  0  0  0  0  0  0  0  0  0  0  0
   20.3958  -53.1360   34.1366 O   0  0  0  0  0  0  0  0  0  0  0  0
   19.5071  -54.6177   32.4663 C   0  0  0  0  0  0  0  0  0  0  0  0
   20.2114  -54.2613   31.4622 O   0  0  0  0  0  0  0  0  0  0  0  0
   17.2782  -57.5533   31.9936 O   0  0  0  0  0  0  0  0  0  0  0  0
   22.0245  -57.6537   26.9715 Br  0  0  0  0  0  0  0  0  0  0  0  0
   20.8230  -57.2792   28.4259 C   0  0  0  0  0  0  0  0  0  0  0  0
   21.1172  -57.8238   29.6553 C   0  0  0  0  0  0  0  0  0  0  0  0
   20.2790  -57.5721   30.7044 C   0  0  0  0  0  0  0  0  0  0  0  0
   19.1452  -56.7783   30.5380 C   0  0  0  0  0  0  0  0  0  0  0  0
   18.8653  -56.2477   29.3219 C   0  0  0  0  0  0  0  0  0  0  0  0
   19.7030  -56.4937   28.2543 C   0  0  0  0  0  0  0  0  0  0  0  0
   16.9884  -56.5226   34.2707 C   0  0  0  0  0  0  0  0  0  0  0  0
   15.6539  -56.7868   34.1174 C   0  0  0  0  0  0  0  0  0  0  0  0
   15.0736  -57.9346   34.5907 C   0  0  0  0  0  0  0  0  0  0  0  0
   15.8432  -58.8587   35.2437 C   0  0  0  0  0  0  0  0  0  0  0  0
   17.2056  -58.6465   35.4308 C   0  0  0  0  0  0  0  0  0  0  0  0
   17.7540  -57.4878   34.9445 C   0  0  0  0  0  0  0  0  0  0  0  0
   13.6934  -58.1417   34.3967 N   0  0  0  0  0  0  0  0  0  0  0  0
   13.0912  -57.7369   33.3694 O   0  0  0  0  0  0  0  0  0  0  0  0
   12.9874  -58.8108   35.3700 O   0  0  0  0  0  0  0  0  0  0  0  0
   18.7777  -54.6421   36.0941 C   0  0  0  0  0  0  0  0  0  0  0  0
   18.0627  -53.4989   36.7387 C   0  0  0  0  0  0  0  0  0  0  0  0
   17.2377  -53.9101   37.8631 N   0  0  0  0  0  0  0  0  0  0  0  0
   16.4735  -55.1172   37.5322 C   0  0  0  0  0  0  0  0  0  0  0  0
   15.7854  -55.5198   38.8437 C   0  0  0  0  0  0  0  0  0  0  0  0
   14.9465  -54.5400   39.3152 O   0  0  0  0  0  0  0  0  0  0  0  0
   15.5381  -53.2917   39.4297 C   0  0  0  0  0  0  0  0  0  0  0  0
   16.2665  -52.8906   38.1707 C   0  0  0  0  0  0  0  0  0  0  0  0
   17.7627  -54.1384   38.7111 H   0  0  0  0  0  0  0  0  0  0  0  0
 10 11  1  0  0  0
 11 12  2  0  0  0
 11 16  1  0  0  0
 12 13  1  0  0  0
 13 14  2  0  0  0
 14 15  1  0  0  0
 14  1  1  0  0  0
 15 16  2  0  0  0
  1  2  2  0  0  0
  1  9  1  0  0  0
  2  3  1  0  0  0
  2  7  1  0  0  0
  3  4  1  0  0  0
  3 17  1  0  0  0
  4  5  1  0  0  0
  4 26  1  0  0  0
  5  6  2  0  0  0
  5  7  1  0  0  0
  7  8  2  0  0  0
 26 27  1  0  0  0
 27 28  1  0  0  0
 28 29  1  0  0  0
 28 33  1  0  0  0
 29 30  1  0  0  0
 30 31  1  0  0  0
 31 32  1  0  0  0
 32 33  1  0  0  0
 17 18  2  0  0  0
 17 22  1  0  0  0
 18 19  1  0  0  0
 19 20  2  0  0  0
 19 23  1  0  0  0
 20 21  1  0  0  0
 21 22  2  0  0  0
 23 24  2  0  0  0
 23 25  1  0  0  0
 28 34  1  0  0  0
M  CHG 1   9  -1
M  CHG 1  25  -1
M  CHG 1  28   1
M  END
> <minimizedAffinity>
-9.18464

$$$$
265


 35 38  0  0  0  0  0  0  0  0999 V2000
   18.5018  -56.9608   33.7499 C   0  0  0  0  0  0  0  0  0  0  0  0
   17.2251  -57.1086   34.0273 C   0  0  0  0  0  0  0  0  0  0  0  0
   16.6254  -57.1989   35.4073 C   0  0  0  0  0  0  0  0  0  0  0  0
   15.2365  -57.4369   35.2187 N   0  0  0  0  0  0  0  0  0  0  0  0
   14.8814  -57.3681   33.8219 C   0  0  0  0  0  0  0  0  0  0  0  0
   13.7607  -57.4590   33.3021 O   0  0  0  0  0  0  0  0  0  0  0  0
   16.1416  -57.1585   33.0732 C   0  0  0  0  0  0  0  0  0  0  0  0
   16.2254  -57.0433   31.8079 O   0  0  0  0  0  0  0  0  0  0  0  0
   19.3647  -56.8758   34.8673 O   0  0  0  0  0  0  0  0  0  0  0  0
   20.8789  -56.4055   28.0446 Br  0  0  0  0  0  0  0  0  0  0  0  0
   20.1382  -56.6188   29.7954 C   0  0  0  0  0  0  0  0  0  0  0  0
   19.8560  -55.5060   30.5583 C   0  0  0  0  0  0  0  0  0  0  0  0
   19.3196  -55.6400   31.8209 C   0  0  0  0  0  0  0  0  0  0  0  0
   19.0332  -56.8844   32.3972 C   0  0  0  0  0  0  0  0  0  0  0  0
   19.3220  -57.9826   31.6220 C   0  0  0  0  0  0  0  0  0  0  0  0
   19.8668  -57.8520   30.3381 C   0  0  0  0  0  0  0  0  0  0  0  0
   16.8759  -55.8542   36.0116 C   0  0  0  0  0  0  0  0  0  0  0  0
   16.9567  -55.7628   37.3653 C   0  0  0  0  0  0  0  0  0  0  0  0
   17.1812  -54.5463   37.9763 C   0  0  0  0  0  0  0  0  0  0  0  0
   17.3252  -53.4171   37.2166 C   0  0  0  0  0  0  0  0  0  0  0  0
   17.2445  -53.5119   35.8515 C   0  0  0  0  0  0  0  0  0  0  0  0
   17.0193  -54.7305   35.2322 C   0  0  0  0  0  0  0  0  0  0  0  0
   17.5605  -52.1191   37.8535 C   0  0  0  0  0  0  0  0  0  0  0  0
   16.9021  -51.8044   38.8775 O   0  0  0  0  0  0  0  0  0  0  0  0
   18.4723  -51.2121   37.3874 O   0  0  0  0  0  0  0  0  0  0  0  0
   19.6232  -51.5827   36.6617 C   0  0  0  0  0  0  0  0  0  0  0  0
   14.2403  -57.7078   36.2201 C   0  0  0  0  0  0  0  0  0  0  0  0
   14.6270  -58.7147   37.2480 C   0  0  0  0  0  0  0  0  0  0  0  0
   13.5879  -59.6163   37.6470 N   0  0  0  0  0  0  0  0  0  0  0  0
   12.6251  -59.9049   36.6042 C   0  0  0  0  0  0  0  0  0  0  0  0
   11.7246  -61.0077   37.1216 C   0  0  0  0  0  0  0  0  0  0  0  0
   10.9777  -60.4296   38.1758 O   0  0  0  0  0  0  0  0  0  0  0  0
   11.8933  -60.2027   39.2071 C   0  0  0  0  0  0  0  0  0  0  0  0
   12.8042  -59.0666   38.7709 C   0  0  0  0  0  0  0  0  0  0  0  0
   13.9748  -60.5112   38.0491 H   0  0  0  0  0  0  0  0  0  0  0  0
 10 11  1  0  0  0
 11 12  2  0  0  0
 11 16  1  0  0  0
 12 13  1  0  0  0
 13 14  2  0  0  0
 14 15  1  0  0  0
 14  1  1  0  0  0
 15 16  2  0  0  0
  1  2  2  0  0  0
  1  9  1  0  0  0
  2  3  1  0  0  0
  2  7  1  0  0  0
  3  4  1  0  0  0
  3 17  1  0  0  0
  4  5  1  0  0  0
  4 27  1  0  0  0
  5  6  2  0  0  0
  5  7  1  0  0  0
  7  8  2  0  0  0
 27 28  1  0  0  0
 28 29  1  0  0  0
 29 30  1  0  0  0
 29 34  1  0  0  0
 30 31  1  0  0  0
 31 32  1  0  0  0
 32 33  1  0  0  0
 33 34  1  0  0  0
 17 18  2  0  0  0
 17 22  1  0  0  0
 18 19  1  0  0  0
 19 20  2  0  0  0
 20 21  1  0  0  0
 20 23  1  0  0  0
 21 22  2  0  0  0
 23 24  2  0  0  0
 23 25  1  0  0  0
 25 26  1  0  0  0
 29 35  1  0  0  0
M  CHG 1   9  -1
M  CHG 1  29   1
M  END
> <minimizedAffinity>
-9.43289

$$$$
274


 31 34  0  0  0  0  0  0  0  0999 V2000
   17.4298  -56.2659   33.1968 C   0  0  0  0  0  0  0  0  0  0  0  0
   17.2313  -56.6628   34.4389 C   0  0  0  0  0  0  0  0  0  0  0  0
   16.5832  -55.9536   35.5791 C   0  0  0  0  0  0  0  0  0  0  0  0
   15.9368  -57.0487   36.3214 N   0  0  0  0  0  0  0  0  0  0  0  0
   16.8186  -58.1464   36.1878 C   0  0  0  0  0  0  0  0  0  0  0  0
   16.8605  -59.1169   36.9549 O   0  0  0  0  0  0  0  0  0  0  0  0
   17.6545  -57.9386   35.0108 C   0  0  0  0  0  0  0  0  0  0  0  0
   18.5679  -58.6496   34.5217 O   0  0  0  0  0  0  0  0  0  0  0  0
   16.9800  -54.9768   32.8492 O   0  0  0  0  0  0  0  0  0  0  0  0
   20.1553  -59.5719   28.7329 Br  0  0  0  0  0  0  0  0  0  0  0  0
   19.3152  -58.5521   30.1228 C   0  0  0  0  0  0  0  0  0  0  0  0
   20.0227  -57.6272   30.8560 C   0  0  0  0  0  0  0  0  0  0  0  0
   19.4086  -56.8942   31.8601 C   0  0  0  0  0  0  0  0  0  0  0  0
   18.0756  -57.0579   32.1643 C   0  0  0  0  0  0  0  0  0  0  0  0
   17.3701  -57.9823   31.4289 C   0  0  0  0  0  0  0  0  0  0  0  0
   17.9832  -58.7248   30.4154 C   0  0  0  0  0  0  0  0  0  0  0  0
   17.5068  -55.1712   36.4034 C   0  0  0  0  0  0  0  0  0  0  0  0
   17.1824  -54.8342   37.7231 C   0  0  0  0  0  0  0  0  0  0  0  0
   17.9960  -54.1116   38.5404 C   0  0  0  0  0  0  0  0  0  0  0  0
   19.2197  -53.6673   38.0748 C   0  0  0  0  0  0  0  0  0  0  0  0
   19.5640  -53.9800   36.7909 C   0  0  0  0  0  0  0  0  0  0  0  0
   18.7273  -54.7226   35.9525 C   0  0  0  0  0  0  0  0  0  0  0  0
   14.6955  -56.8929   36.9876 C   0  0  0  0  0  0  0  0  0  0  0  0
   13.5687  -57.7599   36.6015 C   0  0  0  0  0  0  0  0  0  0  0  0
   13.6752  -59.1407   36.9603 N   0  0  0  0  0  0  0  0  0  0  0  0
   13.1233  -60.0683   36.0364 C   0  0  0  0  0  0  0  0  0  0  0  0
   11.8324  -60.6162   36.6046 C   0  0  0  0  0  0  0  0  0  0  0  0
   11.0788  -59.6365   37.2452 O   0  0  0  0  0  0  0  0  0  0  0  0
   11.6844  -59.1717   38.3976 C   0  0  0  0  0  0  0  0  0  0  0  0
   13.1714  -59.4239   38.2864 C   0  0  0  0  0  0  0  0  0  0  0  0
   14.7235  -59.3307   37.0085 H   0  0  0  0  0  0  0  0  0  0  0  0
 10 11  1  0  0  0
 11 12  2  0  0  0
 11 16  1  0  0  0
 12 13  1  0  0  0
 13 14  2  0  0  0
 14 15  1  0  0  0
 14  1  1  0  0  0
 15 16  2  0  0  0
  1  2  2  0  0  0
  1  9  1  0  0  0
  2  3  1  0  0  0
  2  7  1  0  0  0
  3  4  1  0  0  0
  3 17  1  0  0  0
  4  5  1  0  0  0
  4 23  1  0  0  0
  5  6  2  0  0  0
  5  7  1  0  0  0
  7  8  2  0  0  0
 23 24  1  0  0  0
 24 25  1  0  0  0
 25 26  1  0  0  0
 25 30  1  0  0  0
 26 27  1  0  0  0
 27 28  1  0  0  0
 28 29  1  0  0  0
 29 30  1  0  0  0
 17 18  2  0  0  0
 17 22  1  0  0  0
 18 19  1  0  0  0
 19 20  2  0  0  0
 20 21  1  0  0  0
 21 22  2  0  0  0
 25 31  1  0  0  0
M  CHG 1   9  -1
M  CHG 1  25   1
M  END
> <minimizedAffinity>
-8.49174

$$$$
278


 30 33  0  0  0  0  0  0  0  0999 V2000
   17.1978  -55.9379   33.9961 N   0  0  0  0  0  0  0  0  0  0  0  0
   18.2711  -55.2416   33.5520 C   0  0  0  0  0  0  0  0  0  0  0  0
   18.9268  -54.7799   34.6820 C   0  0  0  0  0  0  0  0  0  0  0  0
   20.0707  -54.0205   34.5218 C   0  0  0  0  0  0  0  0  0  0  0  0
   20.5803  -53.7090   33.2552 C   0  0  0  0  0  0  0  0  0  0  0  0
   19.8882  -54.1938   32.1538 C   0  0  0  0  0  0  0  0  0  0  0  0
   18.7497  -54.9500   32.2840 C   0  0  0  0  0  0  0  0  0  0  0  0
   18.2652  -55.1907   35.8050 N   0  0  0  0  0  0  0  0  0  0  0  0
   17.2024  -55.9015   35.3421 C   0  0  0  0  0  0  0  0  0  0  0  0
   16.3311  -56.4550   36.1173 N   0  0  0  0  0  0  0  0  0  0  0  0
   15.5261  -56.9967   35.6801 H   0  0  0  0  0  0  0  0  0  0  0  0
   16.3195  -56.4293   37.1392 H   0  0  0  0  0  0  0  0  0  0  0  0
   16.2773  -56.5715   33.0976 C   0  0  0  0  0  0  0  0  0  0  0  0
   16.4554  -58.0571   33.0110 C   0  0  0  0  0  0  0  0  0  0  0  0
   16.6179  -58.5350   31.7252 O   0  0  0  0  0  0  0  0  0  0  0  0
   15.8707  -58.3265   31.1313 H   0  0  0  0  0  0  0  0  0  0  0  0
   11.5925  -60.9515   35.4283 Br  0  0  0  0  0  0  0  0  0  0  0  0
   13.1050  -60.0515   34.6746 C   0  0  0  0  0  0  0  0  0  0  0  0
   14.2411  -60.7723   34.3841 C   0  0  0  0  0  0  0  0  0  0  0  0
   15.3194  -60.1223   33.8453 C   0  0  0  0  0  0  0  0  0  0  0  0
   15.2628  -58.7727   33.6015 C   0  0  0  0  0  0  0  0  0  0  0  0
   14.1119  -58.0860   33.9052 C   0  0  0  0  0  0  0  0  0  0  0  0
   12.9952  -58.6990   34.4515 C   0  0  0  0  0  0  0  0  0  0  0  0
   18.6905  -54.8952   37.1403 C   0  0  0  0  0  0  0  0  0  0  0  0
   17.8786  -53.8192   37.8063 C   0  0  0  0  0  0  0  0  0  0  0  0
   16.9329  -54.1804   38.7506 C   0  0  0  0  0  0  0  0  0  0  0  0
   16.1496  -53.2510   39.4069 C   0  0  0  0  0  0  0  0  0  0  0  0
   16.3385  -51.9284   39.0913 C   0  0  0  0  0  0  0  0  0  0  0  0
   17.2667  -51.5435   38.1602 C   0  0  0  0  0  0  0  0  0  0  0  0
   18.0276  -52.4896   37.5274 C   0  0  0  0  0  0  0  0  0  0  0  0
 17 18  1  0  0  0
 18 19  2  0  0  0
 18 23  1  0  0  0
 19 20  1  0  0  0
 20 21  2  0  0  0
 21 22  1  0  0  0
 21 14  1  0  0  0
 22 23  2  0  0  0
 14 15  1  0  0  0
 14 13  1  0  0  0
 13  1  1  0  0  0
  1  2  1  0  0  0
  1  9  1  0  0  0
  2  3  1  0  0  0
  2  7  2  0  0  0
  3  4  2  0  0  0
  3  8  1  0  0  0
  4  5  1  0  0  0
  5  6  2  0  0  0
  6  7  1  0  0  0
  8  9  1  0  0  0
  8 24  1  0  0  0
  9 10  2  0  0  0
 24 25  1  0  0  0
 25 26  2  0  0  0
 25 30  1  0  0  0
 26 27  1  0  0  0
 27 28  2  0  0  0
 28 29  1  0  0  0
 29 30  2  0  0  0
 15 16  1  0  0  0
 10 11  1  0  0  0
 10 12  1  0  0  0
M  END
> <minimizedAffinity>
-9.61793

$$$$
289


 31 34  0  0  0  0  0  0  0  0999 V2000
   16.5309  -57.9581   35.6532 C   0  0  0  0  0  0  0  0  0  0  0  0
   15.2920  -58.2738   36.0655 N   0  0  0  0  0  0  0  0  0  0  0  0
   14.9379  -57.4527   37.0820 C   0  0  0  0  0  0  0  0  0  0  0  0
   15.9798  -56.5862   37.3302 C   0  0  0  0  0  0  0  0  0  0  0  0
   16.9299  -56.9136   36.4544 N   0  0  0  0  0  0  0  0  0  0  0  0
   15.8594  -55.6664   38.3054 N   0  0  0  0  0  0  0  0  0  0  0  0
   14.7495  -55.5650   39.0490 C   0  0  0  0  0  0  0  0  0  0  0  0
   14.6721  -54.6807   39.9610 O   0  0  0  0  0  0  0  0  0  0  0  0
   13.7214  -56.4005   38.8225 N   0  0  0  0  0  0  0  0  0  0  0  0
   13.8085  -57.3284   37.8596 C   0  0  0  0  0  0  0  0  0  0  0  0
   12.8461  -58.1071   37.6497 O   0  0  0  0  0  0  0  0  0  0  0  0
   16.9872  -54.7574   38.5374 C   0  0  0  0  0  0  0  0  0  0  0  0
   12.8395  -56.3261   39.4081 H   0  0  0  0  0  0  0  0  0  0  0  0
   17.7698  -57.4346   32.4214 N   0  0  0  0  0  0  0  0  0  0  0  0
   18.9411  -57.6627   33.1566 C   0  0  0  0  0  0  0  0  0  0  0  0
   18.6768  -58.4005   34.4652 C   0  0  0  0  0  0  0  0  0  0  0  0
   17.2672  -58.5254   34.5984 N   0  0  0  0  0  0  0  0  0  0  0  0
   16.5875  -59.2663   33.5633 C   0  0  0  0  0  0  0  0  0  0  0  0
   16.7830  -58.4266   32.2954 C   0  0  0  0  0  0  0  0  0  0  0  0
   17.3707  -56.0738   32.2786 C   0  0  0  0  0  0  0  0  0  0  0  0
   19.7757  -52.2336   36.4788 Br  0  0  0  0  0  0  0  0  0  0  0  0
   19.0426  -53.4232   35.1594 C   0  0  0  0  0  0  0  0  0  0  0  0
   17.7252  -53.8274   35.2311 C   0  0  0  0  0  0  0  0  0  0  0  0
   17.1942  -54.6869   34.2825 C   0  0  0  0  0  0  0  0  0  0  0  0
   17.9776  -55.1498   33.2553 C   0  0  0  0  0  0  0  0  0  0  0  0
   19.2959  -54.7546   33.1679 C   0  0  0  0  0  0  0  0  0  0  0  0
   19.8103  -53.8980   34.1202 C   0  0  0  0  0  0  0  0  0  0  0  0
   14.4332  -59.3271   35.5948 C   0  0  0  0  0  0  0  0  0  0  0  0
   13.4557  -58.8412   34.5486 C   0  0  0  0  0  0  0  0  0  0  0  0
   12.6609  -59.8369   34.0179 O   0  0  0  0  0  0  0  0  0  0  0  0
   11.8695  -60.3095   35.0905 C   0  0  0  0  0  0  0  0  0  0  0  0
 21 22  1  0  0  0
 22 23  2  0  0  0
 22 27  1  0  0  0
 23 24  1  0  0  0
 24 25  2  0  0  0
 25 26  1  0  0  0
 25 20  1  0  0  0
 26 27  2  0  0  0
 20 14  1  0  0  0
 14 15  1  0  0  0
 14 19  1  0  0  0
 15 16  1  0  0  0
 16 17  1  0  0  0
 17 18  1  0  0  0
 17  1  1  0  0  0
 18 19  1  0  0  0
  1  2  1  0  0  0
  1  5  2  0  0  0
  2  3  1  0  0  0
  2 28  1  0  0  0
  3  4  2  0  0  0
  3 10  1  0  0  0
  4  5  1  0  0  0
  4  6  1  0  0  0
  6  7  1  0  0  0
  6 12  1  0  0  0
  7  8  2  0  0  0
  7  9  1  0  0  0
  9 10  1  0  0  0
 10 11  2  0  0  0
 28 29  1  0  0  0
 29 30  1  0  0  0
 30 31  1  0  0  0
  9 13  1  0  0  0
M  END
> <minimizedAffinity>
-9.28682

$$$$
293


 27 30  0  0  0  0  0  0  0  0999 V2000
   16.7106  -54.6207   38.7621 C   0  0  0  0  0  0  0  0  0  0  0  0
   16.1977  -55.5984   38.0059 C   0  0  0  0  0  0  0  0  0  0  0  0
   16.4125  -55.7014   36.6412 O   0  0  0  0  0  0  0  0  0  0  0  0
   15.7658  -56.8088   36.1022 C   0  0  0  0  0  0  0  0  0  0  0  0
   15.1140  -57.4491   37.1124 C   0  0  0  0  0  0  0  0  0  0  0  0
   14.3856  -58.5908   36.8498 C   0  0  0  0  0  0  0  0  0  0  0  0
   14.3513  -59.0364   35.5543 C   0  0  0  0  0  0  0  0  0  0  0  0
   15.0211  -58.3798   34.5135 C   0  0  0  0  0  0  0  0  0  0  0  0
   15.7498  -57.2420   34.7544 C   0  0  0  0  0  0  0  0  0  0  0  0
   14.9352  -58.8996   33.2212 O   0  0  0  0  0  0  0  0  0  0  0  0
   15.3581  -56.7109   38.3594 C   0  0  0  0  0  0  0  0  0  0  0  0
   14.9398  -56.9672   39.5173 O   0  0  0  0  0  0  0  0  0  0  0  0
   20.3415  -50.3397   36.1170 Br  0  0  0  0  0  0  0  0  0  0  0  0
   19.2081  -51.6565   36.9401 C   0  0  0  0  0  0  0  0  0  0  0  0
   19.5869  -52.9778   37.0056 C   0  0  0  0  0  0  0  0  0  0  0  0
   18.7715  -53.9255   37.5946 C   0  0  0  0  0  0  0  0  0  0  0  0
   17.5442  -53.5944   38.1441 C   0  0  0  0  0  0  0  0  0  0  0  0
   17.1698  -52.2712   38.0773 C   0  0  0  0  0  0  0  0  0  0  0  0
   17.9892  -51.3080   37.4826 C   0  0  0  0  0  0  0  0  0  0  0  0
   16.4988  -56.4481   33.7728 C   0  0  0  0  0  0  0  0  0  0  0  0
   17.8500  -56.1438   34.0443 N   0  0  0  0  0  0  0  0  0  0  0  0
   18.7550  -56.7357   33.0811 C   0  0  0  0  0  0  0  0  0  0  0  0
   18.9019  -55.8088   31.8885 C   0  0  0  0  0  0  0  0  0  0  0  0
   19.7704  -54.7886   32.2446 O   0  0  0  0  0  0  0  0  0  0  0  0
   19.5572  -54.4961   33.5961 C   0  0  0  0  0  0  0  0  0  0  0  0
   18.0909  -54.6936   33.9459 C   0  0  0  0  0  0  0  0  0  0  0  0
   18.1190  -56.3826   35.0204 H   0  0  0  0  0  0  0  0  0  0  0  0
 13 14  1  0  0  0
 14 15  2  0  0  0
 14 19  1  0  0  0
 15 16  1  0  0  0
 16 17  2  0  0  0
 17 18  1  0  0  0
 17  1  1  0  0  0
 18 19  2  0  0  0
  1  2  2  0  0  0
  2  3  1  0  0  0
  2 11  1  0  0  0
  3  4  1  0  0  0
  4  5  2  0  0  0
  4  9  1  0  0  0
  5  6  1  0  0  0
  5 11  1  0  0  0
  6  7  2  0  0  0
  7  8  1  0  0  0
  8  9  2  0  0  0
  8 10  1  0  0  0
  9 20  1  0  0  0
 20 21  1  0  0  0
 21 22  1  0  0  0
 21 26  1  0  0  0
 22 23  1  0  0  0
 23 24  1  0  0  0
 24 25  1  0  0  0
 25 26  1  0  0  0
 11 12  2  0  0  0
 21 27  1  0  0  0
M  CHG 1  10  -1
M  CHG 1  21   1
M  END
> <minimizedAffinity>
-10.17834

$$$$
294


 35 38  0  0  0  0  0  0  0  0999 V2000
   13.0351  -58.5673   37.8198 N   0  0  0  0  0  0  0  0  0  0  0  0
   13.7858  -58.6727   36.6813 N   0  0  0  0  0  0  0  0  0  0  0  0
   13.1298  -59.4416   35.8014 C   0  0  0  0  0  0  0  0  0  0  0  0
   11.9969  -59.7938   36.4068 N   0  0  0  0  0  0  0  0  0  0  0  0
   11.9287  -59.2479   37.6790 C   0  0  0  0  0  0  0  0  0  0  0  0
   13.5581  -59.8194   34.4599 C   0  0  0  0  0  0  0  0  0  0  0  0
   13.8007  -59.0034   33.4297 N   0  0  0  0  0  0  0  0  0  0  0  0
   14.1679  -59.7228   32.3835 O   0  0  0  0  0  0  0  0  0  0  0  0
   14.1775  -60.9900   32.6855 N   0  0  0  0  0  0  0  0  0  0  0  0
   13.7956  -61.0884   33.9956 C   0  0  0  0  0  0  0  0  0  0  0  0
   13.6843  -62.3183   34.6934 N   0  0  0  0  0  0  0  0  0  0  0  0
   14.2370  -63.1593   34.3659 H   0  0  0  0  0  0  0  0  0  0  0  0
   13.0820  -62.4580   35.5270 H   0  0  0  0  0  0  0  0  0  0  0  0
   10.8004  -59.4734   38.5588 C   0  0  0  0  0  0  0  0  0  0  0  0
    9.4941  -59.1973   38.1644 N   0  0  0  0  0  0  0  0  0  0  0  0
    8.6888  -59.4959   39.1068 O   0  0  0  0  0  0  0  0  0  0  0  0
    9.3347  -59.9516   40.1068 N   0  0  0  0  0  0  0  0  0  0  0  0
   10.6671  -59.9518   39.7983 C   0  0  0  0  0  0  0  0  0  0  0  0
   11.6106  -60.4181   40.7216 N   0  0  0  0  0  0  0  0  0  0  0  0
   12.0150  -59.7521   41.4199 H   0  0  0  0  0  0  0  0  0  0  0  0
   11.9436  -61.4032   40.7760 H   0  0  0  0  0  0  0  0  0  0  0  0
   13.5196  -57.7653   38.9261 C   0  0  0  0  0  0  0  0  0  0  0  0
   15.6500  -56.8405   37.9336 N   0  0  0  0  0  0  0  0  0  0  0  0
   14.3479  -56.6278   38.4475 C   0  0  0  0  0  0  0  0  0  0  0  0
   13.8932  -55.4629   38.4963 O   0  0  0  0  0  0  0  0  0  0  0  0
   16.0642  -57.8204   37.8785 H   0  0  0  0  0  0  0  0  0  0  0  0
   17.0253  -54.9462   38.2417 C   0  0  0  0  0  0  0  0  0  0  0  0
   16.3912  -55.7642   37.4972 N   0  0  0  0  0  0  0  0  0  0  0  0
   20.2700  -50.1514   36.0626 Br  0  0  0  0  0  0  0  0  0  0  0  0
   19.2621  -51.6237   36.7409 C   0  0  0  0  0  0  0  0  0  0  0  0
   19.6025  -52.9295   36.4205 C   0  0  0  0  0  0  0  0  0  0  0  0
   18.8858  -54.0114   36.9001 C   0  0  0  0  0  0  0  0  0  0  0  0
   17.7962  -53.8213   37.7237 C   0  0  0  0  0  0  0  0  0  0  0  0
   17.4661  -52.5201   38.0366 C   0  0  0  0  0  0  0  0  0  0  0  0
   18.1729  -51.4329   37.5650 C   0  0  0  0  0  0  0  0  0  0  0  0
 29 30  1  0  0  0
 30 31  2  0  0  0
 30 35  1  0  0  0
 31 32  1  0  0  0
 32 33  2  0  0  0
 33 34  1  0  0  0
 33 27  1  0  0  0
 34 35  2  0  0  0
 27 28  2  0  0  0
 28 23  1  0  0  0
 23 24  1  0  0  0
 24 25  2  0  0  0
 24 22  1  0  0  0
 22  1  1  0  0  0
  1  2  1  0  0  0
  1  5  1  0  0  0
  2  3  2  0  0  0
  3  4  1  0  0  0
  3  6  1  0  0  0
  4  5  2  0  0  0
  5 14  1  0  0  0
 14 15  2  0  0  0
 14 18  1  0  0  0
 15 16  1  0  0  0
 16 17  1  0  0  0
 17 18  2  0  0  0
 18 19  1  0  0  0
  6  7  2  0  0  0
  6 10  1  0  0  0
  7  8  1  0  0  0
  8  9  1  0  0  0
  9 10  2  0  0  0
 10 11  1  0  0  0
 23 26  1  0  0  0
 19 20  1  0  0  0
 19 21  1  0  0  0
 11 12  1  0  0  0
 11 13  1  0  0  0
M  END
> <minimizedAffinity>
-9.65484

$$$$
302


 29 33  0  0  0  0  0  0  0  0999 V2000
   15.4775  -56.5839   37.3715 C   0  0  0  0  0  0  0  0  0  0  0  0
   16.4998  -56.6812   36.4966 N   0  0  0  0  0  0  0  0  0  0  0  0
   17.2020  -55.5213   36.4707 C   0  0  0  0  0  0  0  0  0  0  0  0
   16.6325  -54.6648   37.3361 N   0  0  0  0  0  0  0  0  0  0  0  0
   15.5785  -55.3087   37.8883 C   0  0  0  0  0  0  0  0  0  0  0  0
   17.3625  -53.5346   37.2747 C   0  0  0  0  0  0  0  0  0  0  0  0
   18.3919  -53.6824   36.3700 C   0  0  0  0  0  0  0  0  0  0  0  0
   19.3009  -52.6632   36.1103 C   0  0  0  0  0  0  0  0  0  0  0  0
   19.1824  -51.4623   36.7713 C   0  0  0  0  0  0  0  0  0  0  0  0
   18.1504  -51.3237   37.6740 C   0  0  0  0  0  0  0  0  0  0  0  0
   17.2353  -52.3168   37.9504 C   0  0  0  0  0  0  0  0  0  0  0  0
   18.2617  -54.9443   35.8815 N   0  0  0  0  0  0  0  0  0  0  0  0
   16.7344  -57.5109   35.9150 H   0  0  0  0  0  0  0  0  0  0  0  0
   11.3258  -60.9622   38.6631 Br  0  0  0  0  0  0  0  0  0  0  0  0
   12.6032  -59.6171   38.2620 C   0  0  0  0  0  0  0  0  0  0  0  0
   12.8697  -58.6136   39.1731 C   0  0  0  0  0  0  0  0  0  0  0  0
   13.8081  -57.6283   38.8764 C   0  0  0  0  0  0  0  0  0  0  0  0
   14.4947  -57.6167   37.6834 C   0  0  0  0  0  0  0  0  0  0  0  0
   14.2234  -58.6208   36.7814 C   0  0  0  0  0  0  0  0  0  0  0  0
   13.2848  -59.6171   37.0622 C   0  0  0  0  0  0  0  0  0  0  0  0
   19.1657  -55.4912   34.8910 C   0  0  0  0  0  0  0  0  0  0  0  0
   18.7973  -55.0476   33.4920 C   0  0  0  0  0  0  0  0  0  0  0  0
   18.1389  -56.1109   32.7883 N   0  0  0  0  0  0  0  0  0  0  0  0
   16.7083  -55.8897   32.7637 C   0  0  0  0  0  0  0  0  0  0  0  0
   15.9203  -57.1358   33.0866 C   0  0  0  0  0  0  0  0  0  0  0  0
   16.3694  -58.1768   32.2712 O   0  0  0  0  0  0  0  0  0  0  0  0
   17.7136  -58.4310   32.4411 C   0  0  0  0  0  0  0  0  0  0  0  0
   18.3754  -57.4141   33.3337 C   0  0  0  0  0  0  0  0  0  0  0  0
   18.4500  -56.1341   31.7844 H   0  0  0  0  0  0  0  0  0  0  0  0
 14 15  1  0  0  0
 15 16  2  0  0  0
 15 20  1  0  0  0
 16 17  1  0  0  0
 17 18  2  0  0  0
 18 19  1  0  0  0
 18  1  1  0  0  0
 19 20  2  0  0  0
  1  2  1  0  0  0
  1  5  2  0  0  0
  2  3  2  0  0  0
  3  4  1  0  0  0
  3 12  1  0  0  0
  4  5  1  0  0  0
  4  6  1  0  0  0
  6  7  2  0  0  0
  6 11  1  0  0  0
  7  8  1  0  0  0
  7 12  1  0  0  0
  8  9  2  0  0  0
  9 10  1  0  0  0
 10 11  2  0  0  0
 12 21  1  0  0  0
 21 22  1  0  0  0
 22 23  1  0  0  0
 23 24  1  0  0  0
 23 28  1  0  0  0
 24 25  1  0  0  0
 25 26  1  0  0  0
 26 27  1  0  0  0
 27 28  1  0  0  0
  2 13  1  0  0  0
 23 29  1  0  0  0
M  CHG 1  23   1
M  END
> <minimizedAffinity>
-9.39949

$$$$
305


 27 30  0  0  0  0  0  0  0  0999 V2000
   17.5544  -56.5952   34.4786 C   0  0  0  0  0  0  0  0  0  0  0  0
   17.7305  -55.6087   35.3481 N   0  0  0  0  0  0  0  0  0  0  0  0
   17.0423  -55.8492   36.4913 C   0  0  0  0  0  0  0  0  0  0  0  0
   16.4275  -57.0340   36.3174 N   0  0  0  0  0  0  0  0  0  0  0  0
   16.7156  -57.4933   35.1437 N   0  0  0  0  0  0  0  0  0  0  0  0
   17.2058  -54.8708   37.3898 N   0  0  0  0  0  0  0  0  0  0  0  0
   18.0251  -53.9900   36.8056 C   0  0  0  0  0  0  0  0  0  0  0  0
   18.3805  -54.4244   35.5212 C   0  0  0  0  0  0  0  0  0  0  0  0
   19.2173  -53.7269   34.7702 N   0  0  0  0  0  0  0  0  0  0  0  0
   19.7110  -52.5612   35.2905 C   0  0  0  0  0  0  0  0  0  0  0  0
   20.5034  -51.8681   34.6098 O   0  0  0  0  0  0  0  0  0  0  0  0
   19.3842  -52.1150   36.5096 N   0  0  0  0  0  0  0  0  0  0  0  0
   18.5428  -52.8124   37.2910 C   0  0  0  0  0  0  0  0  0  0  0  0
   18.2136  -52.4258   38.4427 O   0  0  0  0  0  0  0  0  0  0  0  0
   19.7636  -54.1110   33.4944 C   0  0  0  0  0  0  0  0  0  0  0  0
   19.7579  -51.2279   36.9043 H   0  0  0  0  0  0  0  0  0  0  0  0
   19.4760  -57.2936   28.7022 Br  0  0  0  0  0  0  0  0  0  0  0  0
   18.8860  -57.1440   30.4955 C   0  0  0  0  0  0  0  0  0  0  0  0
   17.7608  -56.4010   30.7852 C   0  0  0  0  0  0  0  0  0  0  0  0
   17.3352  -56.2923   32.0723 C   0  0  0  0  0  0  0  0  0  0  0  0
   17.9981  -56.9110   33.1344 C   0  0  0  0  0  0  0  0  0  0  0  0
   19.1090  -57.6316   32.7783 C   0  0  0  0  0  0  0  0  0  0  0  0
   19.5849  -57.7767   31.4995 C   0  0  0  0  0  0  0  0  0  0  0  0
   16.6199  -54.7797   38.7080 C   0  0  0  0  0  0  0  0  0  0  0  0
   15.1540  -54.4052   38.6700 C   0  0  0  0  0  0  0  0  0  0  0  0
   14.4129  -55.1136   39.6080 O   0  0  0  0  0  0  0  0  0  0  0  0
   14.4005  -56.4491   39.2061 C   0  0  0  0  0  0  0  0  0  0  0  0
 17 18  1  0  0  0
 18 19  2  0  0  0
 18 23  1  0  0  0
 19 20  1  0  0  0
 20 21  2  0  0  0
 21 22  1  0  0  0
 21  1  1  0  0  0
 22 23  2  0  0  0
  1  2  1  0  0  0
  1  5  2  0  0  0
  2  3  1  0  0  0
  2  8  1  0  0  0
  3  4  2  0  0  0
  3  6  1  0  0  0
  4  5  1  0  0  0
  6  7  1  0  0  0
  6 24  1  0  0  0
  7  8  2  0  0  0
  7 13  1  0  0  0
  8  9  1  0  0  0
  9 10  1  0  0  0
  9 15  1  0  0  0
 10 11  2  0  0  0
 10 12  1  0  0  0
 12 13  1  0  0  0
 13 14  2  0  0  0
 24 25  1  0  0  0
 25 26  1  0  0  0
 26 27  1  0  0  0
 12 16  1  0  0  0
M  END
> <minimizedAffinity>
-8.63779

$$$$
309


 33 36  0  0  0  0  0  0  0  0999 V2000
   16.2038  -57.3489   34.4937 C   0  0  0  0  0  0  0  0  0  0  0  0
   16.7529  -56.9424   35.6860 C   0  0  0  0  0  0  0  0  0  0  0  0
   17.7482  -56.0797   35.7588 O   0  0  0  0  0  0  0  0  0  0  0  0
   18.2775  -55.5509   34.6853 C   0  0  0  0  0  0  0  0  0  0  0  0
   17.7820  -55.9109   33.4829 C   0  0  0  0  0  0  0  0  0  0  0  0
   18.3163  -55.3690   32.3348 C   0  0  0  0  0  0  0  0  0  0  0  0
   19.3458  -54.4709   32.4533 C   0  0  0  0  0  0  0  0  0  0  0  0
   19.8551  -54.1021   33.7132 C   0  0  0  0  0  0  0  0  0  0  0  0
   19.3432  -54.6256   34.8626 C   0  0  0  0  0  0  0  0  0  0  0  0
   20.8900  -53.1852   33.6367 O   0  0  0  0  0  0  0  0  0  0  0  0
   16.7434  -56.8079   33.3254 C   0  0  0  0  0  0  0  0  0  0  0  0
   16.2915  -57.1360   32.2235 O   0  0  0  0  0  0  0  0  0  0  0  0
   11.4767  -61.2959   34.4402 Br  0  0  0  0  0  0  0  0  0  0  0  0
   12.9300  -60.0527   34.4500 C   0  0  0  0  0  0  0  0  0  0  0  0
   14.2043  -60.5376   34.4123 C   0  0  0  0  0  0  0  0  0  0  0  0
   15.2604  -59.6527   34.4219 C   0  0  0  0  0  0  0  0  0  0  0  0
   15.0995  -58.2704   34.4692 C   0  0  0  0  0  0  0  0  0  0  0  0
   13.8096  -57.8094   34.5057 C   0  0  0  0  0  0  0  0  0  0  0  0
   12.7166  -58.6913   34.4966 C   0  0  0  0  0  0  0  0  0  0  0  0
   16.2008  -57.5020   36.9297 C   0  0  0  0  0  0  0  0  0  0  0  0
   16.6213  -58.6244   37.3072 O   0  0  0  0  0  0  0  0  0  0  0  0
   15.2643  -56.8733   37.6904 O   0  0  0  0  0  0  0  0  0  0  0  0
   14.5543  -57.5776   38.6802 C   0  0  0  0  0  0  0  0  0  0  0  0
   13.2239  -58.0020   38.1224 C   0  0  0  0  0  0  0  0  0  0  0  0
   19.7699  -54.3638   36.2157 C   0  0  0  0  0  0  0  0  0  0  0  0
   19.0610  -53.5387   37.1059 N   0  0  0  0  0  0  0  0  0  0  0  0
   19.0286  -54.0627   38.4250 C   0  0  0  0  0  0  0  0  0  0  0  0
   17.8952  -53.7201   39.3091 C   0  0  0  0  0  0  0  0  0  0  0  0
   16.7658  -53.2568   38.6261 N   0  0  0  0  0  0  0  0  0  0  0  0
   16.9386  -52.3278   37.5966 C   0  0  0  0  0  0  0  0  0  0  0  0
   17.9571  -52.8005   36.6079 C   0  0  0  0  0  0  0  0  0  0  0  0
   15.4874  -53.7236   38.9636 C   0  0  0  0  0  0  0  0  0  0  0  0
   19.8133  -52.6965   37.2442 H   0  0  0  0  0  0  0  0  0  0  0  0
 13 14  1  0  0  0
 14 15  2  0  0  0
 14 19  1  0  0  0
 15 16  1  0  0  0
 16 17  2  0  0  0
 17 18  1  0  0  0
 17  1  1  0  0  0
 18 19  2  0  0  0
  1  2  2  0  0  0
  1 11  1  0  0  0
  2  3  1  0  0  0
  2 20  1  0  0  0
  3  4  1  0  0  0
  4  5  2  0  0  0
  4  9  1  0  0  0
  5  6  1  0  0  0
  5 11  1  0  0  0
  6  7  2  0  0  0
  7  8  1  0  0  0
  8  9  2  0  0  0
  8 10  1  0  0  0
  9 25  1  0  0  0
 25 26  1  0  0  0
 26 27  1  0  0  0
 26 31  1  0  0  0
 27 28  1  0  0  0
 28 29  1  0  0  0
 29 30  1  0  0  0
 29 32  1  0  0  0
 30 31  1  0  0  0
 11 12  2  0  0  0
 20 21  2  0  0  0
 20 22  1  0  0  0
 22 23  1  0  0  0
 23 24  1  0  0  0
 26 33  1  0  0  0
M  CHG 1  10  -1
M  CHG 1  26   1
M  END
> <minimizedAffinity>
-9.63048

$$$$
320


 32 36  0  0  0  0  0  0  0  0999 V2000
   15.5640  -56.9809   36.2517 C   0  0  0  0  0  0  0  0  0  0  0  0
   14.7135  -57.9355   35.6700 C   0  0  0  0  0  0  0  0  0  0  0  0
   13.8308  -58.2768   36.6001 N   0  0  0  0  0  0  0  0  0  0  0  0
   12.7597  -59.1141   36.7540 C   0  0  0  0  0  0  0  0  0  0  0  0
   12.3371  -58.9270   38.0459 C   0  0  0  0  0  0  0  0  0  0  0  0
   13.1350  -58.0246   38.5960 N   0  0  0  0  0  0  0  0  0  0  0  0
   14.0760  -57.6073   37.7013 C   0  0  0  0  0  0  0  0  0  0  0  0
   15.1534  -56.7895   37.5103 N   0  0  0  0  0  0  0  0  0  0  0  0
   11.2454  -59.6298   38.5641 C   0  0  0  0  0  0  0  0  0  0  0  0
   10.5731  -60.5300   37.7659 C   0  0  0  0  0  0  0  0  0  0  0  0
   11.0164  -60.6990   36.4739 C   0  0  0  0  0  0  0  0  0  0  0  0
   12.1016  -60.0050   35.9516 C   0  0  0  0  0  0  0  0  0  0  0  0
   13.0359  -57.7103   39.5799 H   0  0  0  0  0  0  0  0  0  0  0  0
   20.1748  -54.1621   33.2580 Br  0  0  0  0  0  0  0  0  0  0  0  0
   18.7454  -55.0583   34.1870 C   0  0  0  0  0  0  0  0  0  0  0  0
   17.6364  -54.3894   34.6056 C   0  0  0  0  0  0  0  0  0  0  0  0
   16.6257  -55.0295   35.2635 C   0  0  0  0  0  0  0  0  0  0  0  0
   16.6716  -56.3810   35.5402 C   0  0  0  0  0  0  0  0  0  0  0  0
   17.7738  -57.0477   35.1248 C   0  0  0  0  0  0  0  0  0  0  0  0
   18.8305  -56.3984   34.4412 C   0  0  0  0  0  0  0  0  0  0  0  0
   15.6488  -55.9541   38.5611 C   0  0  0  0  0  0  0  0  0  0  0  0
   15.0243  -54.6278   38.7264 C   0  0  0  0  0  0  0  0  0  0  0  0
   15.7413  -53.5902   39.5123 C   0  0  0  0  0  0  0  0  0  0  0  0
   16.1401  -52.4680   38.6918 N   0  0  0  0  0  0  0  0  0  0  0  0
   15.4259  -52.0723   38.0856 H   0  0  0  0  0  0  0  0  0  0  0  0
   16.3475  -51.6672   39.3937 H   0  0  0  0  0  0  0  0  0  0  0  0
   17.3804  -52.6802   38.0062 C   0  0  0  0  0  0  0  0  0  0  0  0
   18.1240  -51.4286   37.6342 C   0  0  0  0  0  0  0  0  0  0  0  0
   19.1090  -51.8315   36.5267 C   0  0  0  0  0  0  0  0  0  0  0  0
   20.0632  -52.8312   37.0821 C   0  0  0  0  0  0  0  0  0  0  0  0
   19.3923  -54.0134   37.7422 C   0  0  0  0  0  0  0  0  0  0  0  0
   18.3698  -53.5404   38.7818 C   0  0  0  0  0  0  0  0  0  0  0  0
 14 15  1  0  0  0
 15 16  2  0  0  0
 15 20  1  0  0  0
 16 17  1  0  0  0
 17 18  2  0  0  0
 18 19  1  0  0  0
 18  1  1  0  0  0
 19 20  2  0  0  0
  1  2  2  0  0  0
  1  8  1  0  0  0
  2  3  1  0  0  0
  3  4  1  0  0  0
  3  7  1  0  0  0
  4  5  2  0  0  0
  4 12  1  0  0  0
  5  6  1  0  0  0
  5  9  1  0  0  0
  6  7  2  0  0  0
  7  8  1  0  0  0
  8 21  1  0  0  0
 21 22  1  0  0  0
 22 23  1  0  0  0
 23 24  1  0  0  0
 24 27  1  0  0  0
 27 28  1  0  0  0
 27 32  1  0  0  0
 28 29  1  0  0  0
 29 30  1  0  0  0
 30 31  1  0  0  0
 31 32  1  0  0  0
  9 10  2  0  0  0
 10 11  1  0  0  0
 11 12  2  0  0  0
  6 13  1  0  0  0
 24 25  1  0  0  0
 24 26  1  0  0  0
M  CHG 1  24   1
M  END
> <minimizedAffinity>
-9.71798

$$$$
324


 34 38  0  0  0  0  0  0  0  0999 V2000
   13.9579  -57.7329   37.8430 C   0  0  0  0  0  0  0  0  0  0  0  0
   13.9829  -56.4860   38.4959 C   0  0  0  0  0  0  0  0  0  0  0  0
   15.0887  -55.8045   38.1776 N   0  0  0  0  0  0  0  0  0  0  0  0
   15.7620  -54.6462   38.3848 C   0  0  0  0  0  0  0  0  0  0  0  0
   16.9079  -54.7298   37.6322 C   0  0  0  0  0  0  0  0  0  0  0  0
   16.9017  -55.9308   36.9898 N   0  0  0  0  0  0  0  0  0  0  0  0
   15.7733  -56.5766   37.3386 C   0  0  0  0  0  0  0  0  0  0  0  0
   15.0866  -57.7567   37.1313 N   0  0  0  0  0  0  0  0  0  0  0  0
   17.7840  -53.6651   37.6643 C   0  0  0  0  0  0  0  0  0  0  0  0
   17.5323  -52.5337   38.4299 C   0  0  0  0  0  0  0  0  0  0  0  0
   16.3875  -52.4521   39.1817 C   0  0  0  0  0  0  0  0  0  0  0  0
   15.4990  -53.5334   39.1479 C   0  0  0  0  0  0  0  0  0  0  0  0
   17.6545  -56.2610   36.3470 H   0  0  0  0  0  0  0  0  0  0  0  0
    9.5709  -62.0200   38.8939 Br  0  0  0  0  0  0  0  0  0  0  0  0
   10.9096  -60.6889   38.5559 C   0  0  0  0  0  0  0  0  0  0  0  0
   11.1685  -60.2578   37.2802 C   0  0  0  0  0  0  0  0  0  0  0  0
   12.1497  -59.2830   37.0345 C   0  0  0  0  0  0  0  0  0  0  0  0
   12.8906  -58.7165   38.0214 C   0  0  0  0  0  0  0  0  0  0  0  0
   12.6098  -59.1686   39.3115 C   0  0  0  0  0  0  0  0  0  0  0  0
   11.6436  -60.1296   39.5639 C   0  0  0  0  0  0  0  0  0  0  0  0
   15.5900  -58.8142   36.2802 C   0  0  0  0  0  0  0  0  0  0  0  0
   15.1450  -58.7086   34.8408 C   0  0  0  0  0  0  0  0  0  0  0  0
   16.3221  -58.5185   33.9174 C   0  0  0  0  0  0  0  0  0  0  0  0
   17.0954  -57.3318   34.1594 N   0  0  0  0  0  0  0  0  0  0  0  0
   16.5617  -56.3197   33.2619 C   0  0  0  0  0  0  0  0  0  0  0  0
   17.5857  -55.5336   32.5329 C   0  0  0  0  0  0  0  0  0  0  0  0
   18.6689  -56.2847   31.9597 N   0  0  0  0  0  0  0  0  0  0  0  0
   18.8658  -57.5793   32.5771 C   0  0  0  0  0  0  0  0  0  0  0  0
   18.5096  -57.4661   34.0452 C   0  0  0  0  0  0  0  0  0  0  0  0
   19.5555  -55.7401   32.2020 H   0  0  0  0  0  0  0  0  0  0  0  0
   18.6156  -56.3025   30.5326 C   0  0  0  0  0  0  0  0  0  0  0  0
   19.8895  -55.9881   29.8252 C   0  0  0  0  0  0  0  0  0  0  0  0
   20.5380  -54.8551   30.3134 O   0  0  0  0  0  0  0  0  0  0  0  0
   20.5597  -54.8803   31.2855 H   0  0  0  0  0  0  0  0  0  0  0  0
 14 15  1  0  0  0
 15 16  2  0  0  0
 15 20  1  0  0  0
 16 17  1  0  0  0
 17 18  2  0  0  0
 18 19  1  0  0  0
 18  1  1  0  0  0
 19 20  2  0  0  0
  1  2  2  0  0  0
  1  8  1  0  0  0
  2  3  1  0  0  0
  3  4  1  0  0  0
  3  7  1  0  0  0
  4  5  2  0  0  0
  4 12  1  0  0  0
  5  6  1  0  0  0
  5  9  1  0  0  0
  6  7  2  0  0  0
  7  8  1  0  0  0
  8 21  1  0  0  0
 21 22  1  0  0  0
 22 23  1  0  0  0
 23 24  1  0  0  0
 24 25  1  0  0  0
 24 29  1  0  0  0
 25 26  1  0  0  0
 26 27  1  0  0  0
 27 28  1  0  0  0
 27 31  1  0  0  0
 28 29  1  0  0  0
 31 32  1  0  0  0
 32 33  1  0  0  0
  9 10  2  0  0  0
 10 11  1  0  0  0
 11 12  2  0  0  0
  6 13  1  0  0  0
 27 30  1  0  0  0
 33 34  1  0  0  0
M  CHG 1  27   1
M  END
> <minimizedAffinity>
-9.20408

$$$$
346


 35 38  0  0  0  0  0  0  0  0999 V2000
   17.5449  -57.4242   34.0635 C   0  0  0  0  0  0  0  0  0  0  0  0
   17.6303  -56.0246   33.7470 N   0  0  0  0  0  0  0  0  0  0  0  0
   17.5508  -55.8113   32.3509 C   0  0  0  0  0  0  0  0  0  0  0  0
   17.6140  -54.7119   31.7186 O   0  0  0  0  0  0  0  0  0  0  0  0
   17.3714  -57.1158   31.6750 C   0  0  0  0  0  0  0  0  0  0  0  0
   17.2684  -57.2794   30.4385 O   0  0  0  0  0  0  0  0  0  0  0  0
   17.3485  -58.0986   32.7379 C   0  0  0  0  0  0  0  0  0  0  0  0
   17.2222  -59.3879   32.5149 C   0  0  0  0  0  0  0  0  0  0  0  0
   17.2806  -60.2534   33.6275 O   0  0  0  0  0  0  0  0  0  0  0  0
   13.0372  -58.7840   38.0942 Br  0  0  0  0  0  0  0  0  0  0  0  0
   14.4150  -58.3536   36.8265 C   0  0  0  0  0  0  0  0  0  0  0  0
   15.7369  -58.4961   37.1848 C   0  0  0  0  0  0  0  0  0  0  0  0
   16.7589  -58.1915   36.2801 C   0  0  0  0  0  0  0  0  0  0  0  0
   16.4719  -57.7409   35.0096 C   0  0  0  0  0  0  0  0  0  0  0  0
   15.1391  -57.6124   34.6908 C   0  0  0  0  0  0  0  0  0  0  0  0
   14.1222  -57.9071   35.5677 C   0  0  0  0  0  0  0  0  0  0  0  0
   17.0190  -60.0140   31.2331 C   0  0  0  0  0  0  0  0  0  0  0  0
   17.9544  -60.2400   30.2851 C   0  0  0  0  0  0  0  0  0  0  0  0
   17.6300  -60.8840   29.1096 C   0  0  0  0  0  0  0  0  0  0  0  0
   16.3596  -61.3348   28.8219 C   0  0  0  0  0  0  0  0  0  0  0  0
   15.4221  -61.0911   29.8061 C   0  0  0  0  0  0  0  0  0  0  0  0
   15.7104  -60.4548   30.9818 C   0  0  0  0  0  0  0  0  0  0  0  0
   18.7047  -61.1124   28.0882 C   0  0  0  0  0  0  0  0  0  0  0  0
   16.0395  -61.9830   27.6352 O   0  0  0  0  0  0  0  0  0  0  0  0
   14.6845  -62.0795   27.2210 C   0  0  0  0  0  0  0  0  0  0  0  0
   17.7865  -54.9851   34.7484 C   0  0  0  0  0  0  0  0  0  0  0  0
   19.2230  -54.6790   35.0721 C   0  0  0  0  0  0  0  0  0  0  0  0
   19.3591  -53.4006   35.8409 C   0  0  0  0  0  0  0  0  0  0  0  0
   18.5476  -53.3603   37.0225 N   0  0  0  0  0  0  0  0  0  0  0  0
   18.1485  -52.0200   37.3998 C   0  0  0  0  0  0  0  0  0  0  0  0
   17.1027  -52.1676   38.5100 C   0  0  0  0  0  0  0  0  0  0  0  0
   17.0553  -53.4756   38.9688 O   0  0  0  0  0  0  0  0  0  0  0  0
   18.3473  -53.9111   39.3376 C   0  0  0  0  0  0  0  0  0  0  0  0
   19.2140  -54.0489   38.0911 C   0  0  0  0  0  0  0  0  0  0  0  0
   17.6455  -53.8889   36.8276 H   0  0  0  0  0  0  0  0  0  0  0  0
 10 11  1  0  0  0
 11 12  2  0  0  0
 11 16  1  0  0  0
 12 13  1  0  0  0
 13 14  2  0  0  0
 14 15  1  0  0  0
 14  1  1  0  0  0
 15 16  2  0  0  0
  1  2  1  0  0  0
  1  7  1  0  0  0
  2  3  1  0  0  0
  2 26  1  0  0  0
  3  4  2  0  0  0
  3  5  1  0  0  0
  5  6  2  0  0  0
  5  7  1  0  0  0
  7  8  2  0  0  0
  8  9  1  0  0  0
  8 17  1  0  0  0
 17 18  2  0  0  0
 17 22  1  0  0  0
 18 19  1  0  0  0
 19 20  2  0  0  0
 19 23  1  0  0  0
 20 21  1  0  0  0
 20 24  1  0  0  0
 21 22  2  0  0  0
 24 25  1  0  0  0
 26 27  1  0  0  0
 27 28  1  0  0  0
 28 29  1  0  0  0
 29 30  1  0  0  0
 29 34  1  0  0  0
 30 31  1  0  0  0
 31 32  1  0  0  0
 32 33  1  0  0  0
 33 34  1  0  0  0
 29 35  1  0  0  0
M  CHG 1   9  -1
M  CHG 1  29   1
M  END
> <minimizedAffinity>
-8.27081

$$$$
347


 34 37  0  0  0  0  0  0  0  0999 V2000
   18.8232  -56.6824   34.1596 C   0  0  0  0  0  0  0  0  0  0  0  0
   17.5214  -57.3179   34.1692 N   0  0  0  0  0  0  0  0  0  0  0  0
   16.5643  -56.2761   33.9666 C   0  0  0  0  0  0  0  0  0  0  0  0
   15.4140  -56.3946   33.4766 O   0  0  0  0  0  0  0  0  0  0  0  0
   17.1997  -55.0535   34.4462 C   0  0  0  0  0  0  0  0  0  0  0  0
   16.7519  -53.8799   34.4741 O   0  0  0  0  0  0  0  0  0  0  0  0
   18.5309  -55.4139   34.9237 C   0  0  0  0  0  0  0  0  0  0  0  0
   19.2725  -54.7501   35.7760 C   0  0  0  0  0  0  0  0  0  0  0  0
   20.5483  -55.2835   36.0315 O   0  0  0  0  0  0  0  0  0  0  0  0
   20.7354  -55.5423   28.4097 Br  0  0  0  0  0  0  0  0  0  0  0  0
   20.1407  -55.8816   30.1904 C   0  0  0  0  0  0  0  0  0  0  0  0
   19.7419  -57.1463   30.5540 C   0  0  0  0  0  0  0  0  0  0  0  0
   19.3070  -57.3984   31.8579 C   0  0  0  0  0  0  0  0  0  0  0  0
   19.2662  -56.4013   32.8011 C   0  0  0  0  0  0  0  0  0  0  0  0
   19.6713  -55.1456   32.4078 C   0  0  0  0  0  0  0  0  0  0  0  0
   20.1050  -54.8780   31.1219 C   0  0  0  0  0  0  0  0  0  0  0  0
   18.8326  -53.5305   36.4458 C   0  0  0  0  0  0  0  0  0  0  0  0
   17.8161  -53.4816   37.3724 C   0  0  0  0  0  0  0  0  0  0  0  0
   17.3795  -52.3263   37.9958 C   0  0  0  0  0  0  0  0  0  0  0  0
   17.9909  -51.1470   37.6798 C   0  0  0  0  0  0  0  0  0  0  0  0
   19.0250  -51.1489   36.7481 C   0  0  0  0  0  0  0  0  0  0  0  0
   19.4331  -52.3205   36.1465 C   0  0  0  0  0  0  0  0  0  0  0  0
   16.3492  -52.4629   38.8984 O   0  0  0  0  0  0  0  0  0  0  0  0
   15.5725  -53.5854   39.1392 C   0  0  0  0  0  0  0  0  0  0  0  0
   17.2193  -58.7482   34.3495 C   0  0  0  0  0  0  0  0  0  0  0  0
   16.3136  -58.9508   35.5735 C   0  0  0  0  0  0  0  0  0  0  0  0
   15.0061  -59.5401   35.1272 C   0  0  0  0  0  0  0  0  0  0  0  0
   13.9882  -58.5185   35.1761 N   0  0  0  0  0  0  0  0  0  0  0  0
   13.8849  -57.8561   36.4382 C   0  0  0  0  0  0  0  0  0  0  0  0
   13.2754  -58.7062   37.5003 C   0  0  0  0  0  0  0  0  0  0  0  0
   12.0334  -59.1739   37.1077 O   0  0  0  0  0  0  0  0  0  0  0  0
   12.2169  -59.9568   35.9673 C   0  0  0  0  0  0  0  0  0  0  0  0
   12.6738  -59.0412   34.8482 C   0  0  0  0  0  0  0  0  0  0  0  0
   14.2077  -57.8049   34.4428 H   0  0  0  0  0  0  0  0  0  0  0  0
 10 11  1  0  0  0
 11 12  2  0  0  0
 11 16  1  0  0  0
 12 13  1  0  0  0
 13 14  2  0  0  0
 14 15  1  0  0  0
 14  1  1  0  0  0
 15 16  2  0  0  0
  1  2  1  0  0  0
  1  7  1  0  0  0
  2  3  1  0  0  0
  2 25  1  0  0  0
  3  4  2  0  0  0
  3  5  1  0  0  0
  5  6  2  0  0  0
  5  7  1  0  0  0
  7  8  2  0  0  0
  8  9  1  0  0  0
  8 17  1  0  0  0
 17 18  2  0  0  0
 17 22  1  0  0  0
 18 19  1  0  0  0
 19 20  2  0  0  0
 19 23  1  0  0  0
 20 21  1  0  0  0
 21 22  2  0  0  0
 23 24  1  0  0  0
 25 26  1  0  0  0
 26 27  1  0  0  0
 27 28  1  0  0  0
 28 29  1  0  0  0
 28 33  1  0  0  0
 29 30  1  0  0  0
 30 31  1  0  0  0
 31 32  1  0  0  0
 32 33  1  0  0  0
 28 34  1  0  0  0
M  CHG 1   9  -1
M  CHG 1  28   1
M  END
> <minimizedAffinity>
-8.69234

$$$$
349


 32 35  0  0  0  0  0  0  0  0999 V2000
   16.3520  -56.6037   36.5701 C   0  0  0  0  0  0  0  0  0  0  0  0
   15.7500  -55.8961   37.6162 N   0  0  0  0  0  0  0  0  0  0  0  0
   15.2908  -56.9605   38.5324 C   0  0  0  0  0  0  0  0  0  0  0  0
   15.1783  -56.8890   39.7873 O   0  0  0  0  0  0  0  0  0  0  0  0
   15.0012  -58.0974   37.6526 C   0  0  0  0  0  0  0  0  0  0  0  0
   14.5657  -59.2460   37.9706 O   0  0  0  0  0  0  0  0  0  0  0  0
   15.3151  -57.6350   36.2869 C   0  0  0  0  0  0  0  0  0  0  0  0
   14.7613  -58.0218   35.1601 C   0  0  0  0  0  0  0  0  0  0  0  0
   15.1265  -57.4301   33.9568 O   0  0  0  0  0  0  0  0  0  0  0  0
   19.9403  -54.7405   31.9440 Br  0  0  0  0  0  0  0  0  0  0  0  0
   18.8136  -55.3086   33.3848 C   0  0  0  0  0  0  0  0  0  0  0  0
   18.8675  -56.5917   33.8843 C   0  0  0  0  0  0  0  0  0  0  0  0
   18.0540  -56.9752   34.9118 C   0  0  0  0  0  0  0  0  0  0  0  0
   17.1330  -56.0997   35.5070 C   0  0  0  0  0  0  0  0  0  0  0  0
   17.0851  -54.8438   35.0143 C   0  0  0  0  0  0  0  0  0  0  0  0
   17.9139  -54.4467   33.9640 C   0  0  0  0  0  0  0  0  0  0  0  0
   13.7609  -59.0752   35.0880 C   0  0  0  0  0  0  0  0  0  0  0  0
   12.4424  -58.9511   35.3960 C   0  0  0  0  0  0  0  0  0  0  0  0
   11.5805  -60.0278   35.2402 C   0  0  0  0  0  0  0  0  0  0  0  0
   12.0486  -61.2346   34.7728 C   0  0  0  0  0  0  0  0  0  0  0  0
   13.3751  -61.4012   34.4506 C   0  0  0  0  0  0  0  0  0  0  0  0
   14.2177  -60.3105   34.6144 C   0  0  0  0  0  0  0  0  0  0  0  0
   11.1516  -62.4150   34.5921 C   0  0  0  0  0  0  0  0  0  0  0  0
   15.5211  -54.5129   38.0064 C   0  0  0  0  0  0  0  0  0  0  0  0
   16.3564  -54.0584   39.1745 C   0  0  0  0  0  0  0  0  0  0  0  0
   17.4710  -53.2482   38.8074 N   0  0  0  0  0  0  0  0  0  0  0  0
   17.0951  -52.3254   37.7529 C   0  0  0  0  0  0  0  0  0  0  0  0
   18.2831  -51.4606   37.4236 C   0  0  0  0  0  0  0  0  0  0  0  0
   19.2208  -52.2997   36.8001 O   0  0  0  0  0  0  0  0  0  0  0  0
   19.6264  -53.2343   37.7241 C   0  0  0  0  0  0  0  0  0  0  0  0
   18.5011  -54.1156   38.2013 C   0  0  0  0  0  0  0  0  0  0  0  0
   17.8942  -52.7502   39.6039 H   0  0  0  0  0  0  0  0  0  0  0  0
 10 11  1  0  0  0
 11 12  2  0  0  0
 11 16  1  0  0  0
 12 13  1  0  0  0
 13 14  2  0  0  0
 14 15  1  0  0  0
 14  1  1  0  0  0
 15 16  2  0  0  0
  1  2  1  0  0  0
  1  7  1  0  0  0
  2  3  1  0  0  0
  2 24  1  0  0  0
  3  4  2  0  0  0
  3  5  1  0  0  0
  5  6  2  0  0  0
  5  7  1  0  0  0
  7  8  2  0  0  0
  8  9  1  0  0  0
  8 17  1  0  0  0
 17 18  2  0  0  0
 17 22  1  0  0  0
 18 19  1  0  0  0
 19 20  2  0  0  0
 20 21  1  0  0  0
 20 23  1  0  0  0
 21 22  2  0  0  0
 24 25  1  0  0  0
 25 26  1  0  0  0
 26 27  1  0  0  0
 26 31  1  0  0  0
 27 28  1  0  0  0
 28 29  1  0  0  0
 29 30  1  0  0  0
 30 31  1  0  0  0
 26 32  1  0  0  0
M  CHG 1   9  -1
M  CHG 1  26   1
M  END
> <minimizedAffinity>
-8.86602

$$$$
351


 32 35  0  0  0  0  0  0  0  0999 V2000
   17.1749  -57.0822   35.0418 C   0  0  0  0  0  0  0  0  0  0  0  0
   16.8043  -56.0303   35.9162 N   0  0  0  0  0  0  0  0  0  0  0  0
   16.2232  -56.7304   37.0574 C   0  0  0  0  0  0  0  0  0  0  0  0
   16.2086  -56.3222   38.2507 O   0  0  0  0  0  0  0  0  0  0  0  0
   15.6750  -57.9758   36.5230 C   0  0  0  0  0  0  0  0  0  0  0  0
   15.0725  -58.8919   37.1406 O   0  0  0  0  0  0  0  0  0  0  0  0
   15.9645  -57.9554   35.0875 C   0  0  0  0  0  0  0  0  0  0  0  0
   15.2792  -58.5325   34.1169 C   0  0  0  0  0  0  0  0  0  0  0  0
   15.6569  -58.3591   32.7947 O   0  0  0  0  0  0  0  0  0  0  0  0
   19.8585  -56.2844   29.5810 Br  0  0  0  0  0  0  0  0  0  0  0  0
   18.9917  -56.4907   31.2611 C   0  0  0  0  0  0  0  0  0  0  0  0
   17.9860  -55.6585   31.6967 C   0  0  0  0  0  0  0  0  0  0  0  0
   17.3696  -55.8427   32.9432 C   0  0  0  0  0  0  0  0  0  0  0  0
   17.7507  -56.8606   33.7706 C   0  0  0  0  0  0  0  0  0  0  0  0
   18.7604  -57.6786   33.3074 C   0  0  0  0  0  0  0  0  0  0  0  0
   19.3754  -57.5129   32.0876 C   0  0  0  0  0  0  0  0  0  0  0  0
   14.1148  -59.3771   34.3440 C   0  0  0  0  0  0  0  0  0  0  0  0
   14.3717  -60.7534   34.2817 C   0  0  0  0  0  0  0  0  0  0  0  0
   13.3902  -61.6891   34.5121 C   0  0  0  0  0  0  0  0  0  0  0  0
   12.1102  -61.2383   34.8152 C   0  0  0  0  0  0  0  0  0  0  0  0
   11.8653  -59.8840   34.8752 C   0  0  0  0  0  0  0  0  0  0  0  0
   12.8569  -58.9540   34.6430 C   0  0  0  0  0  0  0  0  0  0  0  0
   10.8700  -62.4371   35.1053 Cl  0  0  0  0  0  0  0  0  0  0  0  0
   16.9497  -54.5726   35.8712 C   0  0  0  0  0  0  0  0  0  0  0  0
   18.3669  -54.0906   35.9154 C   0  0  0  0  0  0  0  0  0  0  0  0
   18.8167  -53.7952   37.2573 N   0  0  0  0  0  0  0  0  0  0  0  0
   17.7694  -53.2905   38.1004 C   0  0  0  0  0  0  0  0  0  0  0  0
   17.3137  -51.9061   37.7432 C   0  0  0  0  0  0  0  0  0  0  0  0
   18.3788  -51.0083   37.6536 O   0  0  0  0  0  0  0  0  0  0  0  0
   19.2185  -51.4980   36.6418 C   0  0  0  0  0  0  0  0  0  0  0  0
   19.8429  -52.7723   37.1686 C   0  0  0  0  0  0  0  0  0  0  0  0
   19.2452  -54.6171   37.7253 H   0  0  0  0  0  0  0  0  0  0  0  0
 10 11  1  0  0  0
 11 12  2  0  0  0
 11 16  1  0  0  0
 12 13  1  0  0  0
 13 14  2  0  0  0
 14 15  1  0  0  0
 14  1  1  0  0  0
 15 16  2  0  0  0
  1  2  1  0  0  0
  1  7  1  0  0  0
  2  3  1  0  0  0
  2 24  1  0  0  0
  3  4  2  0  0  0
  3  5  1  0  0  0
  5  6  2  0  0  0
  5  7  1  0  0  0
  7  8  2  0  0  0
  8  9  1  0  0  0
  8 17  1  0  0  0
 17 18  2  0  0  0
 17 22  1  0  0  0
 18 19  1  0  0  0
 19 20  2  0  0  0
 20 21  1  0  0  0
 20 23  1  0  0  0
 21 22  2  0  0  0
 24 25  1  0  0  0
 25 26  1  0  0  0
 26 27  1  0  0  0
 26 31  1  0  0  0
 27 28  1  0  0  0
 28 29  1  0  0  0
 29 30  1  0  0  0
 30 31  1  0  0  0
 26 32  1  0  0  0
M  CHG 1   9  -1
M  CHG 1  26   1
M  END
> <minimizedAffinity>
-8.61671

$$$$
354


 32 35  0  0  0  0  0  0  0  0999 V2000
   18.9770  -55.8054   34.2314 C   0  0  0  0  0  0  0  0  0  0  0  0
   19.3923  -54.8650   33.2406 N   0  0  0  0  0  0  0  0  0  0  0  0
   19.9929  -53.7664   33.9742 C   0  0  0  0  0  0  0  0  0  0  0  0
   20.7902  -52.9285   33.4782 O   0  0  0  0  0  0  0  0  0  0  0  0
   19.5083  -53.8252   35.3399 C   0  0  0  0  0  0  0  0  0  0  0  0
   19.7903  -53.0431   36.2980 O   0  0  0  0  0  0  0  0  0  0  0  0
   18.6209  -54.9684   35.4079 C   0  0  0  0  0  0  0  0  0  0  0  0
   17.6854  -55.1708   36.3184 C   0  0  0  0  0  0  0  0  0  0  0  0
   16.9030  -56.3401   36.1580 O   0  0  0  0  0  0  0  0  0  0  0  0
   14.9563  -60.2766   32.8011 Br  0  0  0  0  0  0  0  0  0  0  0  0
   16.1655  -58.8647   33.2362 C   0  0  0  0  0  0  0  0  0  0  0  0
   15.8467  -57.5383   33.0421 C   0  0  0  0  0  0  0  0  0  0  0  0
   16.7333  -56.5279   33.3622 C   0  0  0  0  0  0  0  0  0  0  0  0
   17.9589  -56.7757   33.8804 C   0  0  0  0  0  0  0  0  0  0  0  0
   18.2724  -58.1315   34.0740 C   0  0  0  0  0  0  0  0  0  0  0  0
   17.4054  -59.1535   33.7634 C   0  0  0  0  0  0  0  0  0  0  0  0
   17.4293  -54.2921   37.4420 C   0  0  0  0  0  0  0  0  0  0  0  0
   16.5461  -53.2313   37.2053 C   0  0  0  0  0  0  0  0  0  0  0  0
   16.1796  -52.3439   38.1954 C   0  0  0  0  0  0  0  0  0  0  0  0
   16.6805  -52.4898   39.4354 N   0  0  0  0  0  0  0  0  0  0  0  0
   17.5333  -53.5031   39.6922 C   0  0  0  0  0  0  0  0  0  0  0  0
   17.9108  -54.4063   38.7004 C   0  0  0  0  0  0  0  0  0  0  0  0
   19.3635  -54.9043   31.7772 C   0  0  0  0  0  0  0  0  0  0  0  0
   20.0943  -56.0475   31.1594 C   0  0  0  0  0  0  0  0  0  0  0  0
   19.5467  -56.3964   29.7842 C   0  0  0  0  0  0  0  0  0  0  0  0
   20.5874  -56.3695   28.7829 N   0  0  0  0  0  0  0  0  0  0  0  0
   21.8654  -55.9618   29.3211 C   0  0  0  0  0  0  0  0  0  0  0  0
   22.9253  -56.3835   28.3005 C   0  0  0  0  0  0  0  0  0  0  0  0
   23.1094  -57.7620   28.4014 O   0  0  0  0  0  0  0  0  0  0  0  0
   21.8994  -58.4294   28.5870 C   0  0  0  0  0  0  0  0  0  0  0  0
   20.7298  -57.6092   28.0831 C   0  0  0  0  0  0  0  0  0  0  0  0
   20.3070  -55.6406   28.0837 H   0  0  0  0  0  0  0  0  0  0  0  0
 10 11  1  0  0  0
 11 12  2  0  0  0
 11 16  1  0  0  0
 12 13  1  0  0  0
 13 14  2  0  0  0
 14 15  1  0  0  0
 14  1  1  0  0  0
 15 16  2  0  0  0
  1  2  1  0  0  0
  1  7  1  0  0  0
  2  3  1  0  0  0
  2 23  1  0  0  0
  3  4  2  0  0  0
  3  5  1  0  0  0
  5  6  2  0  0  0
  5  7  1  0  0  0
  7  8  2  0  0  0
  8  9  1  0  0  0
  8 17  1  0  0  0
 17 18  2  0  0  0
 17 22  1  0  0  0
 18 19  1  0  0  0
 19 20  2  0  0  0
 20 21  1  0  0  0
 21 22  2  0  0  0
 23 24  1  0  0  0
 24 25  1  0  0  0
 25 26  1  0  0  0
 26 27  1  0  0  0
 26 31  1  0  0  0
 27 28  1  0  0  0
 28 29  1  0  0  0
 29 30  1  0  0  0
 30 31  1  0  0  0
 26 32  1  0  0  0
M  CHG 1   9  -1
M  CHG 1  26   1
M  END
> <minimizedAffinity>
-8.61664

$$$$
361


 33 36  0  0  0  0  0  0  0  0999 V2000
   16.1821  -58.2143   35.4665 C   0  0  0  0  0  0  0  0  0  0  0  0
   14.8265  -58.6221   35.0535 N   0  0  0  0  0  0  0  0  0  0  0  0
   14.4354  -57.6409   34.0997 C   0  0  0  0  0  0  0  0  0  0  0  0
   13.2345  -57.3454   33.8346 O   0  0  0  0  0  0  0  0  0  0  0  0
   15.6339  -57.0603   33.5033 C   0  0  0  0  0  0  0  0  0  0  0  0
   15.6821  -56.1749   32.6247 O   0  0  0  0  0  0  0  0  0  0  0  0
   16.7430  -57.7376   34.1490 C   0  0  0  0  0  0  0  0  0  0  0  0
   17.9516  -57.9342   33.6875 C   0  0  0  0  0  0  0  0  0  0  0  0
   18.8880  -58.6523   34.4177 O   0  0  0  0  0  0  0  0  0  0  0  0
   18.3727  -57.4118   32.4014 C   0  0  0  0  0  0  0  0  0  0  0  0
   18.3251  -57.9404   31.1614 N   0  0  0  0  0  0  0  0  0  0  0  0
   18.8678  -57.1036   30.2650 C   0  0  0  0  0  0  0  0  0  0  0  0
   19.2680  -56.0182   30.9620 N   0  0  0  0  0  0  0  0  0  0  0  0
   18.9934  -56.1535   32.2447 C   0  0  0  0  0  0  0  0  0  0  0  0
   19.2506  -55.2113   33.3809 C   0  0  0  0  0  0  0  0  0  0  0  0
   18.9355  -57.3890   28.9009 C   0  0  0  0  0  0  0  0  0  0  0  0
   18.4296  -58.5749   28.4207 C   0  0  0  0  0  0  0  0  0  0  0  0
   17.8745  -59.4198   29.3540 C   0  0  0  0  0  0  0  0  0  0  0  0
   17.8228  -59.1116   30.6926 C   0  0  0  0  0  0  0  0  0  0  0  0
   15.9636  -53.2853   39.2558 Br  0  0  0  0  0  0  0  0  0  0  0  0
   16.0301  -54.8050   38.0819 C   0  0  0  0  0  0  0  0  0  0  0  0
   15.1311  -55.8465   38.2229 C   0  0  0  0  0  0  0  0  0  0  0  0
   15.1917  -56.9422   37.3636 C   0  0  0  0  0  0  0  0  0  0  0  0
   16.1259  -57.0356   36.3596 C   0  0  0  0  0  0  0  0  0  0  0  0
   17.0116  -55.9872   36.2362 C   0  0  0  0  0  0  0  0  0  0  0  0
   16.9614  -54.9014   37.0785 C   0  0  0  0  0  0  0  0  0  0  0  0
   14.0901  -59.7575   35.5436 C   0  0  0  0  0  0  0  0  0  0  0  0
   13.5400  -60.7362   34.5823 C   0  0  0  0  0  0  0  0  0  0  0  0
   14.3856  -61.2948   33.5076 C   0  0  0  0  0  0  0  0  0  0  0  0
   13.7765  -61.5572   32.2389 N   0  0  0  0  0  0  0  0  0  0  0  0
   14.8269  -61.3246   31.2069 C   0  0  0  0  0  0  0  0  0  0  0  0
   13.4719  -62.9683   32.1202 C   0  0  0  0  0  0  0  0  0  0  0  0
   12.9581  -60.9999   31.9946 H   0  0  0  0  0  0  0  0  0  0  0  0
 20 21  1  0  0  0
 21 22  2  0  0  0
 21 26  1  0  0  0
 22 23  1  0  0  0
 23 24  2  0  0  0
 24 25  1  0  0  0
 24  1  1  0  0  0
 25 26  2  0  0  0
  1  2  1  0  0  0
  1  7  1  0  0  0
  2  3  1  0  0  0
  2 27  1  0  0  0
  3  4  2  0  0  0
  3  5  1  0  0  0
  5  6  2  0  0  0
  5  7  1  0  0  0
  7  8  2  0  0  0
  8  9  1  0  0  0
  8 10  1  0  0  0
 10 11  1  0  0  0
 10 14  2  0  0  0
 11 12  1  0  0  0
 11 19  1  0  0  0
 12 13  2  0  0  0
 12 16  1  0  0  0
 13 14  1  0  0  0
 14 15  1  0  0  0
 16 17  2  0  0  0
 17 18  1  0  0  0
 18 19  2  0  0  0
 27 28  1  0  0  0
 28 29  1  0  0  0
 29 30  1  0  0  0
 30 31  1  0  0  0
 30 32  1  0  0  0
 30 33  1  0  0  0
M  CHG 1   9  -1
M  CHG 1  30   1
M  END
> <minimizedAffinity>
-9.31620

$$$$
362


 36 40  0  0  0  0  0  0  0  0999 V2000
   15.5288  -58.3072   33.7529 C   0  0  0  0  0  0  0  0  0  0  0  0
   15.2026  -58.7895   35.0289 N   0  0  0  0  0  0  0  0  0  0  0  0
   14.1578  -59.7593   34.7471 C   0  0  0  0  0  0  0  0  0  0  0  0
   13.2158  -60.1480   35.5185 O   0  0  0  0  0  0  0  0  0  0  0  0
   14.3615  -60.2427   33.3860 C   0  0  0  0  0  0  0  0  0  0  0  0
   13.7071  -61.0894   32.6968 O   0  0  0  0  0  0  0  0  0  0  0  0
   15.5423  -59.5276   32.9060 C   0  0  0  0  0  0  0  0  0  0  0  0
   16.3715  -59.8692   31.9378 C   0  0  0  0  0  0  0  0  0  0  0  0
   17.4153  -59.0239   31.5877 O   0  0  0  0  0  0  0  0  0  0  0  0
   16.2487  -61.1179   31.2014 C   0  0  0  0  0  0  0  0  0  0  0  0
   15.7243  -61.3077   29.9790 N   0  0  0  0  0  0  0  0  0  0  0  0
   15.8287  -62.6102   29.6262 C   0  0  0  0  0  0  0  0  0  0  0  0
   16.4295  -63.2324   30.6531 N   0  0  0  0  0  0  0  0  0  0  0  0
   16.7006  -62.3678   31.6280 C   0  0  0  0  0  0  0  0  0  0  0  0
   17.3532  -62.5925   32.9454 C   0  0  0  0  0  0  0  0  0  0  0  0
   15.3606  -63.0903   28.4217 C   0  0  0  0  0  0  0  0  0  0  0  0
   14.7561  -62.2530   27.5141 C   0  0  0  0  0  0  0  0  0  0  0  0
   14.6396  -60.9247   27.8580 C   0  0  0  0  0  0  0  0  0  0  0  0
   15.1191  -60.5013   29.0586 C   0  0  0  0  0  0  0  0  0  0  0  0
   19.9335  -54.1748   32.6572 Br  0  0  0  0  0  0  0  0  0  0  0  0
   18.5799  -55.4735   33.0047 C   0  0  0  0  0  0  0  0  0  0  0  0
   18.8185  -56.5950   33.7771 C   0  0  0  0  0  0  0  0  0  0  0  0
   17.8407  -57.5340   34.0288 C   0  0  0  0  0  0  0  0  0  0  0  0
   16.5868  -57.3760   33.5116 C   0  0  0  0  0  0  0  0  0  0  0  0
   16.3462  -56.2694   32.7479 C   0  0  0  0  0  0  0  0  0  0  0  0
   17.3086  -55.3217   32.4854 C   0  0  0  0  0  0  0  0  0  0  0  0
   15.5596  -58.5832   36.3950 C   0  0  0  0  0  0  0  0  0  0  0  0
   15.3763  -57.3251   37.0851 C   0  0  0  0  0  0  0  0  0  0  0  0
   16.5994  -56.4786   37.3487 C   0  0  0  0  0  0  0  0  0  0  0  0
   16.3206  -55.0613   37.1380 N   0  0  0  0  0  0  0  0  0  0  0  0
   17.2076  -54.4239   36.2103 C   0  0  0  0  0  0  0  0  0  0  0  0
   18.4639  -53.8742   36.8189 C   0  0  0  0  0  0  0  0  0  0  0  0
   18.7083  -54.3305   38.0867 O   0  0  0  0  0  0  0  0  0  0  0  0
   17.6734  -54.1881   38.9737 C   0  0  0  0  0  0  0  0  0  0  0  0
   16.3172  -54.3218   38.3637 C   0  0  0  0  0  0  0  0  0  0  0  0
   15.3581  -55.0139   36.7197 H   0  0  0  0  0  0  0  0  0  0  0  0
 20 21  1  0  0  0
 21 22  2  0  0  0
 21 26  1  0  0  0
 22 23  1  0  0  0
 23 24  2  0  0  0
 24 25  1  0  0  0
 24  1  1  0  0  0
 25 26  2  0  0  0
  1  2  1  0  0  0
  1  7  1  0  0  0
  2  3  1  0  0  0
  2 27  1  0  0  0
  3  4  2  0  0  0
  3  5  1  0  0  0
  5  6  2  0  0  0
  5  7  1  0  0  0
  7  8  2  0  0  0
  8  9  1  0  0  0
  8 10  1  0  0  0
 10 11  1  0  0  0
 10 14  2  0  0  0
 11 12  1  0  0  0
 11 19  1  0  0  0
 12 13  2  0  0  0
 12 16  1  0  0  0
 13 14  1  0  0  0
 14 15  1  0  0  0
 16 17  2  0  0  0
 17 18  1  0  0  0
 18 19  2  0  0  0
 27 28  1  0  0  0
 28 29  1  0  0  0
 29 30  1  0  0  0
 30 31  1  0  0  0
 30 35  1  0  0  0
 31 32  1  0  0  0
 32 33  1  0  0  0
 33 34  1  0  0  0
 34 35  1  0  0  0
 30 36  1  0  0  0
M  CHG 1   9  -1
M  CHG 1  30   1
M  END
> <minimizedAffinity>
-8.03289

$$$$
364


 32 35  0  0  0  0  0  0  0  0999 V2000
   16.1963  -57.6316   35.4417 C   0  0  0  0  0  0  0  0  0  0  0  0
   14.8211  -57.9931   35.2344 N   0  0  0  0  0  0  0  0  0  0  0  0
   14.4349  -57.4876   33.9683 C   0  0  0  0  0  0  0  0  0  0  0  0
   13.2514  -57.4334   33.5272 O   0  0  0  0  0  0  0  0  0  0  0  0
   15.6273  -57.0349   33.2475 C   0  0  0  0  0  0  0  0  0  0  0  0
   15.6835  -56.5332   32.0975 O   0  0  0  0  0  0  0  0  0  0  0  0
   16.7608  -57.2798   34.1212 C   0  0  0  0  0  0  0  0  0  0  0  0
   18.0340  -57.2445   33.7624 C   0  0  0  0  0  0  0  0  0  0  0  0
   18.9871  -57.5882   34.7412 O   0  0  0  0  0  0  0  0  0  0  0  0
   18.5468  -56.8791   32.4654 C   0  0  0  0  0  0  0  0  0  0  0  0
   18.6300  -57.5288   31.2979 N   0  0  0  0  0  0  0  0  0  0  0  0
   19.2375  -56.7706   30.3689 C   0  0  0  0  0  0  0  0  0  0  0  0
   19.5501  -55.6042   30.9582 N   0  0  0  0  0  0  0  0  0  0  0  0
   19.1462  -55.6347   32.2292 C   0  0  0  0  0  0  0  0  0  0  0  0
   19.3125  -54.5252   33.2097 C   0  0  0  0  0  0  0  0  0  0  0  0
   19.4467  -57.1826   29.0572 C   0  0  0  0  0  0  0  0  0  0  0  0
   19.0099  -58.4261   28.6920 C   0  0  0  0  0  0  0  0  0  0  0  0
   18.3831  -59.2079   29.6449 C   0  0  0  0  0  0  0  0  0  0  0  0
   18.2005  -58.7553   30.9310 C   0  0  0  0  0  0  0  0  0  0  0  0
   16.8602  -52.9418   39.4714 Br  0  0  0  0  0  0  0  0  0  0  0  0
   16.6334  -54.4035   38.2614 C   0  0  0  0  0  0  0  0  0  0  0  0
   17.2067  -54.3292   37.0242 C   0  0  0  0  0  0  0  0  0  0  0  0
   17.0508  -55.3736   36.1432 C   0  0  0  0  0  0  0  0  0  0  0  0
   16.3431  -56.5211   36.4211 C   0  0  0  0  0  0  0  0  0  0  0  0
   15.7708  -56.5652   37.6935 C   0  0  0  0  0  0  0  0  0  0  0  0
   15.9161  -55.5300   38.5865 C   0  0  0  0  0  0  0  0  0  0  0  0
   13.9578  -58.7548   36.1636 C   0  0  0  0  0  0  0  0  0  0  0  0
   13.3931  -59.9718   35.4627 C   0  0  0  0  0  0  0  0  0  0  0  0
   11.9819  -59.9289   35.3036 N   0  0  0  0  0  0  0  0  0  0  0  0
   11.5849  -61.1106   34.5377 C   0  0  0  0  0  0  0  0  0  0  0  0
   11.2307  -59.8984   36.5202 C   0  0  0  0  0  0  0  0  0  0  0  0
   11.6732  -59.0966   34.7263 H   0  0  0  0  0  0  0  0  0  0  0  0
 20 21  1  0  0  0
 21 22  2  0  0  0
 21 26  1  0  0  0
 22 23  1  0  0  0
 23 24  2  0  0  0
 24 25  1  0  0  0
 24  1  1  0  0  0
 25 26  2  0  0  0
  1  2  1  0  0  0
  1  7  1  0  0  0
  2  3  1  0  0  0
  2 27  1  0  0  0
  3  4  2  0  0  0
  3  5  1  0  0  0
  5  6  2  0  0  0
  5  7  1  0  0  0
  7  8  2  0  0  0
  8  9  1  0  0  0
  8 10  1  0  0  0
 10 11  1  0  0  0
 10 14  2  0  0  0
 11 12  1  0  0  0
 11 19  1  0  0  0
 12 13  2  0  0  0
 12 16  1  0  0  0
 13 14  1  0  0  0
 14 15  1  0  0  0
 16 17  2  0  0  0
 17 18  1  0  0  0
 18 19  2  0  0  0
 27 28  1  0  0  0
 28 29  1  0  0  0
 29 30  1  0  0  0
 29 31  1  0  0  0
 29 32  1  0  0  0
M  CHG 1   9  -1
M  CHG 1  29   1
M  END
> <minimizedAffinity>
-9.28554

$$$$
381


 29 32  0  0  0  0  0  0  0  0999 V2000
   16.2064  -56.7524   37.0336 N   0  0  0  0  0  0  0  0  0  0  0  0
   16.8276  -55.5835   36.9071 N   0  0  0  0  0  0  0  0  0  0  0  0
   16.5642  -54.5374   37.7416 C   0  0  0  0  0  0  0  0  0  0  0  0
   15.6536  -54.6883   38.7156 N   0  0  0  0  0  0  0  0  0  0  0  0
   15.5076  -53.4608   39.4667 C   0  0  0  0  0  0  0  0  0  0  0  0
   16.4569  -52.4667   38.8668 C   0  0  0  0  0  0  0  0  0  0  0  0
   17.1187  -53.2299   37.8254 N   0  0  0  0  0  0  0  0  0  0  0  0
   14.9955  -55.8418   38.8927 C   0  0  0  0  0  0  0  0  0  0  0  0
   14.1450  -55.9803   39.8037 O   0  0  0  0  0  0  0  0  0  0  0  0
   15.3016  -56.8680   38.0216 C   0  0  0  0  0  0  0  0  0  0  0  0
   14.7089  -57.9693   38.1471 O   0  0  0  0  0  0  0  0  0  0  0  0
   18.1644  -52.6985   37.0345 C   0  0  0  0  0  0  0  0  0  0  0  0
   18.8374  -53.4137   36.0805 C   0  0  0  0  0  0  0  0  0  0  0  0
   19.8674  -52.8694   35.3339 C   0  0  0  0  0  0  0  0  0  0  0  0
   20.2434  -51.5567   35.5453 C   0  0  0  0  0  0  0  0  0  0  0  0
   19.5873  -50.8288   36.4873 C   0  0  0  0  0  0  0  0  0  0  0  0
   18.5629  -51.3792   37.2276 C   0  0  0  0  0  0  0  0  0  0  0  0
   16.5041  -57.9010   36.1619 C   0  0  0  0  0  0  0  0  0  0  0  0
   18.3697  -57.1490   34.5589 N   0  0  0  0  0  0  0  0  0  0  0  0
   17.0405  -57.4515   34.8782 C   0  0  0  0  0  0  0  0  0  0  0  0
   16.1343  -57.3359   33.9604 O   0  0  0  0  0  0  0  0  0  0  0  0
   19.0757  -57.2481   35.3425 H   0  0  0  0  0  0  0  0  0  0  0  0
   20.5468  -55.6743   28.9828 Br  0  0  0  0  0  0  0  0  0  0  0  0
   19.8588  -56.0925   30.7156 C   0  0  0  0  0  0  0  0  0  0  0  0
   19.5121  -55.1162   31.6118 C   0  0  0  0  0  0  0  0  0  0  0  0
   19.0114  -55.4362   32.8814 C   0  0  0  0  0  0  0  0  0  0  0  0
   18.8343  -56.7279   33.3100 C   0  0  0  0  0  0  0  0  0  0  0  0
   19.1990  -57.7055   32.3637 C   0  0  0  0  0  0  0  0  0  0  0  0
   19.6892  -57.4008   31.1242 C   0  0  0  0  0  0  0  0  0  0  0  0
 23 24  1  0  0  0
 24 25  2  0  0  0
 24 29  1  0  0  0
 25 26  1  0  0  0
 26 27  2  0  0  0
 27 28  1  0  0  0
 27 19  1  0  0  0
 28 29  2  0  0  0
 19 20  1  0  0  0
 20 21  2  0  0  0
 20 18  1  0  0  0
 18  1  1  0  0  0
  1  2  1  0  0  0
  1 10  1  0  0  0
  2  3  2  0  0  0
  3  4  1  0  0  0
  3  7  1  0  0  0
  4  5  1  0  0  0
  4  8  1  0  0  0
  5  6  1  0  0  0
  6  7  1  0  0  0
  7 12  1  0  0  0
 12 13  2  0  0  0
 12 17  1  0  0  0
 13 14  1  0  0  0
 14 15  2  0  0  0
 15 16  1  0  0  0
 16 17  2  0  0  0
  8  9  2  0  0  0
  8 10  1  0  0  0
 10 11  2  0  0  0
 19 22  1  0  0  0
M  END
> <minimizedAffinity>
-10.43315

$$$$
382


 31 34  0  0  0  0  0  0  0  0999 V2000
   14.4158  -56.9228   38.5776 N   0  0  0  0  0  0  0  0  0  0  0  0
   13.1981  -57.4229   38.7888 N   0  0  0  0  0  0  0  0  0  0  0  0
   12.7819  -58.0329   37.7032 N   0  0  0  0  0  0  0  0  0  0  0  0
   13.7476  -57.9329   36.7586 C   0  0  0  0  0  0  0  0  0  0  0  0
   14.7507  -57.2437   37.3158 C   0  0  0  0  0  0  0  0  0  0  0  0
   15.7087  -57.1634   36.3269 C   0  0  0  0  0  0  0  0  0  0  0  0
   16.8163  -56.5721   36.4971 O   0  0  0  0  0  0  0  0  0  0  0  0
   15.3209  -57.7776   35.1985 N   0  0  0  0  0  0  0  0  0  0  0  0
   14.0769  -58.2672   35.4661 C   0  0  0  0  0  0  0  0  0  0  0  0
   13.3993  -58.9109   34.6192 O   0  0  0  0  0  0  0  0  0  0  0  0
   12.6918  -57.3222   39.6930 H   0  0  0  0  0  0  0  0  0  0  0  0
   11.8708  -58.5290   37.5392 H   0  0  0  0  0  0  0  0  0  0  0  0
   16.0292  -57.9143   33.9579 C   0  0  0  0  0  0  0  0  0  0  0  0
   16.1759  -56.8426   33.1036 C   0  0  0  0  0  0  0  0  0  0  0  0
   16.8652  -56.9632   31.9134 C   0  0  0  0  0  0  0  0  0  0  0  0
   17.4396  -58.1572   31.5165 C   0  0  0  0  0  0  0  0  0  0  0  0
   17.2944  -59.2310   32.3694 C   0  0  0  0  0  0  0  0  0  0  0  0
   16.6024  -59.1042   33.5628 C   0  0  0  0  0  0  0  0  0  0  0  0
   18.1800  -58.2515   30.2293 C   0  0  0  0  0  0  0  0  0  0  0  0
   15.1805  -56.1825   39.5615 C   0  0  0  0  0  0  0  0  0  0  0  0
   17.1129  -54.7820   38.7235 N   0  0  0  0  0  0  0  0  0  0  0  0
   15.7310  -54.9289   38.9021 C   0  0  0  0  0  0  0  0  0  0  0  0
   14.9349  -54.0417   38.5300 O   0  0  0  0  0  0  0  0  0  0  0  0
   17.7555  -55.5654   39.0642 H   0  0  0  0  0  0  0  0  0  0  0  0
   20.1764  -50.1614   36.0654 Br  0  0  0  0  0  0  0  0  0  0  0  0
   19.1858  -51.5509   36.9019 C   0  0  0  0  0  0  0  0  0  0  0  0
   18.0645  -51.3103   37.6544 C   0  0  0  0  0  0  0  0  0  0  0  0
   17.3769  -52.3613   38.2460 C   0  0  0  0  0  0  0  0  0  0  0  0
   17.7611  -53.6790   38.1223 C   0  0  0  0  0  0  0  0  0  0  0  0
   18.9149  -53.8875   37.3429 C   0  0  0  0  0  0  0  0  0  0  0  0
   19.5893  -52.8607   36.7637 C   0  0  0  0  0  0  0  0  0  0  0  0
 25 26  1  0  0  0
 26 27  2  0  0  0
 26 31  1  0  0  0
 27 28  1  0  0  0
 28 29  2  0  0  0
 29 30  1  0  0  0
 29 21  1  0  0  0
 30 31  2  0  0  0
 21 22  1  0  0  0
 22 23  2  0  0  0
 22 20  1  0  0  0
 20  1  1  0  0  0
  1  2  1  0  0  0
  1  5  1  0  0  0
  2  3  1  0  0  0
  3  4  1  0  0  0
  4  5  2  0  0  0
  4  9  1  0  0  0
  5  6  1  0  0  0
  6  7  2  0  0  0
  6  8  1  0  0  0
  8  9  1  0  0  0
  8 13  1  0  0  0
  9 10  2  0  0  0
 13 14  2  0  0  0
 13 18  1  0  0  0
 14 15  1  0  0  0
 15 16  2  0  0  0
 16 17  1  0  0  0
 16 19  1  0  0  0
 17 18  2  0  0  0
 21 24  1  0  0  0
  2 11  1  0  0  0
  3 12  1  0  0  0
M  END
> <minimizedAffinity>
-10.09325

$$$$
385


 32 35  0  0  0  0  0  0  0  0999 V2000
   14.5979  -57.3050   36.3273 C   0  0  0  0  0  0  0  0  0  0  0  0
   13.6039  -57.4478   37.4413 C   0  0  0  0  0  0  0  0  0  0  0  0
   13.2062  -58.8312   37.7315 C   0  0  0  0  0  0  0  0  0  0  0  0
   12.8902  -59.1181   38.9182 O   0  0  0  0  0  0  0  0  0  0  0  0
   13.1867  -59.7996   36.6979 N   0  0  0  0  0  0  0  0  0  0  0  0
   13.8508  -59.5448   35.4785 C   0  0  0  0  0  0  0  0  0  0  0  0
   13.8072  -60.4898   34.4885 N   0  0  0  0  0  0  0  0  0  0  0  0
   14.4008  -60.3093   33.3068 C   0  0  0  0  0  0  0  0  0  0  0  0
   15.0548  -59.1576   33.1092 N   0  0  0  0  0  0  0  0  0  0  0  0
   15.1305  -58.1837   34.0628 C   0  0  0  0  0  0  0  0  0  0  0  0
   14.5245  -58.3454   35.2930 C   0  0  0  0  0  0  0  0  0  0  0  0
   15.8489  -56.9810   33.8087 N   0  0  0  0  0  0  0  0  0  0  0  0
   12.6812  -60.7256   36.8109 H   0  0  0  0  0  0  0  0  0  0  0  0
   15.7483  -56.1353   34.3779 H   0  0  0  0  0  0  0  0  0  0  0  0
   16.5114  -56.9571   32.9921 H   0  0  0  0  0  0  0  0  0  0  0  0
   14.3431  -61.3234   32.2775 N   0  0  0  0  0  0  0  0  0  0  0  0
   15.0380  -61.0571   31.0667 C   0  0  0  0  0  0  0  0  0  0  0  0
   15.3240  -62.2756   30.2372 C   0  0  0  0  0  0  0  0  0  0  0  0
   14.9287  -63.4516   30.8652 O   0  0  0  0  0  0  0  0  0  0  0  0
   13.6149  -63.3848   31.3091 C   0  0  0  0  0  0  0  0  0  0  0  0
   13.5925  -62.5314   32.5508 C   0  0  0  0  0  0  0  0  0  0  0  0
   16.7157  -56.1822   36.9707 N   0  0  0  0  0  0  0  0  0  0  0  0
   15.9783  -57.2788   37.0183 C   0  0  0  0  0  0  0  0  0  0  0  0
   16.2054  -58.4267   37.5727 O   0  0  0  0  0  0  0  0  0  0  0  0
   17.7567  -56.8529   37.5382 H   0  0  0  0  0  0  0  0  0  0  0  0
   19.9659  -51.0749   36.2119 Br  0  0  0  0  0  0  0  0  0  0  0  0
   18.9642  -52.6883   36.4921 C   0  0  0  0  0  0  0  0  0  0  0  0
   18.7162  -53.5555   35.4575 C   0  0  0  0  0  0  0  0  0  0  0  0
   18.0106  -54.6890   35.6407 C   0  0  0  0  0  0  0  0  0  0  0  0
   17.4824  -55.0451   36.9222 C   0  0  0  0  0  0  0  0  0  0  0  0
   17.7544  -54.1481   37.9318 C   0  0  0  0  0  0  0  0  0  0  0  0
   18.4750  -52.9949   37.7431 C   0  0  0  0  0  0  0  0  0  0  0  0
 26 27  1  0  0  0
 27 28  2  0  0  0
 27 32  1  0  0  0
 28 29  1  0  0  0
 29 30  2  0  0  0
 30 31  1  0  0  0
 30 22  1  0  0  0
 31 32  2  0  0  0
 22 23  1  0  0  0
 23 24  2  0  0  0
 23  1  1  0  0  0
  1  2  1  0  0  0
  1 11  1  0  0  0
  2  3  1  0  0  0
  3  4  2  0  0  0
  3  5  1  0  0  0
  5  6  1  0  0  0
  6  7  2  0  0  0
  6 11  1  0  0  0
  7  8  1  0  0  0
  8  9  2  0  0  0
  8 16  1  0  0  0
  9 10  1  0  0  0
 10 11  2  0  0  0
 10 12  1  0  0  0
 16 17  1  0  0  0
 16 21  1  0  0  0
 17 18  1  0  0  0
 18 19  1  0  0  0
 19 20  1  0  0  0
 20 21  1  0  0  0
 22 25  1  0  0  0
  5 13  1  0  0  0
 12 14  1  0  0  0
 12 15  1  0  0  0
M  END
> <minimizedAffinity>
-9.15632

$$$$
386


 36 39  0  0  0  0  0  0  0  0999 V2000
   14.5959  -58.6788   35.0925 C   0  0  0  0  0  0  0  0  0  0  0  0
   13.4501  -58.7020   36.0869 C   0  0  0  0  0  0  0  0  0  0  0  0
   14.0371  -58.6780   37.4608 C   0  0  0  0  0  0  0  0  0  0  0  0
   13.6709  -59.4708   38.3097 O   0  0  0  0  0  0  0  0  0  0  0  0
   15.0143  -57.7025   37.7059 N   0  0  0  0  0  0  0  0  0  0  0  0
   15.7330  -57.1136   36.6405 C   0  0  0  0  0  0  0  0  0  0  0  0
   16.6038  -56.1064   36.8530 N   0  0  0  0  0  0  0  0  0  0  0  0
   17.2535  -55.4341   35.9023 C   0  0  0  0  0  0  0  0  0  0  0  0
   16.9836  -55.8308   34.6316 N   0  0  0  0  0  0  0  0  0  0  0  0
   16.1209  -56.8386   34.3425 C   0  0  0  0  0  0  0  0  0  0  0  0
   15.4618  -57.5272   35.3145 C   0  0  0  0  0  0  0  0  0  0  0  0
   15.8991  -57.1791   33.0107 O   0  0  0  0  0  0  0  0  0  0  0  0
   15.2537  -57.3627   38.6760 H   0  0  0  0  0  0  0  0  0  0  0  0
   15.3271  -56.6093   32.3910 H   0  0  0  0  0  0  0  0  0  0  0  0
   18.2010  -54.4146   36.1548 N   0  0  0  0  0  0  0  0  0  0  0  0
   18.0723  -53.0203   35.8196 C   0  0  0  0  0  0  0  0  0  0  0  0
   18.6705  -52.1976   36.9568 C   0  0  0  0  0  0  0  0  0  0  0  0
   18.5567  -52.8934   38.2813 C   0  0  0  0  0  0  0  0  0  0  0  0
   19.2603  -54.2047   38.2733 C   0  0  0  0  0  0  0  0  0  0  0  0
   19.4489  -54.7629   36.8438 C   0  0  0  0  0  0  0  0  0  0  0  0
   17.1498  -52.9936   38.7366 C   0  0  0  0  0  0  0  0  0  0  0  0
   16.4691  -51.9477   38.7510 O   0  0  0  0  0  0  0  0  0  0  0  0
   16.5428  -54.1980   39.1570 N   0  0  0  0  0  0  0  0  0  0  0  0
   16.7583  -55.1146   38.7239 H   0  0  0  0  0  0  0  0  0  0  0  0
   15.8510  -54.1630   39.9347 H   0  0  0  0  0  0  0  0  0  0  0  0
   14.8102  -60.0458   33.0284 N   0  0  0  0  0  0  0  0  0  0  0  0
   14.2050  -59.0514   33.7063 C   0  0  0  0  0  0  0  0  0  0  0  0
   13.2260  -58.2852   33.3069 O   0  0  0  0  0  0  0  0  0  0  0  0
   13.9188  -59.9176   32.0265 H   0  0  0  0  0  0  0  0  0  0  0  0
   17.9990  -64.3574   30.2502 Br  0  0  0  0  0  0  0  0  0  0  0  0
   16.9420  -63.0221   31.0763 C   0  0  0  0  0  0  0  0  0  0  0  0
   17.3079  -62.5232   32.3142 C   0  0  0  0  0  0  0  0  0  0  0  0
   16.6053  -61.5684   32.9701 C   0  0  0  0  0  0  0  0  0  0  0  0
   15.4267  -61.0586   32.3364 C   0  0  0  0  0  0  0  0  0  0  0  0
   15.0911  -61.5749   31.1077 C   0  0  0  0  0  0  0  0  0  0  0  0
   15.8209  -62.5460   30.4591 C   0  0  0  0  0  0  0  0  0  0  0  0
 30 31  1  0  0  0
 31 32  2  0  0  0
 31 36  1  0  0  0
 32 33  1  0  0  0
 33 34  2  0  0  0
 34 35  1  0  0  0
 34 26  1  0  0  0
 35 36  2  0  0  0
 26 27  1  0  0  0
 27 28  2  0  0  0
 27  1  1  0  0  0
  1  2  1  0  0  0
  1 11  1  0  0  0
  2  3  1  0  0  0
  3  4  2  0  0  0
  3  5  1  0  0  0
  5  6  1  0  0  0
  6  7  2  0  0  0
  6 11  1  0  0  0
  7  8  1  0  0  0
  8  9  2  0  0  0
  8 15  1  0  0  0
  9 10  1  0  0  0
 10 11  2  0  0  0
 10 12  1  0  0  0
 15 16  1  0  0  0
 15 20  1  0  0  0
 16 17  1  0  0  0
 17 18  1  0  0  0
 18 19  1  0  0  0
 18 21  1  0  0  0
 19 20  1  0  0  0
 21 22  2  0  0  0
 21 23  1  0  0  0
 26 29  1  0  0  0
  5 13  1  0  0  0
 12 14  1  0  0  0
 23 24  1  0  0  0
 23 25  1  0  0  0
M  END
> <minimizedAffinity>
-9.11215

$$$$
393


 27 30  0  0  0  0  0  0  0  0999 V2000
   17.2881  -56.3230   35.8204 N   0  0  0  0  0  0  0  0  0  0  0  0
   16.6676  -56.9292   36.8019 N   0  0  0  0  0  0  0  0  0  0  0  0
   16.1336  -58.1078   36.4243 C   0  0  0  0  0  0  0  0  0  0  0  0
   16.4444  -58.2517   35.1000 C   0  0  0  0  0  0  0  0  0  0  0  0
   17.1629  -57.1295   34.7458 C   0  0  0  0  0  0  0  0  0  0  0  0
   16.0685  -59.3868   34.2661 C   0  0  0  0  0  0  0  0  0  0  0  0
   17.0068  -60.0954   33.8289 O   0  0  0  0  0  0  0  0  0  0  0  0
   14.7321  -59.7077   33.9431 N   0  0  0  0  0  0  0  0  0  0  0  0
   14.4687  -60.8551   33.1085 C   0  0  0  0  0  0  0  0  0  0  0  0
   13.7603  -61.8809   33.9420 C   0  0  0  0  0  0  0  0  0  0  0  0
   13.1172  -61.2926   35.1112 N   0  0  0  0  0  0  0  0  0  0  0  0
   12.7495  -59.9189   35.1734 C   0  0  0  0  0  0  0  0  0  0  0  0
   11.7709  -59.5655   35.8757 O   0  0  0  0  0  0  0  0  0  0  0  0
   13.5698  -58.9707   34.3838 C   0  0  0  0  0  0  0  0  0  0  0  0
   12.9251  -61.9333   35.9386 H   0  0  0  0  0  0  0  0  0  0  0  0
   20.1735  -50.8922   36.1897 Br  0  0  0  0  0  0  0  0  0  0  0  0
   19.2757  -52.5770   36.0762 C   0  0  0  0  0  0  0  0  0  0  0  0
   19.8797  -53.6514   35.4577 C   0  0  0  0  0  0  0  0  0  0  0  0
   19.2172  -54.8601   35.3853 C   0  0  0  0  0  0  0  0  0  0  0  0
   17.9535  -55.0603   35.9083 C   0  0  0  0  0  0  0  0  0  0  0  0
   17.3614  -53.9741   36.5264 C   0  0  0  0  0  0  0  0  0  0  0  0
   18.0119  -52.7592   36.6071 C   0  0  0  0  0  0  0  0  0  0  0  0
   17.7048  -56.8425   33.4368 N   0  0  0  0  0  0  0  0  0  0  0  0
   17.1849  -56.0901   32.4785 C   0  0  0  0  0  0  0  0  0  0  0  0
   18.0117  -56.0694   31.3791 C   0  0  0  0  0  0  0  0  0  0  0  0
   19.0837  -56.8612   31.7155 C   0  0  0  0  0  0  0  0  0  0  0  0
   18.8750  -57.3299   32.9934 C   0  0  0  0  0  0  0  0  0  0  0  0
 16 17  1  0  0  0
 17 18  2  0  0  0
 17 22  1  0  0  0
 18 19  1  0  0  0
 19 20  2  0  0  0
 20 21  1  0  0  0
 20  1  1  0  0  0
 21 22  2  0  0  0
  1  2  1  0  0  0
  1  5  1  0  0  0
  2  3  2  0  0  0
  3  4  1  0  0  0
  4  5  2  0  0  0
  4  6  1  0  0  0
  5 23  1  0  0  0
 23 24  1  0  0  0
 23 27  1  0  0  0
 24 25  2  0  0  0
 25 26  1  0  0  0
 26 27  2  0  0  0
  6  7  2  0  0  0
  6  8  1  0  0  0
  8  9  1  0  0  0
  8 14  1  0  0  0
  9 10  1  0  0  0
 10 11  1  0  0  0
 11 12  1  0  0  0
 12 13  2  0  0  0
 12 14  1  0  0  0
 11 15  1  0  0  0
M  END
> <minimizedAffinity>
-8.56438

$$$$
395


 28 31  0  0  0  0  0  0  0  0999 V2000
   16.2180  -55.4371   37.9446 N   0  0  0  0  0  0  0  0  0  0  0  0
   15.6556  -55.6009   39.1297 N   0  0  0  0  0  0  0  0  0  0  0  0
   14.8713  -56.6652   39.1495 N   0  0  0  0  0  0  0  0  0  0  0  0
   14.9019  -57.2500   37.9220 C   0  0  0  0  0  0  0  0  0  0  0  0
   15.7593  -56.4499   37.1883 C   0  0  0  0  0  0  0  0  0  0  0  0
   15.9775  -56.8007   35.9157 N   0  0  0  0  0  0  0  0  0  0  0  0
   15.3830  -57.8846   35.3876 C   0  0  0  0  0  0  0  0  0  0  0  0
   14.5432  -58.6717   36.0982 N   0  0  0  0  0  0  0  0  0  0  0  0
   14.2968  -58.3566   37.3754 C   0  0  0  0  0  0  0  0  0  0  0  0
   13.5204  -59.0820   38.0352 O   0  0  0  0  0  0  0  0  0  0  0  0
   20.0779  -50.9617   36.1936 Br  0  0  0  0  0  0  0  0  0  0  0  0
   18.8867  -52.3624   36.7296 C   0  0  0  0  0  0  0  0  0  0  0  0
   17.8037  -52.1069   37.5440 C   0  0  0  0  0  0  0  0  0  0  0  0
   16.9305  -53.1083   37.9425 C   0  0  0  0  0  0  0  0  0  0  0  0
   17.1218  -54.4100   37.5297 C   0  0  0  0  0  0  0  0  0  0  0  0
   18.2080  -54.6581   36.7143 C   0  0  0  0  0  0  0  0  0  0  0  0
   19.0780  -53.6642   36.3168 C   0  0  0  0  0  0  0  0  0  0  0  0
   13.9484  -59.8200   35.4400 C   0  0  0  0  0  0  0  0  0  0  0  0
   14.0844  -59.6894   33.9444 C   0  0  0  0  0  0  0  0  0  0  0  0
   13.5246  -58.7427   33.3297 O   0  0  0  0  0  0  0  0  0  0  0  0
   14.8415  -60.6250   33.2008 N   0  0  0  0  0  0  0  0  0  0  0  0
   14.9780  -60.5107   31.7682 C   0  0  0  0  0  0  0  0  0  0  0  0
   14.7690  -61.9010   31.1930 C   0  0  0  0  0  0  0  0  0  0  0  0
   15.6022  -62.8482   31.7299 O   0  0  0  0  0  0  0  0  0  0  0  0
   16.3296  -62.4302   32.8170 C   0  0  0  0  0  0  0  0  0  0  0  0
   15.4972  -61.7253   33.8685 C   0  0  0  0  0  0  0  0  0  0  0  0
   17.1305  -63.5249   33.4581 C   0  0  0  0  0  0  0  0  0  0  0  0
   15.1066  -61.7988   29.7019 C   0  0  0  0  0  0  0  0  0  0  0  0
 11 12  1  0  0  0
 12 13  2  0  0  0
 12 17  1  0  0  0
 13 14  1  0  0  0
 14 15  2  0  0  0
 15 16  1  0  0  0
 15  1  1  0  0  0
 16 17  2  0  0  0
  1  2  1  0  0  0
  1  5  1  0  0  0
  2  3  2  0  0  0
  3  4  1  0  0  0
  4  5  2  0  0  0
  4  9  1  0  0  0
  5  6  1  0  0  0
  6  7  2  0  0  0
  7  8  1  0  0  0
  8  9  1  0  0  0
  8 18  1  0  0  0
  9 10  2  0  0  0
 18 19  1  0  0  0
 19 20  2  0  0  0
 19 21  1  0  0  0
 21 22  1  0  0  0
 21 26  1  0  0  0
 22 23  1  0  0  0
 23 24  1  0  0  0
 23 28  1  0  0  0
 24 25  1  0  0  0
 25 26  1  0  0  0
 25 27  1  0  0  0
M  END
> <minimizedAffinity>
-9.12982

$$$$
399


 28 31  0  0  0  0  0  0  0  0999 V2000
   17.7706  -56.7762   33.9887 N   0  0  0  0  0  0  0  0  0  0  0  0
   17.2315  -57.9356   34.6140 C   0  0  0  0  0  0  0  0  0  0  0  0
   17.1307  -58.1026   35.8483 O   0  0  0  0  0  0  0  0  0  0  0  0
   16.8022  -58.9284   33.6178 C   0  0  0  0  0  0  0  0  0  0  0  0
   17.6522  -58.5540   32.4091 C   0  0  0  0  0  0  0  0  0  0  0  0
   17.8229  -57.0763   32.5805 C   0  0  0  0  0  0  0  0  0  0  0  0
   17.9773  -56.3288   31.5969 O   0  0  0  0  0  0  0  0  0  0  0  0
   19.5305  -51.4531   36.5587 Br  0  0  0  0  0  0  0  0  0  0  0  0
   18.9907  -53.1068   35.7582 C   0  0  0  0  0  0  0  0  0  0  0  0
   19.8739  -53.8953   35.0728 C   0  0  0  0  0  0  0  0  0  0  0  0
   19.4728  -55.1019   34.4897 C   0  0  0  0  0  0  0  0  0  0  0  0
   18.1846  -55.5433   34.5815 C   0  0  0  0  0  0  0  0  0  0  0  0
   17.2994  -54.7597   35.2640 C   0  0  0  0  0  0  0  0  0  0  0  0
   17.6905  -53.5469   35.8519 C   0  0  0  0  0  0  0  0  0  0  0  0
   15.3985  -58.8904   33.2752 N   0  0  0  0  0  0  0  0  0  0  0  0
   14.7951  -60.2015   33.2776 C   0  0  0  0  0  0  0  0  0  0  0  0
   14.0512  -60.5438   34.5491 C   0  0  0  0  0  0  0  0  0  0  0  0
   13.2982  -59.4165   35.0371 N   0  0  0  0  0  0  0  0  0  0  0  0
   13.2129  -58.3103   34.1129 C   0  0  0  0  0  0  0  0  0  0  0  0
   14.6753  -57.8620   33.9314 C   0  0  0  0  0  0  0  0  0  0  0  0
   15.4041  -58.6206   32.2334 H   0  0  0  0  0  0  0  0  0  0  0  0
   12.7055  -59.3620   36.3028 C   0  0  0  0  0  0  0  0  0  0  0  0
   13.3066  -58.8806   37.4483 C   0  0  0  0  0  0  0  0  0  0  0  0
   12.6812  -58.8720   38.6846 C   0  0  0  0  0  0  0  0  0  0  0  0
   11.4073  -59.3569   38.8126 C   0  0  0  0  0  0  0  0  0  0  0  0
   10.7587  -59.8515   37.6991 C   0  0  0  0  0  0  0  0  0  0  0  0
   11.4041  -59.8489   36.4754 C   0  0  0  0  0  0  0  0  0  0  0  0
   10.7210  -59.3772   40.0273 O   0  0  0  0  0  0  0  0  0  0  0  0
  8  9  1  0  0  0
  9 10  2  0  0  0
  9 14  1  0  0  0
 10 11  1  0  0  0
 11 12  2  0  0  0
 12 13  1  0  0  0
 12  1  1  0  0  0
 13 14  2  0  0  0
  1  2  1  0  0  0
  1  6  1  0  0  0
  2  3  2  0  0  0
  2  4  1  0  0  0
  4  5  1  0  0  0
  4 15  1  0  0  0
  5  6  1  0  0  0
  6  7  2  0  0  0
 15 16  1  0  0  0
 15 20  1  0  0  0
 16 17  1  0  0  0
 17 18  1  0  0  0
 18 19  1  0  0  0
 18 22  1  0  0  0
 19 20  1  0  0  0
 22 23  2  0  0  0
 22 27  1  0  0  0
 23 24  1  0  0  0
 24 25  2  0  0  0
 25 26  1  0  0  0
 25 28  1  0  0  0
 26 27  2  0  0  0
 15 21  1  0  0  0
M  CHG 1  15   1
M  CHG 1  28  -1
M  END
> <minimizedAffinity>
-8.96637

$$$$
400


 31 34  0  0  0  0  0  0  0  0999 V2000
   16.0619  -58.5444   32.5807 N   0  0  0  0  0  0  0  0  0  0  0  0
   15.4760  -57.5853   33.4275 C   0  0  0  0  0  0  0  0  0  0  0  0
   14.1612  -58.1552   33.9765 C   0  0  0  0  0  0  0  0  0  0  0  0
   14.4166  -59.3194   34.9076 C   0  0  0  0  0  0  0  0  0  0  0  0
   15.4885  -60.1693   34.3548 C   0  0  0  0  0  0  0  0  0  0  0  0
   15.7421  -59.8851   32.8957 C   0  0  0  0  0  0  0  0  0  0  0  0
   18.4630  -56.3351   32.6836 N   0  0  0  0  0  0  0  0  0  0  0  0
   18.2088  -57.6870   33.0799 C   0  0  0  0  0  0  0  0  0  0  0  0
   18.6257  -58.2764   34.1064 O   0  0  0  0  0  0  0  0  0  0  0  0
   17.3398  -58.3042   32.0446 C   0  0  0  0  0  0  0  0  0  0  0  0
   17.3483  -57.3676   30.8572 C   0  0  0  0  0  0  0  0  0  0  0  0
   18.3339  -56.3321   31.2675 C   0  0  0  0  0  0  0  0  0  0  0  0
   18.9773  -55.5480   30.4843 O   0  0  0  0  0  0  0  0  0  0  0  0
   19.7805  -51.6114   36.4241 Br  0  0  0  0  0  0  0  0  0  0  0  0
   19.3684  -53.0764   35.2661 C   0  0  0  0  0  0  0  0  0  0  0  0
   18.2507  -53.8580   35.4446 C   0  0  0  0  0  0  0  0  0  0  0  0
   17.9561  -54.9294   34.5923 C   0  0  0  0  0  0  0  0  0  0  0  0
   18.7799  -55.2365   33.5424 C   0  0  0  0  0  0  0  0  0  0  0  0
   19.8964  -54.4484   33.3735 C   0  0  0  0  0  0  0  0  0  0  0  0
   20.1977  -53.3853   34.2100 C   0  0  0  0  0  0  0  0  0  0  0  0
   14.6100  -58.8171   36.2045 N   0  0  0  0  0  0  0  0  0  0  0  0
   13.4868  -58.5249   36.9918 C   0  0  0  0  0  0  0  0  0  0  0  0
   13.6249  -57.0580   37.4355 C   0  0  0  0  0  0  0  0  0  0  0  0
   14.8429  -57.0150   38.3358 C   0  0  0  0  0  0  0  0  0  0  0  0
   15.7235  -58.2126   38.2027 C   0  0  0  0  0  0  0  0  0  0  0  0
   15.8732  -58.6843   36.7485 C   0  0  0  0  0  0  0  0  0  0  0  0
   13.1376  -60.1148   34.9108 C   0  0  0  0  0  0  0  0  0  0  0  0
   12.1012  -59.6450   34.3516 O   0  0  0  0  0  0  0  0  0  0  0  0
   13.0261  -61.3881   35.5179 N   0  0  0  0  0  0  0  0  0  0  0  0
   12.3793  -61.5219   36.3044 H   0  0  0  0  0  0  0  0  0  0  0  0
   13.5882  -62.1922   35.1789 H   0  0  0  0  0  0  0  0  0  0  0  0
 14 15  1  0  0  0
 15 16  2  0  0  0
 15 20  1  0  0  0
 16 17  1  0  0  0
 17 18  2  0  0  0
 18 19  1  0  0  0
 18  7  1  0  0  0
 19 20  2  0  0  0
  7  8  1  0  0  0
  7 12  1  0  0  0
  8  9  2  0  0  0
  8 10  1  0  0  0
 10 11  1  0  0  0
 10  1  1  0  0  0
 11 12  1  0  0  0
 12 13  2  0  0  0
  1  2  1  0  0  0
  1  6  1  0  0  0
  2  3  1  0  0  0
  3  4  1  0  0  0
  4  5  1  0  0  0
  4 21  1  0  0  0
  4 27  1  0  0  0
  5  6  1  0  0  0
 21 22  1  0  0  0
 21 26  1  0  0  0
 22 23  1  0  0  0
 23 24  1  0  0  0
 24 25  1  0  0  0
 25 26  1  0  0  0
 27 28  2  0  0  0
 27 29  1  0  0  0
 29 30  1  0  0  0
 29 31  1  0  0  0
M  END
> <minimizedAffinity>
-9.29336

$$$$
408


 31 34  0  0  0  0  0  0  0  0999 V2000
   15.6915  -57.8161   34.0098 N   0  0  0  0  0  0  0  0  0  0  0  0
   16.0492  -57.4676   35.2574 C   0  0  0  0  0  0  0  0  0  0  0  0
   17.2084  -57.0542   35.5682 O   0  0  0  0  0  0  0  0  0  0  0  0
   14.9842  -57.6225   36.1450 C   0  0  0  0  0  0  0  0  0  0  0  0
   13.9725  -58.0718   35.4082 C   0  0  0  0  0  0  0  0  0  0  0  0
   12.9595  -58.2138   36.2819 N   0  0  0  0  0  0  0  0  0  0  0  0
   13.3474  -57.8623   37.4967 N   0  0  0  0  0  0  0  0  0  0  0  0
   14.6031  -57.4933   37.4221 N   0  0  0  0  0  0  0  0  0  0  0  0
   14.3961  -58.1939   34.1000 C   0  0  0  0  0  0  0  0  0  0  0  0
   13.7232  -58.5868   33.1218 O   0  0  0  0  0  0  0  0  0  0  0  0
   12.0162  -58.5608   35.9725 H   0  0  0  0  0  0  0  0  0  0  0  0
   12.7156  -57.8955   38.3297 H   0  0  0  0  0  0  0  0  0  0  0  0
   19.2053  -57.8059   28.9451 Br  0  0  0  0  0  0  0  0  0  0  0  0
   18.1104  -57.7991   30.5223 C   0  0  0  0  0  0  0  0  0  0  0  0
   17.7822  -58.9732   31.1654 C   0  0  0  0  0  0  0  0  0  0  0  0
   16.9941  -58.9709   32.3007 C   0  0  0  0  0  0  0  0  0  0  0  0
   16.5021  -57.7936   32.8380 C   0  0  0  0  0  0  0  0  0  0  0  0
   16.8424  -56.6297   32.1787 C   0  0  0  0  0  0  0  0  0  0  0  0
   17.6267  -56.6222   31.0481 C   0  0  0  0  0  0  0  0  0  0  0  0
   15.4431  -57.0307   38.4976 C   0  0  0  0  0  0  0  0  0  0  0  0
   15.7712  -55.5721   38.3631 C   0  0  0  0  0  0  0  0  0  0  0  0
   14.8312  -54.7994   38.6663 O   0  0  0  0  0  0  0  0  0  0  0  0
   17.0215  -55.1186   37.9350 N   0  0  0  0  0  0  0  0  0  0  0  0
   17.7239  -55.9012   37.7116 H   0  0  0  0  0  0  0  0  0  0  0  0
   17.4324  -53.7901   37.7744 C   0  0  0  0  0  0  0  0  0  0  0  0
   18.6240  -53.5683   37.0651 C   0  0  0  0  0  0  0  0  0  0  0  0
   19.0643  -52.2818   36.8837 C   0  0  0  0  0  0  0  0  0  0  0  0
   18.3864  -51.1829   37.3680 C   0  0  0  0  0  0  0  0  0  0  0  0
   17.2291  -51.3903   38.0581 C   0  0  0  0  0  0  0  0  0  0  0  0
   16.7771  -52.6796   38.2472 C   0  0  0  0  0  0  0  0  0  0  0  0
   19.4102  -54.6885   36.5127 C   0  0  0  0  0  0  0  0  0  0  0  0
 13 14  1  0  0  0
 14 15  2  0  0  0
 14 19  1  0  0  0
 15 16  1  0  0  0
 16 17  2  0  0  0
 17 18  1  0  0  0
 17  1  1  0  0  0
 18 19  2  0  0  0
  1  2  1  0  0  0
  1  9  1  0  0  0
  2  3  2  0  0  0
  2  4  1  0  0  0
  4  5  2  0  0  0
  4  8  1  0  0  0
  5  6  1  0  0  0
  5  9  1  0  0  0
  6  7  1  0  0  0
  7  8  1  0  0  0
  8 20  1  0  0  0
 20 21  1  0  0  0
 21 22  2  0  0  0
 21 23  1  0  0  0
 23 25  1  0  0  0
 25 26  2  0  0  0
 25 30  1  0  0  0
 26 27  1  0  0  0
 26 31  1  0  0  0
 27 28  2  0  0  0
 28 29  1  0  0  0
 29 30  2  0  0  0
  9 10  2  0  0  0
  6 11  1  0  0  0
  7 12  1  0  0  0
 23 24  1  0  0  0
M  END
> <minimizedAffinity>
-10.07171

$$$$
411


 34 37  0  0  0  0  0  0  0  0999 V2000
   15.4292  -57.8757   35.1957 N   0  0  0  0  0  0  0  0  0  0  0  0
   15.9263  -57.1973   36.2426 C   0  0  0  0  0  0  0  0  0  0  0  0
   17.1149  -56.7875   36.2789 O   0  0  0  0  0  0  0  0  0  0  0  0
   14.9692  -57.0273   37.2290 C   0  0  0  0  0  0  0  0  0  0  0  0
   13.8703  -57.6136   36.7716 C   0  0  0  0  0  0  0  0  0  0  0  0
   12.9433  -57.4491   37.7279 N   0  0  0  0  0  0  0  0  0  0  0  0
   13.4625  -56.7802   38.7418 N   0  0  0  0  0  0  0  0  0  0  0  0
   14.7080  -56.5108   38.4542 N   0  0  0  0  0  0  0  0  0  0  0  0
   14.1446  -58.1370   35.5254 C   0  0  0  0  0  0  0  0  0  0  0  0
   13.3150  -58.7705   34.7921 O   0  0  0  0  0  0  0  0  0  0  0  0
   11.9590  -57.7824   37.7101 H   0  0  0  0  0  0  0  0  0  0  0  0
   12.9758  -56.4970   39.6438 H   0  0  0  0  0  0  0  0  0  0  0  0
   18.1390  -59.4399   29.8886 Br  0  0  0  0  0  0  0  0  0  0  0  0
   17.2964  -58.9687   31.5426 C   0  0  0  0  0  0  0  0  0  0  0  0
   16.9605  -59.9294   32.4759 C   0  0  0  0  0  0  0  0  0  0  0  0
   16.3488  -59.5813   33.6766 C   0  0  0  0  0  0  0  0  0  0  0  0
   16.0536  -58.2682   33.9790 C   0  0  0  0  0  0  0  0  0  0  0  0
   16.3905  -57.3143   33.0440 C   0  0  0  0  0  0  0  0  0  0  0  0
   16.9980  -57.6571   31.8535 C   0  0  0  0  0  0  0  0  0  0  0  0
   15.6660  -55.7978   39.2649 C   0  0  0  0  0  0  0  0  0  0  0  0
   16.2538  -54.6654   38.4554 C   0  0  0  0  0  0  0  0  0  0  0  0
   15.5012  -53.7546   38.0442 O   0  0  0  0  0  0  0  0  0  0  0  0
   17.6272  -54.6420   38.1721 N   0  0  0  0  0  0  0  0  0  0  0  0
   18.2106  -55.4545   38.5569 H   0  0  0  0  0  0  0  0  0  0  0  0
   18.3019  -53.6471   37.4370 C   0  0  0  0  0  0  0  0  0  0  0  0
   19.1268  -53.8600   36.3616 C   0  0  0  0  0  0  0  0  0  0  0  0
   19.7737  -52.8409   35.6938 C   0  0  0  0  0  0  0  0  0  0  0  0
   19.5757  -51.5492   36.1343 C   0  0  0  0  0  0  0  0  0  0  0  0
   18.7497  -51.2912   37.2162 C   0  0  0  0  0  0  0  0  0  0  0  0
   18.1192  -52.3179   37.8645 C   0  0  0  0  0  0  0  0  0  0  0  0
   20.2188  -50.5058   35.4739 O   0  0  0  0  0  0  0  0  0  0  0  0
   20.2652  -49.2299   36.0812 C   0  0  0  0  0  0  0  0  0  0  0  0
   20.6056  -53.0880   34.6041 O   0  0  0  0  0  0  0  0  0  0  0  0
   20.0217  -53.7108   33.4525 C   0  0  0  0  0  0  0  0  0  0  0  0
 13 14  1  0  0  0
 14 15  2  0  0  0
 14 19  1  0  0  0
 15 16  1  0  0  0
 16 17  2  0  0  0
 17 18  1  0  0  0
 17  1  1  0  0  0
 18 19  2  0  0  0
  1  2  1  0  0  0
  1  9  1  0  0  0
  2  3  2  0  0  0
  2  4  1  0  0  0
  4  5  2  0  0  0
  4  8  1  0  0  0
  5  6  1  0  0  0
  5  9  1  0  0  0
  6  7  1  0  0  0
  7  8  1  0  0  0
  8 20  1  0  0  0
 20 21  1  0  0  0
 21 22  2  0  0  0
 21 23  1  0  0  0
 23 25  1  0  0  0
 25 26  2  0  0  0
 25 30  1  0  0  0
 26 27  1  0  0  0
 27 28  2  0  0  0
 27 33  1  0  0  0
 28 29  1  0  0  0
 28 31  1  0  0  0
 29 30  2  0  0  0
 31 32  1  0  0  0
 33 34  1  0  0  0
  9 10  2  0  0  0
  6 11  1  0  0  0
  7 12  1  0  0  0
 23 24  1  0  0  0
M  END
> <minimizedAffinity>
-9.20782

$$$$
412


 34 37  0  0  0  0  0  0  0  0999 V2000
   14.7236  -59.3744   34.7757 N   0  0  0  0  0  0  0  0  0  0  0  0
   15.3716  -58.2941   34.3328 C   0  0  0  0  0  0  0  0  0  0  0  0
   15.0712  -57.0971   34.6582 O   0  0  0  0  0  0  0  0  0  0  0  0
   16.4075  -58.5890   33.4772 C   0  0  0  0  0  0  0  0  0  0  0  0
   16.3904  -59.9333   33.3947 C   0  0  0  0  0  0  0  0  0  0  0  0
   17.4054  -60.2520   32.5555 N   0  0  0  0  0  0  0  0  0  0  0  0
   18.0162  -59.1549   32.1448 N   0  0  0  0  0  0  0  0  0  0  0  0
   17.4079  -58.1313   32.7082 N   0  0  0  0  0  0  0  0  0  0  0  0
   15.3716  -60.4223   34.1788 C   0  0  0  0  0  0  0  0  0  0  0  0
   15.0335  -61.6162   34.3646 O   0  0  0  0  0  0  0  0  0  0  0  0
   17.6469  -61.2342   32.2860 H   0  0  0  0  0  0  0  0  0  0  0  0
   18.8368  -59.1675   31.4815 H   0  0  0  0  0  0  0  0  0  0  0  0
    9.9085  -59.8119   38.6065 Br  0  0  0  0  0  0  0  0  0  0  0  0
   11.4181  -59.6765   37.4146 C   0  0  0  0  0  0  0  0  0  0  0  0
   12.6554  -59.2959   37.8757 C   0  0  0  0  0  0  0  0  0  0  0  0
   13.7522  -59.1952   37.0055 C   0  0  0  0  0  0  0  0  0  0  0  0
   13.6109  -59.4768   35.6687 C   0  0  0  0  0  0  0  0  0  0  0  0
   12.3605  -59.8575   35.2308 C   0  0  0  0  0  0  0  0  0  0  0  0
   11.2797  -59.9578   36.0749 C   0  0  0  0  0  0  0  0  0  0  0  0
   17.7747  -56.7577   32.5181 C   0  0  0  0  0  0  0  0  0  0  0  0
   18.1571  -56.0730   33.7506 C   0  0  0  0  0  0  0  0  0  0  0  0
   19.0890  -56.4885   34.4991 O   0  0  0  0  0  0  0  0  0  0  0  0
   17.4474  -54.9062   34.1129 N   0  0  0  0  0  0  0  0  0  0  0  0
   16.6544  -54.5415   33.5001 H   0  0  0  0  0  0  0  0  0  0  0  0
   17.8049  -54.2284   35.3060 C   0  0  0  0  0  0  0  0  0  0  0  0
   18.8714  -53.3673   35.2261 C   0  0  0  0  0  0  0  0  0  0  0  0
   19.3065  -52.6823   36.3671 C   0  0  0  0  0  0  0  0  0  0  0  0
   18.6669  -52.8747   37.5630 C   0  0  0  0  0  0  0  0  0  0  0  0
   17.5840  -53.7459   37.6598 C   0  0  0  0  0  0  0  0  0  0  0  0
   17.1770  -54.4073   36.5115 C   0  0  0  0  0  0  0  0  0  0  0  0
   16.9929  -53.8928   38.8969 O   0  0  0  0  0  0  0  0  0  0  0  0
   15.6340  -53.8110   39.1951 C   0  0  0  0  0  0  0  0  0  0  0  0
   20.3783  -51.8448   36.1708 O   0  0  0  0  0  0  0  0  0  0  0  0
   20.2944  -50.4691   36.0932 C   0  0  0  0  0  0  0  0  0  0  0  0
 13 14  1  0  0  0
 14 15  2  0  0  0
 14 19  1  0  0  0
 15 16  1  0  0  0
 16 17  2  0  0  0
 17 18  1  0  0  0
 17  1  1  0  0  0
 18 19  2  0  0  0
  1  2  1  0  0  0
  1  9  1  0  0  0
  2  3  2  0  0  0
  2  4  1  0  0  0
  4  5  2  0  0  0
  4  8  1  0  0  0
  5  6  1  0  0  0
  5  9  1  0  0  0
  6  7  1  0  0  0
  7  8  1  0  0  0
  8 20  1  0  0  0
 20 21  1  0  0  0
 21 22  2  0  0  0
 21 23  1  0  0  0
 23 25  1  0  0  0
 25 26  2  0  0  0
 25 30  1  0  0  0
 26 27  1  0  0  0
 27 28  2  0  0  0
 27 33  1  0  0  0
 28 29  1  0  0  0
 29 30  2  0  0  0
 29 31  1  0  0  0
 31 32  1  0  0  0
 33 34  1  0  0  0
  9 10  2  0  0  0
  6 11  1  0  0  0
  7 12  1  0  0  0
 23 24  1  0  0  0
M  END
> <minimizedAffinity>
-8.71753

$$$$
414


 35 38  0  0  0  0  0  0  0  0999 V2000
   15.0622  -60.3264   33.8181 N   0  0  0  0  0  0  0  0  0  0  0  0
   15.5369  -59.3156   33.0468 C   0  0  0  0  0  0  0  0  0  0  0  0
   15.1363  -58.1101   33.0618 O   0  0  0  0  0  0  0  0  0  0  0  0
   16.5412  -59.7935   32.2229 C   0  0  0  0  0  0  0  0  0  0  0  0
   16.6557  -61.0874   32.5124 C   0  0  0  0  0  0  0  0  0  0  0  0
   17.6351  -61.5807   31.7168 N   0  0  0  0  0  0  0  0  0  0  0  0
   18.0859  -60.5761   30.9715 N   0  0  0  0  0  0  0  0  0  0  0  0
   17.4370  -59.4630   31.2542 N   0  0  0  0  0  0  0  0  0  0  0  0
   15.7521  -61.4281   33.4908 C   0  0  0  0  0  0  0  0  0  0  0  0
   15.5830  -62.5566   34.0029 O   0  0  0  0  0  0  0  0  0  0  0  0
   17.9643  -62.5673   31.7037 H   0  0  0  0  0  0  0  0  0  0  0  0
   18.8405  -60.6633   30.2686 H   0  0  0  0  0  0  0  0  0  0  0  0
   10.5188  -59.6916   37.8831 Br  0  0  0  0  0  0  0  0  0  0  0  0
   11.9139  -59.9016   36.6080 C   0  0  0  0  0  0  0  0  0  0  0  0
   11.7695  -60.6280   35.4448 C   0  0  0  0  0  0  0  0  0  0  0  0
   12.7869  -60.7603   34.5524 C   0  0  0  0  0  0  0  0  0  0  0  0
   14.0192  -60.1660   34.7766 C   0  0  0  0  0  0  0  0  0  0  0  0
   14.1765  -59.4404   35.9296 C   0  0  0  0  0  0  0  0  0  0  0  0
   13.1430  -59.3168   36.8185 C   0  0  0  0  0  0  0  0  0  0  0  0
   17.5992  -58.1296   30.6869 C   0  0  0  0  0  0  0  0  0  0  0  0
   18.3085  -57.2512   31.6885 C   0  0  0  0  0  0  0  0  0  0  0  0
   19.4738  -57.6484   31.9372 O   0  0  0  0  0  0  0  0  0  0  0  0
   17.6578  -56.1413   32.2239 N   0  0  0  0  0  0  0  0  0  0  0  0
   16.6599  -55.9795   31.8756 H   0  0  0  0  0  0  0  0  0  0  0  0
   18.1722  -55.2180   33.1677 C   0  0  0  0  0  0  0  0  0  0  0  0
   19.3664  -54.5476   33.0506 C   0  0  0  0  0  0  0  0  0  0  0  0
   19.8071  -53.6477   34.0309 C   0  0  0  0  0  0  0  0  0  0  0  0
   19.0606  -53.3948   35.1568 C   0  0  0  0  0  0  0  0  0  0  0  0
   17.8650  -54.0589   35.2838 C   0  0  0  0  0  0  0  0  0  0  0  0
   17.4328  -54.9456   34.3166 C   0  0  0  0  0  0  0  0  0  0  0  0
   19.5589  -52.4500   36.1508 C   0  0  0  0  0  0  0  0  0  0  0  0
   20.5475  -51.7366   35.8461 O   0  0  0  0  0  0  0  0  0  0  0  0
   19.0234  -52.2859   37.3976 O   0  0  0  0  0  0  0  0  0  0  0  0
   17.9772  -51.4244   37.7431 C   0  0  0  0  0  0  0  0  0  0  0  0
   16.9570  -52.2675   38.5209 C   0  0  0  0  0  0  0  0  0  0  0  0
 13 14  1  0  0  0
 14 15  2  0  0  0
 14 19  1  0  0  0
 15 16  1  0  0  0
 16 17  2  0  0  0
 17 18  1  0  0  0
 17  1  1  0  0  0
 18 19  2  0  0  0
  1  2  1  0  0  0
  1  9  1  0  0  0
  2  3  2  0  0  0
  2  4  1  0  0  0
  4  5  2  0  0  0
  4  8  1  0  0  0
  5  6  1  0  0  0
  5  9  1  0  0  0
  6  7  1  0  0  0
  7  8  1  0  0  0
  8 20  1  0  0  0
 20 21  1  0  0  0
 21 22  2  0  0  0
 21 23  1  0  0  0
 23 25  1  0  0  0
 25 26  2  0  0  0
 25 30  1  0  0  0
 26 27  1  0  0  0
 27 28  2  0  0  0
 28 29  1  0  0  0
 28 31  1  0  0  0
 29 30  2  0  0  0
 31 32  2  0  0  0
 31 33  1  0  0  0
 33 34  1  0  0  0
 34 35  1  0  0  0
  9 10  2  0  0  0
  6 11  1  0  0  0
  7 12  1  0  0  0
 23 24  1  0  0  0
M  END
> <minimizedAffinity>
-8.89075

$$$$
416


 33 36  0  0  0  0  0  0  0  0999 V2000
   16.8709  -57.3402   34.7198 N   0  0  0  0  0  0  0  0  0  0  0  0
   15.6803  -57.9619   34.4911 C   0  0  0  0  0  0  0  0  0  0  0  0
   14.5720  -57.4982   34.8514 O   0  0  0  0  0  0  0  0  0  0  0  0
   15.8669  -59.1510   33.8200 C   0  0  0  0  0  0  0  0  0  0  0  0
   17.1744  -59.2613   33.6357 C   0  0  0  0  0  0  0  0  0  0  0  0
   17.3877  -60.4175   32.9816 N   0  0  0  0  0  0  0  0  0  0  0  0
   16.2129  -60.9953   32.7763 N   0  0  0  0  0  0  0  0  0  0  0  0
   15.2540  -60.2418   33.2804 N   0  0  0  0  0  0  0  0  0  0  0  0
   17.7881  -58.1575   34.1832 C   0  0  0  0  0  0  0  0  0  0  0  0
   19.0353  -57.9117   34.1989 O   0  0  0  0  0  0  0  0  0  0  0  0
   18.2918  -60.8157   32.6739 H   0  0  0  0  0  0  0  0  0  0  0  0
   16.0761  -61.9232   32.2790 H   0  0  0  0  0  0  0  0  0  0  0  0
   17.8217  -52.0566   37.7577 Br  0  0  0  0  0  0  0  0  0  0  0  0
   17.5297  -53.6769   36.7928 C   0  0  0  0  0  0  0  0  0  0  0  0
   17.6935  -53.7576   35.4258 C   0  0  0  0  0  0  0  0  0  0  0  0
   17.4801  -54.9440   34.7404 C   0  0  0  0  0  0  0  0  0  0  0  0
   17.0950  -56.1009   35.3860 C   0  0  0  0  0  0  0  0  0  0  0  0
   16.9290  -56.0235   36.7570 C   0  0  0  0  0  0  0  0  0  0  0  0
   17.1405  -54.8433   37.4397 C   0  0  0  0  0  0  0  0  0  0  0  0
   13.8424  -60.4927   33.2907 C   0  0  0  0  0  0  0  0  0  0  0  0
   13.2808  -60.7058   34.6767 C   0  0  0  0  0  0  0  0  0  0  0  0
   13.2728  -61.8888   35.0806 O   0  0  0  0  0  0  0  0  0  0  0  0
   12.8083  -59.6479   35.4507 N   0  0  0  0  0  0  0  0  0  0  0  0
   12.8646  -58.6761   34.9832 H   0  0  0  0  0  0  0  0  0  0  0  0
   12.2661  -59.6458   36.7472 C   0  0  0  0  0  0  0  0  0  0  0  0
   10.9278  -59.9857   36.9454 C   0  0  0  0  0  0  0  0  0  0  0  0
   10.3541  -59.9796   38.1884 C   0  0  0  0  0  0  0  0  0  0  0  0
   11.1062  -59.6255   39.3095 C   0  0  0  0  0  0  0  0  0  0  0  0
   12.4204  -59.2973   39.0815 C   0  0  0  0  0  0  0  0  0  0  0  0
   13.0026  -59.3035   37.8354 C   0  0  0  0  0  0  0  0  0  0  0  0
   10.4889  -59.6288   40.5388 O   0  0  0  0  0  0  0  0  0  0  0  0
   10.5547  -60.6290   41.5027 C   0  0  0  0  0  0  0  0  0  0  0  0
   11.6034  -60.4175   42.5402 C   0  0  0  0  0  0  0  0  0  0  0  0
 13 14  1  0  0  0
 14 15  2  0  0  0
 14 19  1  0  0  0
 15 16  1  0  0  0
 16 17  2  0  0  0
 17 18  1  0  0  0
 17  1  1  0  0  0
 18 19  2  0  0  0
  1  2  1  0  0  0
  1  9  1  0  0  0
  2  3  2  0  0  0
  2  4  1  0  0  0
  4  5  2  0  0  0
  4  8  1  0  0  0
  5  6  1  0  0  0
  5  9  1  0  0  0
  6  7  1  0  0  0
  7  8  1  0  0  0
  8 20  1  0  0  0
 20 21  1  0  0  0
 21 22  2  0  0  0
 21 23  1  0  0  0
 23 25  1  0  0  0
 25 26  2  0  0  0
 25 30  1  0  0  0
 26 27  1  0  0  0
 27 28  2  0  0  0
 28 29  1  0  0  0
 28 31  1  0  0  0
 29 30  2  0  0  0
 31 32  1  0  0  0
 32 33  1  0  0  0
  9 10  2  0  0  0
  6 11  1  0  0  0
  7 12  1  0  0  0
 23 24  1  0  0  0
M  END
> <minimizedAffinity>
-8.49386

$$$$
421


 28 31  0  0  0  0  0  0  0  0999 V2000
   15.8366  -57.5713   35.9710 N   0  0  0  0  0  0  0  0  0  0  0  0
   16.5533  -56.4261   36.0030 C   0  0  0  0  0  0  0  0  0  0  0  0
   17.2799  -55.9401   35.0782 O   0  0  0  0  0  0  0  0  0  0  0  0
   16.4109  -55.7911   37.2231 C   0  0  0  0  0  0  0  0  0  0  0  0
   15.5926  -56.5752   37.9285 C   0  0  0  0  0  0  0  0  0  0  0  0
   15.4505  -55.9550   39.1247 N   0  0  0  0  0  0  0  0  0  0  0  0
   16.1670  -54.8434   39.1099 N   0  0  0  0  0  0  0  0  0  0  0  0
   16.7747  -54.7146   37.9423 N   0  0  0  0  0  0  0  0  0  0  0  0
   15.2357  -57.6690   37.1691 C   0  0  0  0  0  0  0  0  0  0  0  0
   14.4828  -58.6228   37.4878 O   0  0  0  0  0  0  0  0  0  0  0  0
   14.8608  -56.3209   39.9171 H   0  0  0  0  0  0  0  0  0  0  0  0
   16.2694  -54.1381   39.8854 H   0  0  0  0  0  0  0  0  0  0  0  0
   15.3369  -61.4639   31.2180 Br  0  0  0  0  0  0  0  0  0  0  0  0
   15.5166  -60.2590   32.6951 C   0  0  0  0  0  0  0  0  0  0  0  0
   16.7397  -60.0122   33.2839 C   0  0  0  0  0  0  0  0  0  0  0  0
   16.8550  -59.1339   34.3579 C   0  0  0  0  0  0  0  0  0  0  0  0
   15.7515  -58.4819   34.8670 C   0  0  0  0  0  0  0  0  0  0  0  0
   14.5351  -58.7383   34.2685 C   0  0  0  0  0  0  0  0  0  0  0  0
   14.4106  -59.6092   33.2024 C   0  0  0  0  0  0  0  0  0  0  0  0
   17.6389  -53.6458   37.5375 C   0  0  0  0  0  0  0  0  0  0  0  0
   18.8241  -53.8993   36.8782 C   0  0  0  0  0  0  0  0  0  0  0  0
   19.6819  -52.8846   36.4726 C   0  0  0  0  0  0  0  0  0  0  0  0
   19.3612  -51.5679   36.7258 C   0  0  0  0  0  0  0  0  0  0  0  0
   18.1777  -51.3116   37.3844 C   0  0  0  0  0  0  0  0  0  0  0  0
   17.3237  -52.3265   37.7872 C   0  0  0  0  0  0  0  0  0  0  0  0
   20.2207  -50.5052   36.3225 N   0  0  0  0  0  0  0  0  0  0  0  0
   21.4613  -50.6125   36.3400 O   0  0  0  0  0  0  0  0  0  0  0  0
   19.6759  -49.3327   35.9046 O   0  0  0  0  0  0  0  0  0  0  0  0
 13 14  1  0  0  0
 14 15  2  0  0  0
 14 19  1  0  0  0
 15 16  1  0  0  0
 16 17  2  0  0  0
 17 18  1  0  0  0
 17  1  1  0  0  0
 18 19  2  0  0  0
  1  2  1  0  0  0
  1  9  1  0  0  0
  2  3  2  0  0  0
  2  4  1  0  0  0
  4  5  2  0  0  0
  4  8  1  0  0  0
  5  6  1  0  0  0
  5  9  1  0  0  0
  6  7  1  0  0  0
  7  8  1  0  0  0
  8 20  1  0  0  0
 20 21  2  0  0  0
 20 25  1  0  0  0
 21 22  1  0  0  0
 22 23  2  0  0  0
 23 24  1  0  0  0
 23 26  1  0  0  0
 24 25  2  0  0  0
 26 27  2  0  0  0
 26 28  1  0  0  0
  9 10  2  0  0  0
  6 11  1  0  0  0
  7 12  1  0  0  0
M  CHG 1  28  -1
M  END
> <minimizedAffinity>
-9.01169

$$$$
425


 24 28  0  0  0  0  0  0  0  0999 V2000
   15.9968  -57.2385   36.1383 N   0  0  0  0  0  0  0  0  0  0  0  0
   16.7255  -58.2652   35.4835 C   0  0  0  0  0  0  0  0  0  0  0  0
   17.9771  -58.3021   35.4075 O   0  0  0  0  0  0  0  0  0  0  0  0
   15.7700  -59.2577   34.9224 C   0  0  0  0  0  0  0  0  0  0  0  0
   15.4387  -58.9769   33.4892 C   0  0  0  0  0  0  0  0  0  0  0  0
   14.1115  -59.4577   33.4350 O   0  0  0  0  0  0  0  0  0  0  0  0
   13.5769  -58.5934   34.4235 C   0  0  0  0  0  0  0  0  0  0  0  0
   14.4352  -58.9311   35.5936 C   0  0  0  0  0  0  0  0  0  0  0  0
   14.6827  -57.7190   36.4198 C   0  0  0  0  0  0  0  0  0  0  0  0
   13.8721  -57.2287   37.2104 O   0  0  0  0  0  0  0  0  0  0  0  0
   14.0251  -57.2885   33.8713 C   0  0  0  0  0  0  0  0  0  0  0  0
   15.2220  -57.5287   33.3445 C   0  0  0  0  0  0  0  0  0  0  0  0
   18.3857  -51.7663   37.3504 Br  0  0  0  0  0  0  0  0  0  0  0  0
   17.6410  -53.4716   36.9830 C   0  0  0  0  0  0  0  0  0  0  0  0
   17.1185  -54.2180   38.0113 C   0  0  0  0  0  0  0  0  0  0  0  0
   16.5831  -55.4522   37.7155 C   0  0  0  0  0  0  0  0  0  0  0  0
   16.5591  -55.9536   36.4328 C   0  0  0  0  0  0  0  0  0  0  0  0
   17.0860  -55.2002   35.3927 C   0  0  0  0  0  0  0  0  0  0  0  0
   17.6269  -53.9492   35.6964 C   0  0  0  0  0  0  0  0  0  0  0  0
   16.3178  -59.6097   32.4982 C   0  0  0  0  0  0  0  0  0  0  0  0
   15.6556  -60.1503   31.4302 O   0  0  0  0  0  0  0  0  0  0  0  0
   15.7465  -61.5179   31.5004 C   0  0  0  0  0  0  0  0  0  0  0  0
   16.5473  -61.8260   32.7226 C   0  0  0  0  0  0  0  0  0  0  0  0
   17.1037  -60.5981   33.0627 O   0  0  0  0  0  0  0  0  0  0  0  0
 13 14  1  0  0  0
 14 15  2  0  0  0
 14 19  1  0  0  0
 15 16  1  0  0  0
 16 17  2  0  0  0
 17 18  1  0  0  0
 17  1  1  0  0  0
 18 19  2  0  0  0
  1  2  1  0  0  0
  1  9  1  0  0  0
  2  3  2  0  0  0
  2  4  1  0  0  0
  4  5  1  0  0  0
  4  8  1  0  0  0
  5  6  1  0  0  0
  5 12  1  0  0  0
  5 20  1  0  0  0
  6  7  1  0  0  0
  7  8  1  0  0  0
  7 11  1  0  0  0
  8  9  1  0  0  0
  9 10  2  0  0  0
 11 12  2  0  0  0
 20 21  1  0  0  0
 20 24  1  0  0  0
 21 22  1  0  0  0
 22 23  1  0  0  0
 23 24  1  0  0  0
M  END
> <minimizedAffinity>
-8.43716

$$$$
426


 29 32  0  0  0  0  0  0  0  0999 V2000
   17.0038  -56.7009   33.6351 N   0  0  0  0  0  0  0  0  0  0  0  0
   17.4289  -56.4875   32.2751 C   0  0  0  0  0  0  0  0  0  0  0  0
   16.7027  -56.5713   31.2443 O   0  0  0  0  0  0  0  0  0  0  0  0
   18.8707  -56.1533   32.3240 C   0  0  0  0  0  0  0  0  0  0  0  0
   19.3019  -55.2088   31.3124 N   0  0  0  0  0  0  0  0  0  0  0  0
   20.2673  -54.4914   32.0846 N   0  0  0  0  0  0  0  0  0  0  0  0
   19.7428  -54.2949   33.3980 C   0  0  0  0  0  0  0  0  0  0  0  0
   18.8865  -55.2959   33.5691 C   0  0  0  0  0  0  0  0  0  0  0  0
   17.9207  -55.9521   34.4418 C   0  0  0  0  0  0  0  0  0  0  0  0
   17.9671  -55.8198   35.6962 O   0  0  0  0  0  0  0  0  0  0  0  0
   18.4936  -54.5333   31.2054 H   0  0  0  0  0  0  0  0  0  0  0  0
   21.1958  -54.1624   31.7562 H   0  0  0  0  0  0  0  0  0  0  0  0
   12.1369  -59.9105   35.5600 Br  0  0  0  0  0  0  0  0  0  0  0  0
   13.6786  -58.9162   34.9685 C   0  0  0  0  0  0  0  0  0  0  0  0
   13.5116  -57.8428   34.1313 C   0  0  0  0  0  0  0  0  0  0  0  0
   14.6092  -57.1549   33.7243 C   0  0  0  0  0  0  0  0  0  0  0  0
   15.9184  -57.4724   34.1063 C   0  0  0  0  0  0  0  0  0  0  0  0
   16.0586  -58.5472   34.9422 C   0  0  0  0  0  0  0  0  0  0  0  0
   14.9550  -59.2619   35.3688 C   0  0  0  0  0  0  0  0  0  0  0  0
   20.0681  -53.2415   34.3531 C   0  0  0  0  0  0  0  0  0  0  0  0
   20.4481  -52.1069   33.9802 O   0  0  0  0  0  0  0  0  0  0  0  0
   19.9764  -53.4335   35.7237 O   0  0  0  0  0  0  0  0  0  0  0  0
   19.8479  -52.3416   36.6239 C   0  0  0  0  0  0  0  0  0  0  0  0
   18.7279  -52.6205   37.5837 C   0  0  0  0  0  0  0  0  0  0  0  0
   18.7463  -53.7695   38.3727 C   0  0  0  0  0  0  0  0  0  0  0  0
   17.7483  -54.0589   39.2635 C   0  0  0  0  0  0  0  0  0  0  0  0
   16.6772  -53.1777   39.3856 C   0  0  0  0  0  0  0  0  0  0  0  0
   16.6628  -52.0438   38.6035 C   0  0  0  0  0  0  0  0  0  0  0  0
   17.6875  -51.7576   37.6986 C   0  0  0  0  0  0  0  0  0  0  0  0
 13 14  1  0  0  0
 14 15  2  0  0  0
 14 19  1  0  0  0
 15 16  1  0  0  0
 16 17  2  0  0  0
 17 18  1  0  0  0
 17  1  1  0  0  0
 18 19  2  0  0  0
  1  2  1  0  0  0
  1  9  1  0  0  0
  2  3  2  0  0  0
  2  4  1  0  0  0
  4  5  1  0  0  0
  4  8  1  0  0  0
  5  6  1  0  0  0
  6  7  1  0  0  0
  7  8  2  0  0  0
  7 20  1  0  0  0
  8  9  1  0  0  0
  9 10  2  0  0  0
 20 21  2  0  0  0
 20 22  1  0  0  0
 22 23  1  0  0  0
 23 24  1  0  0  0
 24 25  2  0  0  0
 24 29  1  0  0  0
 25 26  1  0  0  0
 26 27  2  0  0  0
 27 28  1  0  0  0
 28 29  2  0  0  0
  5 11  1  0  0  0
  6 12  1  0  0  0
M  END
> <minimizedAffinity>
-10.45503

$$$$
428


 28 31  0  0  0  0  0  0  0  0999 V2000
   15.2992  -57.1897   35.0793 N   0  0  0  0  0  0  0  0  0  0  0  0
   15.0035  -57.3388   33.6782 C   0  0  0  0  0  0  0  0  0  0  0  0
   14.0635  -58.1004   33.3191 O   0  0  0  0  0  0  0  0  0  0  0  0
   15.7987  -56.6083   32.7722 N   0  0  0  0  0  0  0  0  0  0  0  0
   16.7470  -55.8370   33.1100 C   0  0  0  0  0  0  0  0  0  0  0  0
   17.1942  -55.5598   34.4975 C   0  0  0  0  0  0  0  0  0  0  0  0
   18.6508  -55.8599   34.5854 C   0  0  0  0  0  0  0  0  0  0  0  0
   19.4030  -55.1347   35.5438 N   0  0  0  0  0  0  0  0  0  0  0  0
   18.6570  -54.3874   36.4774 C   0  0  0  0  0  0  0  0  0  0  0  0
   17.4357  -53.8092   36.1097 C   0  0  0  0  0  0  0  0  0  0  0  0
   16.7266  -53.0882   37.0287 C   0  0  0  0  0  0  0  0  0  0  0  0
   17.1414  -52.8863   38.3253 C   0  0  0  0  0  0  0  0  0  0  0  0
   18.3444  -53.4581   38.6830 C   0  0  0  0  0  0  0  0  0  0  0  0
   19.0883  -54.1959   37.7718 C   0  0  0  0  0  0  0  0  0  0  0  0
   16.3434  -52.0993   39.2945 C   0  0  0  0  0  0  0  0  0  0  0  0
   17.0248  -54.0517   34.7023 C   0  0  0  0  0  0  0  0  0  0  0  0
   20.4367  -54.2912   34.9204 C   0  0  0  0  0  0  0  0  0  0  0  0
   16.3651  -56.3234   35.4542 C   0  0  0  0  0  0  0  0  0  0  0  0
   16.5756  -56.2378   36.7092 O   0  0  0  0  0  0  0  0  0  0  0  0
   17.4622  -55.1652   32.0955 O   0  0  0  0  0  0  0  0  0  0  0  0
   19.9615  -55.8407   36.1108 H   0  0  0  0  0  0  0  0  0  0  0  0
   12.0067  -59.9505   39.4275 Br  0  0  0  0  0  0  0  0  0  0  0  0
   13.0372  -59.1277   38.0495 C   0  0  0  0  0  0  0  0  0  0  0  0
   13.3059  -57.7877   38.1284 C   0  0  0  0  0  0  0  0  0  0  0  0
   14.0559  -57.1817   37.1277 C   0  0  0  0  0  0  0  0  0  0  0  0
   14.5404  -57.8918   36.0525 C   0  0  0  0  0  0  0  0  0  0  0  0
   14.2581  -59.2386   35.9929 C   0  0  0  0  0  0  0  0  0  0  0  0
   13.5131  -59.8660   36.9777 C   0  0  0  0  0  0  0  0  0  0  0  0
 22 23  1  0  0  0
 23 24  2  0  0  0
 23 28  1  0  0  0
 24 25  1  0  0  0
 25 26  2  0  0  0
 26 27  1  0  0  0
 26  1  1  0  0  0
 27 28  2  0  0  0
  1  2  1  0  0  0
  1 18  1  0  0  0
  2  3  2  0  0  0
  2  4  1  0  0  0
  4  5  2  0  0  0
  5  6  1  0  0  0
  5 20  1  0  0  0
  6  7  1  0  0  0
  6 16  1  0  0  0
  6 18  1  0  0  0
  7  8  1  0  0  0
  8  9  1  0  0  0
  8 17  1  0  0  0
  9 10  2  0  0  0
  9 14  1  0  0  0
 10 11  1  0  0  0
 10 16  1  0  0  0
 11 12  2  0  0  0
 12 13  1  0  0  0
 12 15  1  0  0  0
 13 14  2  0  0  0
 18 19  2  0  0  0
  8 21  1  0  0  0
M  CHG 1   8   1
M  CHG 1  20  -1
M  END
> <minimizedAffinity>
-10.84068

$$$$
429


 36 39  0  0  0  0  0  0  0  0999 V2000
   19.2655  -54.9688   33.6271 N   0  0  0  0  0  0  0  0  0  0  0  0
   19.9368  -54.0252   32.7901 C   0  0  0  0  0  0  0  0  0  0  0  0
   20.1905  -52.8803   33.2837 O   0  0  0  0  0  0  0  0  0  0  0  0
   20.2898  -54.3860   31.4668 N   0  0  0  0  0  0  0  0  0  0  0  0
   20.0156  -55.6607   30.8937 C   0  0  0  0  0  0  0  0  0  0  0  0
   20.3435  -55.9538   29.7101 O   0  0  0  0  0  0  0  0  0  0  0  0
   19.3247  -56.6591   31.7292 C   0  0  0  0  0  0  0  0  0  0  0  0
   19.0403  -57.8616   31.2532 C   0  0  0  0  0  0  0  0  0  0  0  0
   18.9750  -56.2570   33.0868 C   0  0  0  0  0  0  0  0  0  0  0  0
   18.3841  -57.0755   33.8372 O   0  0  0  0  0  0  0  0  0  0  0  0
   20.7807  -53.6660   30.8874 H   0  0  0  0  0  0  0  0  0  0  0  0
   17.6089  -53.3869   39.3092 Br  0  0  0  0  0  0  0  0  0  0  0  0
   18.1395  -53.8826   37.5379 C   0  0  0  0  0  0  0  0  0  0  0  0
   17.2161  -53.9234   36.5068 C   0  0  0  0  0  0  0  0  0  0  0  0
   17.6082  -54.2816   35.2314 C   0  0  0  0  0  0  0  0  0  0  0  0
   18.9155  -54.6102   34.9337 C   0  0  0  0  0  0  0  0  0  0  0  0
   19.8472  -54.5747   35.9497 C   0  0  0  0  0  0  0  0  0  0  0  0
   19.4381  -54.2139   37.2176 C   0  0  0  0  0  0  0  0  0  0  0  0
   18.3732  -58.8021   32.0828 N   0  0  0  0  0  0  0  0  0  0  0  0
   18.9155  -59.1215   32.9308 H   0  0  0  0  0  0  0  0  0  0  0  0
   17.1040  -59.3097   31.8582 N   0  0  0  0  0  0  0  0  0  0  0  0
   16.9268  -59.6450   30.8666 H   0  0  0  0  0  0  0  0  0  0  0  0
   16.0814  -59.3945   32.8434 C   0  0  0  0  0  0  0  0  0  0  0  0
   15.0199  -60.2051   32.7837 N   0  0  0  0  0  0  0  0  0  0  0  0
   14.2602  -60.0310   33.8777 C   0  0  0  0  0  0  0  0  0  0  0  0
   14.8789  -59.0636   34.6580 C   0  0  0  0  0  0  0  0  0  0  0  0
   15.9742  -58.7143   33.9855 N   0  0  0  0  0  0  0  0  0  0  0  0
   14.3570  -58.6630   35.8312 N   0  0  0  0  0  0  0  0  0  0  0  0
   13.2166  -59.2120   36.2501 C   0  0  0  0  0  0  0  0  0  0  0  0
   12.6910  -58.8625   37.3514 O   0  0  0  0  0  0  0  0  0  0  0  0
   12.5586  -60.1644   35.5361 N   0  0  0  0  0  0  0  0  0  0  0  0
   13.0920  -60.5601   34.3566 C   0  0  0  0  0  0  0  0  0  0  0  0
   12.4906  -61.4333   33.6977 O   0  0  0  0  0  0  0  0  0  0  0  0
   11.3297  -60.7287   36.0330 C   0  0  0  0  0  0  0  0  0  0  0  0
   15.0522  -57.6590   36.5808 C   0  0  0  0  0  0  0  0  0  0  0  0
   14.6476  -61.1684   31.7415 C   0  0  0  0  0  0  0  0  0  0  0  0
 12 13  1  0  0  0
 13 14  2  0  0  0
 13 18  1  0  0  0
 14 15  1  0  0  0
 15 16  2  0  0  0
 16 17  1  0  0  0
 16  1  1  0  0  0
 17 18  2  0  0  0
  1  2  1  0  0  0
  1  9  1  0  0  0
  2  3  2  0  0  0
  2  4  1  0  0  0
  4  5  1  0  0  0
  5  6  2  0  0  0
  5  7  1  0  0  0
  7  8  2  0  0  0
  7  9  1  0  0  0
  8 19  1  0  0  0
 19 21  1  0  0  0
 21 23  1  0  0  0
 23 24  1  0  0  0
 23 27  2  0  0  0
 24 25  1  0  0  0
 24 36  1  0  0  0
 25 26  2  0  0  0
 25 32  1  0  0  0
 26 27  1  0  0  0
 26 28  1  0  0  0
 28 29  1  0  0  0
 28 35  1  0  0  0
 29 30  2  0  0  0
 29 31  1  0  0  0
 31 32  1  0  0  0
 31 34  1  0  0  0
 32 33  2  0  0  0
  9 10  2  0  0  0
  4 11  1  0  0  0
 19 20  1  0  0  0
 21 22  1  0  0  0
M  END
> <minimizedAffinity>
-10.10382

$$$$
436


 29 32  0  0  0  0  0  0  0  0999 V2000
   17.8123  -56.2472   34.9850 N   0  0  0  0  0  0  0  0  0  0  0  0
   18.5213  -57.0544   34.0122 C   0  0  0  0  0  0  0  0  0  0  0  0
   17.8267  -58.3621   33.7118 C   0  0  0  0  0  0  0  0  0  0  0  0
   16.3338  -58.0424   33.5387 C   0  0  0  0  0  0  0  0  0  0  0  0
   15.8710  -57.7038   34.8592 N   0  0  0  0  0  0  0  0  0  0  0  0
   16.6334  -56.8045   35.5525 C   0  0  0  0  0  0  0  0  0  0  0  0
   16.0663  -56.6038   36.7534 N   0  0  0  0  0  0  0  0  0  0  0  0
   14.9551  -57.3814   36.7909 C   0  0  0  0  0  0  0  0  0  0  0  0
   14.8236  -58.0784   35.5997 C   0  0  0  0  0  0  0  0  0  0  0  0
   13.7633  -58.9404   35.4009 C   0  0  0  0  0  0  0  0  0  0  0  0
   13.6784  -59.5632   34.2896 O   0  0  0  0  0  0  0  0  0  0  0  0
   12.8515  -59.1000   36.3764 N   0  0  0  0  0  0  0  0  0  0  0  0
   13.0027  -58.4118   37.5214 C   0  0  0  0  0  0  0  0  0  0  0  0
   12.1256  -58.5909   38.4091 O   0  0  0  0  0  0  0  0  0  0  0  0
   14.0178  -57.5751   37.7354 N   0  0  0  0  0  0  0  0  0  0  0  0
   14.1505  -56.8461   38.9882 C   0  0  0  0  0  0  0  0  0  0  0  0
   20.2327  -50.7833   36.1632 Br  0  0  0  0  0  0  0  0  0  0  0  0
   19.4428  -52.4654   35.8426 C   0  0  0  0  0  0  0  0  0  0  0  0
   18.3667  -52.9249   36.5726 C   0  0  0  0  0  0  0  0  0  0  0  0
   17.7994  -54.1742   36.3161 C   0  0  0  0  0  0  0  0  0  0  0  0
   18.3153  -54.9694   35.3184 C   0  0  0  0  0  0  0  0  0  0  0  0
   19.3886  -54.4784   34.6111 C   0  0  0  0  0  0  0  0  0  0  0  0
   19.9651  -53.2583   34.8404 C   0  0  0  0  0  0  0  0  0  0  0  0
   11.7318  -60.0036   36.1765 C   0  0  0  0  0  0  0  0  0  0  0  0
   12.1534  -61.3835   36.5868 C   0  0  0  0  0  0  0  0  0  0  0  0
   12.3388  -62.2753   35.7262 O   0  0  0  0  0  0  0  0  0  0  0  0
   12.3535  -61.7181   37.9454 N   0  0  0  0  0  0  0  0  0  0  0  0
   13.1059  -62.3712   38.2615 H   0  0  0  0  0  0  0  0  0  0  0  0
   11.7453  -61.3173   38.7017 H   0  0  0  0  0  0  0  0  0  0  0  0
 17 18  1  0  0  0
 18 19  2  0  0  0
 18 23  1  0  0  0
 19 20  1  0  0  0
 20 21  2  0  0  0
 21 22  1  0  0  0
 21  1  1  0  0  0
 22 23  2  0  0  0
  1  2  1  0  0  0
  1  6  1  0  0  0
  2  3  1  0  0  0
  3  4  1  0  0  0
  4  5  1  0  0  0
  5  6  1  0  0  0
  5  9  1  0  0  0
  6  7  2  0  0  0
  7  8  1  0  0  0
  8  9  2  0  0  0
  8 15  1  0  0  0
  9 10  1  0  0  0
 10 11  2  0  0  0
 10 12  1  0  0  0
 12 13  1  0  0  0
 12 24  1  0  0  0
 13 14  2  0  0  0
 13 15  1  0  0  0
 15 16  1  0  0  0
 24 25  1  0  0  0
 25 26  2  0  0  0
 25 27  1  0  0  0
 27 28  1  0  0  0
 27 29  1  0  0  0
M  END
> <minimizedAffinity>
-8.86453

$$$$
439


 28 32  0  0  0  0  0  0  0  0999 V2000
   16.8182  -54.6433   37.7838 N   0  0  0  0  0  0  0  0  0  0  0  0
   16.0071  -54.6824   38.8355 N   0  0  0  0  0  0  0  0  0  0  0  0
   15.3587  -55.8607   38.8864 C   0  0  0  0  0  0  0  0  0  0  0  0
   14.4764  -56.2332   39.8048 C   0  0  0  0  0  0  0  0  0  0  0  0
   15.7657  -56.6316   37.8168 C   0  0  0  0  0  0  0  0  0  0  0  0
   15.3780  -57.8656   37.4828 C   0  0  0  0  0  0  0  0  0  0  0  0
   16.6804  -55.8282   37.1527 C   0  0  0  0  0  0  0  0  0  0  0  0
   17.2845  -56.1725   36.1111 O   0  0  0  0  0  0  0  0  0  0  0  0
   15.8895  -53.9108   39.5219 H   0  0  0  0  0  0  0  0  0  0  0  0
   20.4688  -50.0065   36.0692 Br  0  0  0  0  0  0  0  0  0  0  0  0
   19.3120  -51.4408   36.6199 C   0  0  0  0  0  0  0  0  0  0  0  0
   18.2449  -51.2284   37.4404 C   0  0  0  0  0  0  0  0  0  0  0  0
   17.4301  -52.2932   37.8168 C   0  0  0  0  0  0  0  0  0  0  0  0
   17.6717  -53.5790   37.3796 C   0  0  0  0  0  0  0  0  0  0  0  0
   18.7592  -53.7559   36.5518 C   0  0  0  0  0  0  0  0  0  0  0  0
   19.5799  -52.7214   36.1647 C   0  0  0  0  0  0  0  0  0  0  0  0
   15.9503  -58.4510   36.3193 N   0  0  0  0  0  0  0  0  0  0  0  0
   16.9768  -58.4408   36.2295 H   0  0  0  0  0  0  0  0  0  0  0  0
   15.1483  -59.0437   35.2882 C   0  0  0  0  0  0  0  0  0  0  0  0
   15.8646  -60.1910   34.6501 C   0  0  0  0  0  0  0  0  0  0  0  0
   14.9815  -60.8238   33.6806 N   0  0  0  0  0  0  0  0  0  0  0  0
   13.8027  -61.2955   34.3969 C   0  0  0  0  0  0  0  0  0  0  0  0
   13.0511  -60.2039   34.9664 N   0  0  0  0  0  0  0  0  0  0  0  0
   12.7283  -59.2368   33.9218 C   0  0  0  0  0  0  0  0  0  0  0  0
   13.9163  -58.7460   33.2608 N   0  0  0  0  0  0  0  0  0  0  0  0
   14.6209  -59.8608   32.6715 C   0  0  0  0  0  0  0  0  0  0  0  0
   14.7697  -58.0629   34.2032 C   0  0  0  0  0  0  0  0  0  0  0  0
   13.8562  -59.5306   35.9517 C   0  0  0  0  0  0  0  0  0  0  0  0
 10 11  1  0  0  0
 11 12  2  0  0  0
 11 16  1  0  0  0
 12 13  1  0  0  0
 13 14  2  0  0  0
 14 15  1  0  0  0
 14  1  1  0  0  0
 15 16  2  0  0  0
  1  2  1  0  0  0
  1  7  1  0  0  0
  2  3  1  0  0  0
  3  4  2  0  0  0
  3  5  1  0  0  0
  5  6  2  0  0  0
  5  7  1  0  0  0
  6 17  1  0  0  0
 17 19  1  0  0  0
 19 20  1  0  0  0
 19 27  1  0  0  0
 19 28  1  0  0  0
 20 21  1  0  0  0
 21 22  1  0  0  0
 21 26  1  0  0  0
 22 23  1  0  0  0
 23 24  1  0  0  0
 23 28  1  0  0  0
 24 25  1  0  0  0
 25 26  1  0  0  0
 25 27  1  0  0  0
  7  8  2  0  0  0
  2  9  1  0  0  0
 17 18  1  0  0  0
M  END
> <minimizedAffinity>
-8.72192

$$$$
441


 36 39  0  0  0  0  0  0  0  0999 V2000
   14.6115  -58.5483   36.9368 C   0  0  0  0  0  0  0  0  0  0  0  0
   15.3998  -58.5807   35.8464 N   0  0  0  0  0  0  0  0  0  0  0  0
   15.0079  -59.2514   34.7756 C   0  0  0  0  0  0  0  0  0  0  0  0
   15.6069  -59.4290   33.5907 N   0  0  0  0  0  0  0  0  0  0  0  0
   14.7635  -60.2001   32.8673 C   0  0  0  0  0  0  0  0  0  0  0  0
   13.6742  -60.4899   33.5851 N   0  0  0  0  0  0  0  0  0  0  0  0
   13.7775  -59.9195   34.7870 C   0  0  0  0  0  0  0  0  0  0  0  0
   12.9626  -59.8907   35.9034 C   0  0  0  0  0  0  0  0  0  0  0  0
   13.4101  -59.1975   36.9538 N   0  0  0  0  0  0  0  0  0  0  0  0
   11.7543  -60.5708   35.8597 O   0  0  0  0  0  0  0  0  0  0  0  0
   11.2238  -60.4773   34.9863 H   0  0  0  0  0  0  0  0  0  0  0  0
   16.8438  -58.9634   33.0921 C   0  0  0  0  0  0  0  0  0  0  0  0
   17.1565  -57.6871   33.5785 O   0  0  0  0  0  0  0  0  0  0  0  0
   16.7637  -56.8572   32.5317 C   0  0  0  0  0  0  0  0  0  0  0  0
   17.4736  -57.5337   31.3684 C   0  0  0  0  0  0  0  0  0  0  0  0
   17.0438  -58.9741   31.6359 C   0  0  0  0  0  0  0  0  0  0  0  0
   18.0718  -59.8617   31.2463 O   0  0  0  0  0  0  0  0  0  0  0  0
   17.0858  -57.0682   30.1435 O   0  0  0  0  0  0  0  0  0  0  0  0
   18.0270  -59.8979   30.2581 H   0  0  0  0  0  0  0  0  0  0  0  0
   16.7843  -56.1043   30.1608 H   0  0  0  0  0  0  0  0  0  0  0  0
   17.2137  -55.4378   32.7224 C   0  0  0  0  0  0  0  0  0  0  0  0
   17.4740  -54.7764   31.5531 O   0  0  0  0  0  0  0  0  0  0  0  0
   16.6400  -54.3316   31.2504 H   0  0  0  0  0  0  0  0  0  0  0  0
   14.4276  -56.6073   38.4830 C   0  0  0  0  0  0  0  0  0  0  0  0
   13.5444  -56.0881   37.7780 O   0  0  0  0  0  0  0  0  0  0  0  0
   15.0013  -57.8399   38.1112 N   0  0  0  0  0  0  0  0  0  0  0  0
   15.7547  -58.2830   38.7120 H   0  0  0  0  0  0  0  0  0  0  0  0
   14.8806  -55.9321   39.7130 C   0  0  0  0  0  0  0  0  0  0  0  0
   14.9375  -54.5405   39.5891 O   0  0  0  0  0  0  0  0  0  0  0  0
   19.5815  -51.9573   36.6252 Br  0  0  0  0  0  0  0  0  0  0  0  0
   18.1191  -52.7800   37.5584 C   0  0  0  0  0  0  0  0  0  0  0  0
   17.2047  -51.9929   38.2231 C   0  0  0  0  0  0  0  0  0  0  0  0
   16.1407  -52.5927   38.9023 C   0  0  0  0  0  0  0  0  0  0  0  0
   15.9903  -53.9590   38.9172 C   0  0  0  0  0  0  0  0  0  0  0  0
   16.9117  -54.7260   38.2481 C   0  0  0  0  0  0  0  0  0  0  0  0
   17.9646  -54.1508   37.5755 C   0  0  0  0  0  0  0  0  0  0  0  0
 30 31  1  0  0  0
 31 32  2  0  0  0
 31 36  1  0  0  0
 32 33  1  0  0  0
 33 34  2  0  0  0
 34 35  1  0  0  0
 34 29  1  0  0  0
 35 36  2  0  0  0
 29 28  1  0  0  0
 28 24  1  0  0  0
 24 25  2  0  0  0
 24 26  1  0  0  0
 26  1  1  0  0  0
  1  2  2  0  0  0
  1  9  1  0  0  0
  2  3  1  0  0  0
  3  4  1  0  0  0
  3  7  2  0  0  0
  4  5  1  0  0  0
  4 12  1  0  0  0
  5  6  2  0  0  0
  6  7  1  0  0  0
  7  8  1  0  0  0
  8  9  2  0  0  0
  8 10  1  0  0  0
 12 13  1  0  0  0
 12 16  1  0  0  0
 13 14  1  0  0  0
 14 15  1  0  0  0
 14 21  1  0  0  0
 15 16  1  0  0  0
 15 18  1  0  0  0
 16 17  1  0  0  0
 21 22  1  0  0  0
 26 27  1  0  0  0
 10 11  1  0  0  0
 17 19  1  0  0  0
 18 20  1  0  0  0
 22 23  1  0  0  0
M  END
> <minimizedAffinity>
-9.91153

$$$$
444


 33 36  0  0  0  0  0  0  0  0999 V2000
   14.1914  -58.7369   35.1416 N   0  0  0  0  0  0  0  0  0  0  0  0
   13.3772  -59.7823   34.8676 C   0  0  0  0  0  0  0  0  0  0  0  0
   13.9365  -60.5105   33.8424 C   0  0  0  0  0  0  0  0  0  0  0  0
   15.0528  -59.8818   33.5378 N   0  0  0  0  0  0  0  0  0  0  0  0
   15.2502  -58.7728   34.3175 C   0  0  0  0  0  0  0  0  0  0  0  0
   13.3757  -61.6364   33.3123 N   0  0  0  0  0  0  0  0  0  0  0  0
   12.2151  -62.0444   33.8279 C   0  0  0  0  0  0  0  0  0  0  0  0
   11.6831  -63.0833   33.3512 O   0  0  0  0  0  0  0  0  0  0  0  0
   11.6459  -61.3549   34.8255 N   0  0  0  0  0  0  0  0  0  0  0  0
   12.1776  -60.2362   35.3714 C   0  0  0  0  0  0  0  0  0  0  0  0
   11.6272  -59.6177   36.2939 O   0  0  0  0  0  0  0  0  0  0  0  0
   14.0532  -62.3479   32.2277 C   0  0  0  0  0  0  0  0  0  0  0  0
   10.7402  -61.7043   35.2017 H   0  0  0  0  0  0  0  0  0  0  0  0
   16.3557  -57.8648   34.1481 N   0  0  0  0  0  0  0  0  0  0  0  0
   15.9993  -56.6363   33.4041 C   0  0  0  0  0  0  0  0  0  0  0  0
   17.0070  -55.5614   33.4725 C   0  0  0  0  0  0  0  0  0  0  0  0
   18.3638  -56.0465   33.5103 N   0  0  0  0  0  0  0  0  0  0  0  0
   18.4850  -56.7898   34.7244 C   0  0  0  0  0  0  0  0  0  0  0  0
   17.6546  -58.0722   34.6829 C   0  0  0  0  0  0  0  0  0  0  0  0
   18.7331  -56.7446   32.3234 C   0  0  0  0  0  0  0  0  0  0  0  0
   13.9974  -57.7609   36.1919 C   0  0  0  0  0  0  0  0  0  0  0  0
   14.5802  -58.1231   37.5267 C   0  0  0  0  0  0  0  0  0  0  0  0
   14.2613  -59.4351   37.9046 O   0  0  0  0  0  0  0  0  0  0  0  0
   14.9548  -59.7598   38.5649 H   0  0  0  0  0  0  0  0  0  0  0  0
   14.2398  -57.2296   38.6771 C   0  0  0  0  0  0  0  0  0  0  0  0
   15.0441  -56.2035   38.8584 O   0  0  0  0  0  0  0  0  0  0  0  0
   18.3148  -51.4015   37.3934 Br  0  0  0  0  0  0  0  0  0  0  0  0
   17.2800  -52.9267   37.8539 C   0  0  0  0  0  0  0  0  0  0  0  0
   17.5480  -54.1194   37.2381 C   0  0  0  0  0  0  0  0  0  0  0  0
   16.8000  -55.2282   37.5689 C   0  0  0  0  0  0  0  0  0  0  0  0
   15.7851  -55.1820   38.5035 C   0  0  0  0  0  0  0  0  0  0  0  0
   15.5323  -53.9359   39.1204 C   0  0  0  0  0  0  0  0  0  0  0  0
   16.2706  -52.8484   38.7918 C   0  0  0  0  0  0  0  0  0  0  0  0
 27 28  1  0  0  0
 28 29  2  0  0  0
 28 33  1  0  0  0
 29 30  1  0  0  0
 30 31  2  0  0  0
 31 32  1  0  0  0
 31 26  1  0  0  0
 32 33  2  0  0  0
 26 25  1  0  0  0
 25 22  1  0  0  0
 22 23  1  0  0  0
 22 21  1  0  0  0
 21  1  1  0  0  0
  1  2  1  0  0  0
  1  5  1  0  0  0
  2  3  2  0  0  0
  2 10  1  0  0  0
  3  4  1  0  0  0
  3  6  1  0  0  0
  4  5  2  0  0  0
  5 14  1  0  0  0
 14 15  1  0  0  0
 14 19  1  0  0  0
 15 16  1  0  0  0
 16 17  1  0  0  0
 17 18  1  0  0  0
 17 20  1  0  0  0
 18 19  1  0  0  0
  6  7  1  0  0  0
  6 12  1  0  0  0
  7  8  2  0  0  0
  7  9  1  0  0  0
  9 10  1  0  0  0
 10 11  2  0  0  0
 23 24  1  0  0  0
  9 13  1  0  0  0
M  END
> <minimizedAffinity>
-8.96213

$$$$
454


 21 25  0  0  0  0  0  0  0  0999 V2000
   18.2319  -55.7880   35.4676 C   0  0  0  0  0  0  0  0  0  0  0  0
   17.9054  -54.9694   32.4445 Br  0  0  0  0  0  0  0  0  0  0  0  0
   16.8377  -56.1680   33.4855 C   0  0  0  0  0  0  0  0  0  0  0  0
   15.7068  -56.7474   32.9407 C   0  0  0  0  0  0  0  0  0  0  0  0
   14.9231  -57.6094   33.6808 C   0  0  0  0  0  0  0  0  0  0  0  0
   15.1793  -57.9546   34.9867 C   0  0  0  0  0  0  0  0  0  0  0  0
   16.2987  -57.3768   35.5202 C   0  0  0  0  0  0  0  0  0  0  0  0
   17.1300  -56.4999   34.8194 C   0  0  0  0  0  0  0  0  0  0  0  0
   14.1535  -58.8159   35.3411 O   0  0  0  0  0  0  0  0  0  0  0  0
   12.9944  -58.4787   34.5294 C   0  0  0  0  0  0  0  0  0  0  0  0
   13.7311  -58.2893   33.2839 O   0  0  0  0  0  0  0  0  0  0  0  0
   17.9714  -54.7175   36.3363 N   0  0  0  0  0  0  0  0  0  0  0  0
   19.3721  -54.2362   36.6164 C   0  0  0  0  0  0  0  0  0  0  0  0
   19.4821  -53.3485   37.6951 N   0  0  0  0  0  0  0  0  0  0  0  0
   18.9240  -54.0121   38.8605 C   0  0  0  0  0  0  0  0  0  0  0  0
   17.5187  -54.2114   38.6060 N   0  0  0  0  0  0  0  0  0  0  0  0
   17.3089  -55.1611   37.5615 C   0  0  0  0  0  0  0  0  0  0  0  0
   16.8027  -52.9784   38.2588 C   0  0  0  0  0  0  0  0  0  0  0  0
   17.3699  -52.4964   37.0099 N   0  0  0  0  0  0  0  0  0  0  0  0
   17.2891  -53.5225   35.9486 C   0  0  0  0  0  0  0  0  0  0  0  0
   18.7373  -52.1445   37.3092 C   0  0  0  0  0  0  0  0  0  0  0  0
  2  3  1  0  0  0
  3  4  2  0  0  0
  3  8  1  0  0  0
  4  5  1  0  0  0
  5  6  2  0  0  0
  5 11  1  0  0  0
  6  7  1  0  0  0
  6  9  1  0  0  0
  7  8  2  0  0  0
  8  1  1  0  0  0
  1 12  1  0  0  0
 12 13  1  0  0  0
 12 17  1  0  0  0
 12 20  1  0  0  0
 13 14  1  0  0  0
 14 15  1  0  0  0
 14 21  1  0  0  0
 15 16  1  0  0  0
 16 17  1  0  0  0
 16 18  1  0  0  0
 18 19  1  0  0  0
 19 20  1  0  0  0
 19 21  1  0  0  0
  9 10  1  0  0  0
 10 11  1  0  0  0
M  CHG 1  12   1
M  END
> <minimizedAffinity>
-7.77671

$$$$
455


 26 29  0  0  0  0  0  0  0  0999 V2000
   18.6770  -53.4502   36.4705 N   0  0  0  0  0  0  0  0  0  0  0  0
   19.3064  -54.0444   37.6786 C   0  0  0  0  0  0  0  0  0  0  0  0
   18.3968  -53.5757   38.8094 C   0  0  0  0  0  0  0  0  0  0  0  0
   17.4739  -52.5713   38.4262 N   0  0  0  0  0  0  0  0  0  0  0  0
   18.0861  -51.4902   37.6990 C   0  0  0  0  0  0  0  0  0  0  0  0
   18.9886  -52.0282   36.6275 C   0  0  0  0  0  0  0  0  0  0  0  0
   19.3165  -53.9847   35.2842 C   0  0  0  0  0  0  0  0  0  0  0  0
   19.9482  -54.3170   32.3051 Br  0  0  0  0  0  0  0  0  0  0  0  0
   18.5678  -55.2408   33.2481 C   0  0  0  0  0  0  0  0  0  0  0  0
   17.7657  -56.1492   32.5961 C   0  0  0  0  0  0  0  0  0  0  0  0
   16.7700  -56.8215   33.2601 C   0  0  0  0  0  0  0  0  0  0  0  0
   16.5989  -56.5616   34.5903 C   0  0  0  0  0  0  0  0  0  0  0  0
   17.4131  -55.6407   35.2474 C   0  0  0  0  0  0  0  0  0  0  0  0
   18.4202  -54.9524   34.6034 C   0  0  0  0  0  0  0  0  0  0  0  0
   15.5992  -57.2302   35.2790 O   0  0  0  0  0  0  0  0  0  0  0  0
   14.5788  -57.9625   34.6511 C   0  0  0  0  0  0  0  0  0  0  0  0
   15.0453  -58.5535   33.3593 C   0  0  0  0  0  0  0  0  0  0  0  0
   15.9408  -57.7459   32.6386 O   0  0  0  0  0  0  0  0  0  0  0  0
   16.1977  -52.9772   37.9733 C   0  0  0  0  0  0  0  0  0  0  0  0
   15.5576  -54.0460   38.7172 C   0  0  0  0  0  0  0  0  0  0  0  0
   15.0310  -53.8325   39.8296 O   0  0  0  0  0  0  0  0  0  0  0  0
   15.5092  -55.3625   38.2034 N   0  0  0  0  0  0  0  0  0  0  0  0
   15.9308  -55.6234   37.2657 H   0  0  0  0  0  0  0  0  0  0  0  0
   14.8755  -56.4610   38.9224 C   0  0  0  0  0  0  0  0  0  0  0  0
   14.9731  -57.8403   38.4188 C   0  0  0  0  0  0  0  0  0  0  0  0
   13.6904  -57.0964   38.2003 C   0  0  0  0  0  0  0  0  0  0  0  0
  8  9  1  0  0  0
  9 10  2  0  0  0
  9 14  1  0  0  0
 10 11  1  0  0  0
 11 12  2  0  0  0
 11 18  1  0  0  0
 12 13  1  0  0  0
 12 15  1  0  0  0
 13 14  2  0  0  0
 14  7  1  0  0  0
  7  1  1  0  0  0
  1  2  1  0  0  0
  1  6  1  0  0  0
  2  3  1  0  0  0
  3  4  1  0  0  0
  4  5  1  0  0  0
  4 19  1  0  0  0
  5  6  1  0  0  0
 19 20  1  0  0  0
 20 21  2  0  0  0
 20 22  1  0  0  0
 22 24  1  0  0  0
 24 25  1  0  0  0
 24 26  1  0  0  0
 25 26  1  0  0  0
 15 16  1  0  0  0
 16 17  1  0  0  0
 17 18  1  0  0  0
 22 23  1  0  0  0
M  END
> <minimizedAffinity>
-8.55954

$$$$
459


 29 32  0  0  0  0  0  0  0  0999 V2000
   18.5559  -55.2970   34.1204 C   0  0  0  0  0  0  0  0  0  0  0  0
   18.7606  -56.6264   34.5144 C   0  0  0  0  0  0  0  0  0  0  0  0
   17.8105  -57.6087   34.3522 C   0  0  0  0  0  0  0  0  0  0  0  0
   16.5907  -57.3146   33.7832 C   0  0  0  0  0  0  0  0  0  0  0  0
   16.3713  -56.0113   33.3908 C   0  0  0  0  0  0  0  0  0  0  0  0
   17.3335  -55.0134   33.5537 C   0  0  0  0  0  0  0  0  0  0  0  0
   15.5693  -58.3494   33.6042 C   0  0  0  0  0  0  0  0  0  0  0  0
   15.7038  -59.6844   33.6688 N   0  0  0  0  0  0  0  0  0  0  0  0
   14.5119  -60.2462   33.4425 N   0  0  0  0  0  0  0  0  0  0  0  0
   13.6277  -59.2815   33.2346 N   0  0  0  0  0  0  0  0  0  0  0  0
   14.2727  -58.1314   33.3330 N   0  0  0  0  0  0  0  0  0  0  0  0
   14.1765  -61.6546   33.4137 C   0  0  0  0  0  0  0  0  0  0  0  0
   13.9821  -62.1054   32.0183 C   0  0  0  0  0  0  0  0  0  0  0  0
   13.4680  -63.2135   31.7969 O   0  0  0  0  0  0  0  0  0  0  0  0
   14.3866  -61.2653   30.9586 N   0  0  0  0  0  0  0  0  0  0  0  0
   15.1954  -60.5887   31.0428 H   0  0  0  0  0  0  0  0  0  0  0  0
   13.8820  -61.2972   30.0473 H   0  0  0  0  0  0  0  0  0  0  0  0
   19.5448  -54.3479   34.3106 O   0  0  0  0  0  0  0  0  0  0  0  0
   20.0965  -54.0341   35.5542 C   0  0  0  0  0  0  0  0  0  0  0  0
   20.2336  -51.0068   35.8982 Br  0  0  0  0  0  0  0  0  0  0  0  0
   19.0206  -52.1710   36.8156 C   0  0  0  0  0  0  0  0  0  0  0  0
   18.0926  -51.6880   37.7043 C   0  0  0  0  0  0  0  0  0  0  0  0
   17.2264  -52.5419   38.3562 C   0  0  0  0  0  0  0  0  0  0  0  0
   17.3023  -53.8953   38.1041 C   0  0  0  0  0  0  0  0  0  0  0  0
   18.2472  -54.3772   37.1998 C   0  0  0  0  0  0  0  0  0  0  0  0
   19.1199  -53.5415   36.5409 C   0  0  0  0  0  0  0  0  0  0  0  0
   16.3354  -54.5038   38.8797 O   0  0  0  0  0  0  0  0  0  0  0  0
   15.4381  -53.5381   39.3990 C   0  0  0  0  0  0  0  0  0  0  0  0
   16.2032  -52.3575   39.2886 O   0  0  0  0  0  0  0  0  0  0  0  0
 20 21  1  0  0  0
 21 22  2  0  0  0
 21 26  1  0  0  0
 22 23  1  0  0  0
 23 24  2  0  0  0
 23 29  1  0  0  0
 24 25  1  0  0  0
 24 27  1  0  0  0
 25 26  2  0  0  0
 26 19  1  0  0  0
 19 18  1  0  0  0
 18  1  1  0  0  0
  1  2  2  0  0  0
  1  6  1  0  0  0
  2  3  1  0  0  0
  3  4  2  0  0  0
  4  5  1  0  0  0
  4  7  1  0  0  0
  5  6  2  0  0  0
  7  8  2  0  0  0
  7 11  1  0  0  0
  8  9  1  0  0  0
  9 10  1  0  0  0
  9 12  1  0  0  0
 10 11  2  0  0  0
 12 13  1  0  0  0
 13 14  2  0  0  0
 13 15  1  0  0  0
 27 28  1  0  0  0
 28 29  1  0  0  0
 15 16  1  0  0  0
 15 17  1  0  0  0
M  END
> <minimizedAffinity>
-9.21798

$$$$
467


 28 31  0  0  0  0  0  0  0  0999 V2000
   20.0902  -54.2042   32.7516 N   0  0  0  0  0  0  0  0  0  0  0  0
   21.0237  -53.7649   32.5996 H   0  0  0  0  0  0  0  0  0  0  0  0
   19.6305  -55.1579   31.8175 C   0  0  0  0  0  0  0  0  0  0  0  0
   20.4022  -55.3562   30.7361 N   0  0  0  0  0  0  0  0  0  0  0  0
   20.0970  -56.2659   29.7718 C   0  0  0  0  0  0  0  0  0  0  0  0
   18.9751  -56.9589   29.9606 N   0  0  0  0  0  0  0  0  0  0  0  0
   18.1681  -56.8107   31.0083 C   0  0  0  0  0  0  0  0  0  0  0  0
   18.5204  -55.8829   31.9477 N   0  0  0  0  0  0  0  0  0  0  0  0
   20.9490  -56.4018   28.6736 N   0  0  0  0  0  0  0  0  0  0  0  0
   21.6718  -55.2725   28.1390 C   0  0  0  0  0  0  0  0  0  0  0  0
   22.8071  -55.7248   27.2448 C   0  0  0  0  0  0  0  0  0  0  0  0
   23.4141  -56.8838   27.6018 O   0  0  0  0  0  0  0  0  0  0  0  0
   22.6633  -57.9024   28.1005 C   0  0  0  0  0  0  0  0  0  0  0  0
   21.1552  -57.6793   28.0403 C   0  0  0  0  0  0  0  0  0  0  0  0
   17.0079  -57.5472   31.1756 O   0  0  0  0  0  0  0  0  0  0  0  0
   17.0530  -58.8427   31.7109 C   0  0  0  0  0  0  0  0  0  0  0  0
   19.7751  -53.5074   35.0076 C   0  0  0  0  0  0  0  0  0  0  0  0
   19.3555  -53.8296   33.8590 N   0  0  0  0  0  0  0  0  0  0  0  0
   20.2451  -50.6599   36.1383 Br  0  0  0  0  0  0  0  0  0  0  0  0
   18.9356  -51.9103   36.6965 C   0  0  0  0  0  0  0  0  0  0  0  0
   18.0592  -51.5895   37.7162 C   0  0  0  0  0  0  0  0  0  0  0  0
   17.0794  -52.4787   38.1618 C   0  0  0  0  0  0  0  0  0  0  0  0
   17.0038  -53.7228   37.5404 C   0  0  0  0  0  0  0  0  0  0  0  0
   17.8889  -54.0203   36.5248 C   0  0  0  0  0  0  0  0  0  0  0  0
   18.8690  -53.1378   36.0757 C   0  0  0  0  0  0  0  0  0  0  0  0
   15.9747  -54.4025   38.1517 O   0  0  0  0  0  0  0  0  0  0  0  0
   15.4982  -53.6956   39.2798 C   0  0  0  0  0  0  0  0  0  0  0  0
   16.0946  -52.4333   39.1353 O   0  0  0  0  0  0  0  0  0  0  0  0
 19 20  1  0  0  0
 20 21  2  0  0  0
 20 25  1  0  0  0
 21 22  1  0  0  0
 22 23  2  0  0  0
 22 28  1  0  0  0
 23 24  1  0  0  0
 23 26  1  0  0  0
 24 25  2  0  0  0
 25 17  1  0  0  0
 17 18  2  0  0  0
 18  1  1  0  0  0
  1  3  1  0  0  0
  3  4  2  0  0  0
  3  8  1  0  0  0
  4  5  1  0  0  0
  5  6  2  0  0  0
  5  9  1  0  0  0
  6  7  1  0  0  0
  7  8  2  0  0  0
  7 15  1  0  0  0
 15 16  1  0  0  0
  9 10  1  0  0  0
  9 14  1  0  0  0
 10 11  1  0  0  0
 11 12  1  0  0  0
 12 13  1  0  0  0
 13 14  1  0  0  0
 26 27  1  0  0  0
 27 28  1  0  0  0
  1  2  1  0  0  0
M  END
> <minimizedAffinity>
-8.58097

$$$$
469


 32 36  0  0  0  0  0  0  0  0999 V2000
   15.6249  -59.1688   33.3750 C   0  0  0  0  0  0  0  0  0  0  0  0
   16.4465  -57.9820   33.4302 N   0  0  0  0  0  0  0  0  0  0  0  0
   16.2285  -57.0422   32.4363 C   0  0  0  0  0  0  0  0  0  0  0  0
   17.3291  -56.1724   31.9643 C   0  0  0  0  0  0  0  0  0  0  0  0
   18.3750  -56.1706   32.9466 N   0  0  0  0  0  0  0  0  0  0  0  0
   18.8553  -57.4835   33.2968 C   0  0  0  0  0  0  0  0  0  0  0  0
   17.7212  -58.1814   34.0016 C   0  0  0  0  0  0  0  0  0  0  0  0
   18.9394  -55.0434   33.5662 C   0  0  0  0  0  0  0  0  0  0  0  0
   20.0095  -54.3679   33.0758 N   0  0  0  0  0  0  0  0  0  0  0  0
   20.5270  -53.2898   33.6917 C   0  0  0  0  0  0  0  0  0  0  0  0
   19.9992  -52.8249   34.8378 N   0  0  0  0  0  0  0  0  0  0  0  0
   18.9341  -53.4331   35.3980 C   0  0  0  0  0  0  0  0  0  0  0  0
   18.2110  -53.1913   36.5214 N   0  0  0  0  0  0  0  0  0  0  0  0
   17.2748  -54.1219   36.5643 N   0  0  0  0  0  0  0  0  0  0  0  0
   17.3552  -54.9557   35.5250 C   0  0  0  0  0  0  0  0  0  0  0  0
   18.4175  -54.5315   34.7584 C   0  0  0  0  0  0  0  0  0  0  0  0
   18.4482  -52.1062   37.4750 C   0  0  0  0  0  0  0  0  0  0  0  0
   14.5810  -59.4743   35.6243 N   0  0  0  0  0  0  0  0  0  0  0  0
   14.4241  -59.0552   34.2869 C   0  0  0  0  0  0  0  0  0  0  0  0
   13.3826  -58.5992   33.7866 O   0  0  0  0  0  0  0  0  0  0  0  0
   15.5408  -59.8451   35.9111 H   0  0  0  0  0  0  0  0  0  0  0  0
   15.3028  -57.4874   37.7550 Br  0  0  0  0  0  0  0  0  0  0  0  0
   13.7422  -58.5661   37.6979 C   0  0  0  0  0  0  0  0  0  0  0  0
   12.7859  -58.5075   38.6839 C   0  0  0  0  0  0  0  0  0  0  0  0
   11.6641  -59.2751   38.6529 C   0  0  0  0  0  0  0  0  0  0  0  0
   11.4686  -60.1460   37.6032 C   0  0  0  0  0  0  0  0  0  0  0  0
   12.4287  -60.2230   36.5883 C   0  0  0  0  0  0  0  0  0  0  0  0
   13.5718  -59.4430   36.6168 C   0  0  0  0  0  0  0  0  0  0  0  0
   10.3294  -60.9099   37.5930 O   0  0  0  0  0  0  0  0  0  0  0  0
    9.5945  -61.2501   38.7432 C   0  0  0  0  0  0  0  0  0  0  0  0
    9.9938  -60.4676   39.9531 C   0  0  0  0  0  0  0  0  0  0  0  0
   10.6741  -59.2487   39.6259 O   0  0  0  0  0  0  0  0  0  0  0  0
 22 23  1  0  0  0
 23 24  2  0  0  0
 23 28  1  0  0  0
 24 25  1  0  0  0
 25 26  2  0  0  0
 25 32  1  0  0  0
 26 27  1  0  0  0
 26 29  1  0  0  0
 27 28  2  0  0  0
 28 18  1  0  0  0
 18 19  1  0  0  0
 19 20  2  0  0  0
 19  1  1  0  0  0
  1  2  1  0  0  0
  2  3  1  0  0  0
  2  7  1  0  0  0
  3  4  1  0  0  0
  4  5  1  0  0  0
  5  6  1  0  0  0
  5  8  1  0  0  0
  6  7  1  0  0  0
  8  9  2  0  0  0
  8 16  1  0  0  0
  9 10  1  0  0  0
 10 11  2  0  0  0
 11 12  1  0  0  0
 12 13  1  0  0  0
 12 16  2  0  0  0
 13 14  1  0  0  0
 13 17  1  0  0  0
 14 15  2  0  0  0
 15 16  1  0  0  0
 29 30  1  0  0  0
 30 31  1  0  0  0
 31 32  1  0  0  0
 18 21  1  0  0  0
M  END
> <minimizedAffinity>
-8.76658

$$$$
471


 27 30  0  0  0  0  0  0  0  0999 V2000
   19.7115  -54.1123   34.0954 C   0  0  0  0  0  0  0  0  0  0  0  0
   20.9609  -53.9175   34.1349 O   0  0  0  0  0  0  0  0  0  0  0  0
   19.1294  -54.6272   32.9199 N   0  0  0  0  0  0  0  0  0  0  0  0
   19.9775  -54.9181   31.7922 C   0  0  0  0  0  0  0  0  0  0  0  0
   19.8343  -56.3430   31.3009 C   0  0  0  0  0  0  0  0  0  0  0  0
   18.5096  -56.7734   31.5520 N   0  0  0  0  0  0  0  0  0  0  0  0
   17.5656  -55.7298   31.4646 C   0  0  0  0  0  0  0  0  0  0  0  0
   17.7217  -54.8936   32.7481 C   0  0  0  0  0  0  0  0  0  0  0  0
   14.6183  -56.2788   39.3849 Br  0  0  0  0  0  0  0  0  0  0  0  0
   15.7923  -54.9773   38.6330 C   0  0  0  0  0  0  0  0  0  0  0  0
   16.5360  -55.2748   37.5036 C   0  0  0  0  0  0  0  0  0  0  0  0
   17.3980  -54.3487   36.9343 C   0  0  0  0  0  0  0  0  0  0  0  0
   17.4679  -53.1185   37.5589 C   0  0  0  0  0  0  0  0  0  0  0  0
   16.7429  -52.7965   38.6799 C   0  0  0  0  0  0  0  0  0  0  0  0
   15.8962  -53.7319   39.2232 C   0  0  0  0  0  0  0  0  0  0  0  0
   18.3262  -52.1915   36.9958 C   0  0  0  0  0  0  0  0  0  0  0  0
   18.4388  -51.0361   37.5236 O   0  0  0  0  0  0  0  0  0  0  0  0
   19.0422  -52.5425   35.8709 C   0  0  0  0  0  0  0  0  0  0  0  0
   18.9278  -53.7854   35.2932 C   0  0  0  0  0  0  0  0  0  0  0  0
   18.1030  -54.6268   35.8650 O   0  0  0  0  0  0  0  0  0  0  0  0
   18.3263  -57.7429   32.5560 C   0  0  0  0  0  0  0  0  0  0  0  0
   17.0575  -58.4645   32.5162 C   0  0  0  0  0  0  0  0  0  0  0  0
   16.6708  -59.3077   31.5451 N   0  0  0  0  0  0  0  0  0  0  0  0
   15.5031  -59.7428   31.8602 O   0  0  0  0  0  0  0  0  0  0  0  0
   15.0927  -59.2315   32.9939 N   0  0  0  0  0  0  0  0  0  0  0  0
   16.0597  -58.4052   33.4497 C   0  0  0  0  0  0  0  0  0  0  0  0
   16.0335  -57.6009   34.7080 C   0  0  0  0  0  0  0  0  0  0  0  0
  9 10  1  0  0  0
 10 11  2  0  0  0
 10 15  1  0  0  0
 11 12  1  0  0  0
 12 13  2  0  0  0
 12 20  1  0  0  0
 13 14  1  0  0  0
 13 16  1  0  0  0
 14 15  2  0  0  0
 16 17  2  0  0  0
 16 18  1  0  0  0
 18 19  2  0  0  0
 19 20  1  0  0  0
 19  1  1  0  0  0
  1  2  2  0  0  0
  1  3  1  0  0  0
  3  4  1  0  0  0
  3  8  1  0  0  0
  4  5  1  0  0  0
  5  6  1  0  0  0
  6  7  1  0  0  0
  6 21  1  0  0  0
  7  8  1  0  0  0
 21 22  1  0  0  0
 22 23  2  0  0  0
 22 26  1  0  0  0
 23 24  1  0  0  0
 24 25  1  0  0  0
 25 26  2  0  0  0
 26 27  1  0  0  0
M  END
> <minimizedAffinity>
-9.70652

$$$$
473


 29 32  0  0  0  0  0  0  0  0999 V2000
   14.7767  -59.3752   35.4322 C   0  0  0  0  0  0  0  0  0  0  0  0
   14.8562  -58.8774   34.0397 C   0  0  0  0  0  0  0  0  0  0  0  0
   13.8646  -58.4452   33.3966 O   0  0  0  0  0  0  0  0  0  0  0  0
   16.1154  -58.8659   33.3387 N   0  0  0  0  0  0  0  0  0  0  0  0
   16.2037  -58.3806   31.9805 C   0  0  0  0  0  0  0  0  0  0  0  0
   17.3797  -57.4943   31.7397 C   0  0  0  0  0  0  0  0  0  0  0  0
   18.2189  -57.2914   32.8967 N   0  0  0  0  0  0  0  0  0  0  0  0
   18.3837  -58.2418   33.9637 C   0  0  0  0  0  0  0  0  0  0  0  0
   17.3434  -59.3351   33.9522 C   0  0  0  0  0  0  0  0  0  0  0  0
   18.9382  -56.0576   32.9880 C   0  0  0  0  0  0  0  0  0  0  0  0
   19.1498  -55.4426   34.1831 N   0  0  0  0  0  0  0  0  0  0  0  0
   19.8137  -54.2947   34.3110 C   0  0  0  0  0  0  0  0  0  0  0  0
   20.3199  -53.6845   33.1731 C   0  0  0  0  0  0  0  0  0  0  0  0
   20.1272  -54.2704   31.9668 N   0  0  0  0  0  0  0  0  0  0  0  0
   19.4526  -55.4280   31.8777 C   0  0  0  0  0  0  0  0  0  0  0  0
   14.0489  -58.4607   36.3764 C   0  0  0  0  0  0  0  0  0  0  0  0
   14.8582  -58.2556   37.6028 C   0  0  0  0  0  0  0  0  0  0  0  0
   18.4312  -51.2403   37.3606 Br  0  0  0  0  0  0  0  0  0  0  0  0
   17.2724  -52.6658   37.8750 C   0  0  0  0  0  0  0  0  0  0  0  0
   17.3385  -53.8618   37.1893 C   0  0  0  0  0  0  0  0  0  0  0  0
   16.5218  -54.9265   37.5230 C   0  0  0  0  0  0  0  0  0  0  0  0
   15.6345  -54.7514   38.5669 C   0  0  0  0  0  0  0  0  0  0  0  0
   15.5769  -53.5512   39.2454 C   0  0  0  0  0  0  0  0  0  0  0  0
   16.3895  -52.4844   38.9189 C   0  0  0  0  0  0  0  0  0  0  0  0
   14.9010  -55.9960   38.7175 C   0  0  0  0  0  0  0  0  0  0  0  0
   13.9969  -56.1829   39.5940 O   0  0  0  0  0  0  0  0  0  0  0  0
   15.3732  -56.9110   37.7400 N   0  0  0  0  0  0  0  0  0  0  0  0
   16.3768  -56.2856   36.9797 C   0  0  0  0  0  0  0  0  0  0  0  0
   17.0399  -56.7663   36.0201 O   0  0  0  0  0  0  0  0  0  0  0  0
 18 19  1  0  0  0
 19 20  2  0  0  0
 19 24  1  0  0  0
 20 21  1  0  0  0
 21 22  2  0  0  0
 21 28  1  0  0  0
 22 23  1  0  0  0
 22 25  1  0  0  0
 23 24  2  0  0  0
 25 26  2  0  0  0
 25 27  1  0  0  0
 27 28  1  0  0  0
 27 17  1  0  0  0
 28 29  2  0  0  0
 17 16  1  0  0  0
 16  1  1  0  0  0
  1  2  1  0  0  0
  2  3  2  0  0  0
  2  4  1  0  0  0
  4  5  1  0  0  0
  4  9  1  0  0  0
  5  6  1  0  0  0
  6  7  1  0  0  0
  7  8  1  0  0  0
  7 10  1  0  0  0
  8  9  1  0  0  0
 10 11  2  0  0  0
 10 15  1  0  0  0
 11 12  1  0  0  0
 12 13  2  0  0  0
 13 14  1  0  0  0
 14 15  2  0  0  0
M  END
> <minimizedAffinity>
-9.46594

$$$$
483


 31 34  0  0  0  0  0  0  0  0999 V2000
   13.6527  -57.3968   37.0386 N   0  0  0  0  0  0  0  0  0  0  0  0
   14.7034  -57.4335   37.9880 C   0  0  0  0  0  0  0  0  0  0  0  0
   15.6807  -58.1899   37.7867 O   0  0  0  0  0  0  0  0  0  0  0  0
   12.8359  -56.7760   37.2088 H   0  0  0  0  0  0  0  0  0  0  0  0
   11.2718  -60.2300   40.9188 Br  0  0  0  0  0  0  0  0  0  0  0  0
   11.6190  -60.6738   39.1035 C   0  0  0  0  0  0  0  0  0  0  0  0
   12.2625  -59.7819   38.2373 C   0  0  0  0  0  0  0  0  0  0  0  0
   12.5168  -60.0987   36.9199 C   0  0  0  0  0  0  0  0  0  0  0  0
   12.1199  -61.3492   36.4309 C   0  0  0  0  0  0  0  0  0  0  0  0
   11.4836  -62.2245   37.2986 C   0  0  0  0  0  0  0  0  0  0  0  0
   11.2385  -61.8902   38.6092 C   0  0  0  0  0  0  0  0  0  0  0  0
   12.4712  -61.4808   35.0580 N   0  0  0  0  0  0  0  0  0  0  0  0
   13.1082  -60.2711   34.6775 C   0  0  0  0  0  0  0  0  0  0  0  0
   13.5893  -59.9265   33.5632 O   0  0  0  0  0  0  0  0  0  0  0  0
   13.1577  -59.3603   35.8415 C   0  0  0  0  0  0  0  0  0  0  0  0
   13.6607  -58.1743   35.8779 N   0  0  0  0  0  0  0  0  0  0  0  0
   12.2594  -62.5918   34.1518 C   0  0  0  0  0  0  0  0  0  0  0  0
   10.9199  -62.5398   33.5878 C   0  0  0  0  0  0  0  0  0  0  0  0
    9.8182  -62.4945   33.1056 C   0  0  0  0  0  0  0  0  0  0  0  0
   14.6441  -56.6018   39.1816 C   0  0  0  0  0  0  0  0  0  0  0  0
   15.3078  -55.3228   39.0171 N   0  0  0  0  0  0  0  0  0  0  0  0
   15.0109  -54.1847   39.6206 N   0  0  0  0  0  0  0  0  0  0  0  0
   15.8318  -53.2257   39.2248 N   0  0  0  0  0  0  0  0  0  0  0  0
   16.6893  -53.7549   38.3356 C   0  0  0  0  0  0  0  0  0  0  0  0
   16.3393  -55.0437   38.2326 N   0  0  0  0  0  0  0  0  0  0  0  0
   17.7587  -53.0312   37.6555 C   0  0  0  0  0  0  0  0  0  0  0  0
   17.8188  -51.6562   37.7304 C   0  0  0  0  0  0  0  0  0  0  0  0
   18.8410  -50.9601   37.0812 C   0  0  0  0  0  0  0  0  0  0  0  0
   19.8104  -51.6132   36.3543 C   0  0  0  0  0  0  0  0  0  0  0  0
   19.7526  -52.9938   36.2782 C   0  0  0  0  0  0  0  0  0  0  0  0
   18.7331  -53.6776   36.9264 C   0  0  0  0  0  0  0  0  0  0  0  0
  5  6  1  0  0  0
  6  7  2  0  0  0
  6 11  1  0  0  0
  7  8  1  0  0  0
  8  9  2  0  0  0
  8 15  1  0  0  0
  9 10  1  0  0  0
  9 12  1  0  0  0
 10 11  2  0  0  0
 12 13  1  0  0  0
 12 17  1  0  0  0
 13 14  2  0  0  0
 13 15  1  0  0  0
 15 16  2  0  0  0
 16  1  1  0  0  0
  1  2  1  0  0  0
  2  3  2  0  0  0
  2 20  1  0  0  0
 20 21  1  0  0  0
 21 22  1  0  0  0
 21 25  1  0  0  0
 22 23  2  0  0  0
 23 24  1  0  0  0
 24 25  2  0  0  0
 24 26  1  0  0  0
 26 27  2  0  0  0
 26 31  1  0  0  0
 27 28  1  0  0  0
 28 29  2  0  0  0
 29 30  1  0  0  0
 30 31  2  0  0  0
 17 18  1  0  0  0
 18 19  3  0  0  0
  1  4  1  0  0  0
M  END
> <minimizedAffinity>
-10.06948

$$$$
484


 35 38  0  0  0  0  0  0  0  0999 V2000
   20.3419  -50.7728   35.8430 Br  0  0  0  0  0  0  0  0  0  0  0  0
   19.8467  -52.4837   35.1548 C   0  0  0  0  0  0  0  0  0  0  0  0
   18.8811  -53.2791   35.7893 C   0  0  0  0  0  0  0  0  0  0  0  0
   18.6005  -54.4796   35.2032 C   0  0  0  0  0  0  0  0  0  0  0  0
   19.2044  -54.9398   34.0516 C   0  0  0  0  0  0  0  0  0  0  0  0
   20.1555  -54.1596   33.4345 C   0  0  0  0  0  0  0  0  0  0  0  0
   20.4672  -52.9158   34.0031 C   0  0  0  0  0  0  0  0  0  0  0  0
   18.7170  -56.2202   33.6713 N   0  0  0  0  0  0  0  0  0  0  0  0
   17.7356  -56.5899   34.6748 C   0  0  0  0  0  0  0  0  0  0  0  0
   17.0730  -57.6480   34.6762 O   0  0  0  0  0  0  0  0  0  0  0  0
   17.6907  -55.4993   35.6233 C   0  0  0  0  0  0  0  0  0  0  0  0
   17.0928  -55.4507   36.7507 N   0  0  0  0  0  0  0  0  0  0  0  0
   16.9226  -54.8701   37.7481 N   0  0  0  0  0  0  0  0  0  0  0  0
   16.7369  -54.1671   38.9601 C   0  0  0  0  0  0  0  0  0  0  0  0
   17.5109  -53.7481   39.7912 O   0  0  0  0  0  0  0  0  0  0  0  0
   18.2663  -54.9331   38.0931 H   0  0  0  0  0  0  0  0  0  0  0  0
   15.2246  -53.9498   39.1941 C   0  0  0  0  0  0  0  0  0  0  0  0
   14.7864  -55.1852   39.7997 O   0  0  0  0  0  0  0  0  0  0  0  0
   13.9921  -56.0073   38.9503 N   0  0  0  0  0  0  0  0  0  0  0  0
   14.3375  -57.2022   38.6677 C   0  0  0  0  0  0  0  0  0  0  0  0
   13.5225  -58.0109   37.7905 C   0  0  0  0  0  0  0  0  0  0  0  0
   12.4256  -58.7139   38.1612 C   0  0  0  0  0  0  0  0  0  0  0  0
   11.8122  -59.5054   37.1565 C   0  0  0  0  0  0  0  0  0  0  0  0
   12.1912  -59.6215   35.8853 C   0  0  0  0  0  0  0  0  0  0  0  0
   13.2882  -58.8971   35.5634 C   0  0  0  0  0  0  0  0  0  0  0  0
   14.0091  -58.1031   36.3718 C   0  0  0  0  0  0  0  0  0  0  0  0
   11.4841  -60.4381   34.9957 O   0  0  0  0  0  0  0  0  0  0  0  0
   12.1279  -61.5241   34.3393 C   0  0  0  0  0  0  0  0  0  0  0  0
   18.9969  -57.0697   32.5252 C   0  0  0  0  0  0  0  0  0  0  0  0
   18.4816  -56.5500   31.3561 N   0  0  0  0  0  0  0  0  0  0  0  0
   19.4822  -56.1290   30.4618 C   0  0  0  0  0  0  0  0  0  0  0  0
   19.1410  -56.6054   29.0479 C   0  0  0  0  0  0  0  0  0  0  0  0
   18.9057  -57.9966   29.2240 O   0  0  0  0  0  0  0  0  0  0  0  0
   17.6445  -58.1762   29.8077 C   0  0  0  0  0  0  0  0  0  0  0  0
   17.3146  -57.1486   30.8453 C   0  0  0  0  0  0  0  0  0  0  0  0
  1  2  1  0  0  0
  2  3  2  0  0  0
  2  7  1  0  0  0
  3  4  1  0  0  0
  4  5  2  0  0  0
  4 11  1  0  0  0
  5  6  1  0  0  0
  5  8  1  0  0  0
  6  7  2  0  0  0
  8  9  1  0  0  0
  8 29  1  0  0  0
  9 10  2  0  0  0
  9 11  1  0  0  0
 11 12  2  0  0  0
 12 13  1  0  0  0
 13 14  1  0  0  0
 14 15  2  0  0  0
 14 17  1  0  0  0
 17 18  1  0  0  0
 18 19  1  0  0  0
 19 20  2  0  0  0
 20 21  1  0  0  0
 21 22  2  0  0  0
 21 26  1  0  0  0
 22 23  1  0  0  0
 23 24  2  0  0  0
 24 25  1  0  0  0
 24 27  1  0  0  0
 25 26  2  0  0  0
 27 28  1  0  0  0
 29 30  1  0  0  0
 30 31  1  0  0  0
 30 35  1  0  0  0
 31 32  1  0  0  0
 32 33  1  0  0  0
 33 34  1  0  0  0
 34 35  1  0  0  0
 13 16  1  0  0  0
M  END
> <minimizedAffinity>
-9.06242

$$$$
485


 34 37  0  0  0  0  0  0  0  0999 V2000
   10.7985  -61.9170   39.8037 Br  0  0  0  0  0  0  0  0  0  0  0  0
   11.5792  -60.9061   38.3672 C   0  0  0  0  0  0  0  0  0  0  0  0
   12.5658  -59.9752   38.5971 C   0  0  0  0  0  0  0  0  0  0  0  0
   13.1597  -59.2196   37.5917 C   0  0  0  0  0  0  0  0  0  0  0  0
   12.7297  -59.4186   36.2765 C   0  0  0  0  0  0  0  0  0  0  0  0
   11.7404  -60.3525   36.0455 C   0  0  0  0  0  0  0  0  0  0  0  0
   11.1597  -61.0978   37.0680 C   0  0  0  0  0  0  0  0  0  0  0  0
   13.4552  -58.5569   35.3883 N   0  0  0  0  0  0  0  0  0  0  0  0
   14.3563  -57.8081   36.1929 C   0  0  0  0  0  0  0  0  0  0  0  0
   15.1604  -56.9478   35.7704 O   0  0  0  0  0  0  0  0  0  0  0  0
   14.1944  -58.2024   37.5791 C   0  0  0  0  0  0  0  0  0  0  0  0
   14.8326  -57.7485   38.5981 N   0  0  0  0  0  0  0  0  0  0  0  0
   15.8144  -56.7690   38.5069 N   0  0  0  0  0  0  0  0  0  0  0  0
   15.5484  -55.4642   38.9713 C   0  0  0  0  0  0  0  0  0  0  0  0
   14.4168  -55.1524   39.4809 O   0  0  0  0  0  0  0  0  0  0  0  0
   16.7304  -57.0038   38.0996 H   0  0  0  0  0  0  0  0  0  0  0  0
   16.5379  -54.3592   38.9135 C   0  0  0  0  0  0  0  0  0  0  0  0
   16.4829  -53.7172   37.6402 O   0  0  0  0  0  0  0  0  0  0  0  0
   17.6003  -53.0643   37.1479 C   0  0  0  0  0  0  0  0  0  0  0  0
   18.4746  -53.7237   36.3102 C   0  0  0  0  0  0  0  0  0  0  0  0
   19.5954  -53.0612   35.8193 C   0  0  0  0  0  0  0  0  0  0  0  0
   19.8408  -51.7464   36.1660 C   0  0  0  0  0  0  0  0  0  0  0  0
   18.9672  -51.1079   36.9955 C   0  0  0  0  0  0  0  0  0  0  0  0
   17.8518  -51.7682   37.4837 C   0  0  0  0  0  0  0  0  0  0  0  0
   18.2600  -55.0291   35.9472 O   0  0  0  0  0  0  0  0  0  0  0  0
   18.1039  -55.3788   34.5951 C   0  0  0  0  0  0  0  0  0  0  0  0
   13.2684  -58.5009   33.9482 C   0  0  0  0  0  0  0  0  0  0  0  0
   14.1903  -59.2724   33.1950 N   0  0  0  0  0  0  0  0  0  0  0  0
   15.5569  -58.8923   33.3057 C   0  0  0  0  0  0  0  0  0  0  0  0
   16.4609  -59.7313   32.3979 C   0  0  0  0  0  0  0  0  0  0  0  0
   15.6003  -60.4317   31.4883 N   0  0  0  0  0  0  0  0  0  0  0  0
   14.7737  -61.4038   32.1338 C   0  0  0  0  0  0  0  0  0  0  0  0
   13.9595  -60.6883   33.1967 C   0  0  0  0  0  0  0  0  0  0  0  0
   16.2628  -60.9031   30.3063 C   0  0  0  0  0  0  0  0  0  0  0  0
  1  2  1  0  0  0
  2  3  2  0  0  0
  2  7  1  0  0  0
  3  4  1  0  0  0
  4  5  2  0  0  0
  4 11  1  0  0  0
  5  6  1  0  0  0
  5  8  1  0  0  0
  6  7  2  0  0  0
  8  9  1  0  0  0
  8 27  1  0  0  0
  9 10  2  0  0  0
  9 11  1  0  0  0
 11 12  2  0  0  0
 12 13  1  0  0  0
 13 14  1  0  0  0
 14 15  2  0  0  0
 14 17  1  0  0  0
 17 18  1  0  0  0
 18 19  1  0  0  0
 19 20  2  0  0  0
 19 24  1  0  0  0
 20 21  1  0  0  0
 20 25  1  0  0  0
 21 22  2  0  0  0
 22 23  1  0  0  0
 23 24  2  0  0  0
 25 26  1  0  0  0
 27 28  1  0  0  0
 28 29  1  0  0  0
 28 33  1  0  0  0
 29 30  1  0  0  0
 30 31  1  0  0  0
 31 32  1  0  0  0
 31 34  1  0  0  0
 32 33  1  0  0  0
 13 16  1  0  0  0
M  END
> <minimizedAffinity>
-9.38770

$$$$
500


 32 35  0  0  0  0  0  0  0  0999 V2000
    7.6237  -62.9733   32.5481 Br  0  0  0  0  0  0  0  0  0  0  0  0
    9.3298  -63.2622   33.3925 C   0  0  0  0  0  0  0  0  0  0  0  0
   10.4707  -62.6087   33.0274 C   0  0  0  0  0  0  0  0  0  0  0  0
   11.6731  -62.8658   33.6341 C   0  0  0  0  0  0  0  0  0  0  0  0
   11.6861  -63.8057   34.6255 C   0  0  0  0  0  0  0  0  0  0  0  0
   10.5289  -64.4886   35.0216 C   0  0  0  0  0  0  0  0  0  0  0  0
    9.3249  -64.2225   34.4027 C   0  0  0  0  0  0  0  0  0  0  0  0
   12.9918  -63.9991   35.1333 N   0  0  0  0  0  0  0  0  0  0  0  0
   13.8415  -63.1469   34.4317 C   0  0  0  0  0  0  0  0  0  0  0  0
   15.0840  -63.0843   34.6249 O   0  0  0  0  0  0  0  0  0  0  0  0
   13.0373  -62.3441   33.4383 C   0  0  0  0  0  0  0  0  0  0  0  0
   13.2685  -60.9561   33.8071 C   0  0  0  0  0  0  0  0  0  0  0  0
   13.9468  -60.1279   32.9658 C   0  0  0  0  0  0  0  0  0  0  0  0
   14.0107  -58.9148   33.5828 N   0  0  0  0  0  0  0  0  0  0  0  0
   13.4077  -58.9855   34.7413 N   0  0  0  0  0  0  0  0  0  0  0  0
   12.9175  -60.2283   34.9554 C   0  0  0  0  0  0  0  0  0  0  0  0
   14.4488  -60.5497   31.7184 O   0  0  0  0  0  0  0  0  0  0  0  0
   14.2252  -61.8685   31.3731 C   0  0  0  0  0  0  0  0  0  0  0  0
   13.5854  -62.7064   32.1393 C   0  0  0  0  0  0  0  0  0  0  0  0
   14.7407  -62.3047   30.0925 N   0  0  0  0  0  0  0  0  0  0  0  0
   13.3807  -64.9307   36.2115 C   0  0  0  0  0  0  0  0  0  0  0  0
   13.2918  -58.2047   35.4506 H   0  0  0  0  0  0  0  0  0  0  0  0
   14.9915  -61.6562   29.3261 H   0  0  0  0  0  0  0  0  0  0  0  0
   14.8621  -63.3194   29.9460 H   0  0  0  0  0  0  0  0  0  0  0  0
   13.4053  -64.0887   31.6854 C   0  0  0  0  0  0  0  0  0  0  0  0
   13.2831  -65.1736   31.3379 N   0  0  0  0  0  0  0  0  0  0  0  0
   12.1589  -60.6499   36.1605 C   0  0  0  0  0  0  0  0  0  0  0  0
   12.3700  -59.7157   37.2878 C   0  0  0  0  0  0  0  0  0  0  0  0
   11.4784  -59.0123   37.8278 O   0  0  0  0  0  0  0  0  0  0  0  0
   13.6489  -59.6080   37.7873 O   0  0  0  0  0  0  0  0  0  0  0  0
   14.3491  -58.4167   38.0288 C   0  0  0  0  0  0  0  0  0  0  0  0
   15.7829  -58.5684   37.5779 C   0  0  0  0  0  0  0  0  0  0  0  0
  1  2  1  0  0  0
  2  3  2  0  0  0
  2  7  1  0  0  0
  3  4  1  0  0  0
  4  5  2  0  0  0
  4 11  1  0  0  0
  5  6  1  0  0  0
  5  8  1  0  0  0
  6  7  2  0  0  0
  8  9  1  0  0  0
  8 21  1  0  0  0
  9 10  2  0  0  0
  9 11  1  0  0  0
 11 12  1  0  0  0
 11 19  1  0  0  0
 12 13  1  0  0  0
 12 16  2  0  0  0
 13 14  2  0  0  0
 13 17  1  0  0  0
 14 15  1  0  0  0
 15 16  1  0  0  0
 16 27  1  0  0  0
 27 28  1  0  0  0
 28 29  2  0  0  0
 28 30  1  0  0  0
 30 31  1  0  0  0
 31 32  1  0  0  0
 17 18  1  0  0  0
 18 19  2  0  0  0
 18 20  1  0  0  0
 19 25  1  0  0  0
 25 26  3  0  0  0
 15 22  1  0  0  0
 20 23  1  0  0  0
 20 24  1  0  0  0
M  END
> <minimizedAffinity>
-5.78458

$$$$
502


 27 30  0  0  0  0  0  0  0  0999 V2000
    7.3446  -62.5500   32.0697 Br  0  0  0  0  0  0  0  0  0  0  0  0
    8.8921  -63.0667   33.0956 C   0  0  0  0  0  0  0  0  0  0  0  0
   10.0900  -62.4201   32.9419 C   0  0  0  0  0  0  0  0  0  0  0  0
   11.1835  -62.8070   33.6878 C   0  0  0  0  0  0  0  0  0  0  0  0
   11.0187  -63.8426   34.5673 C   0  0  0  0  0  0  0  0  0  0  0  0
    9.7853  -64.5066   34.7245 C   0  0  0  0  0  0  0  0  0  0  0  0
    8.7099  -64.1089   33.9759 C   0  0  0  0  0  0  0  0  0  0  0  0
   12.2308  -64.1243   35.2604 N   0  0  0  0  0  0  0  0  0  0  0  0
   13.2067  -63.2306   34.8018 C   0  0  0  0  0  0  0  0  0  0  0  0
   14.4102  -63.1942   35.2025 O   0  0  0  0  0  0  0  0  0  0  0  0
   12.5872  -62.3330   33.7641 C   0  0  0  0  0  0  0  0  0  0  0  0
   12.7060  -60.9768   34.2871 C   0  0  0  0  0  0  0  0  0  0  0  0
   13.4544  -60.0373   33.6490 C   0  0  0  0  0  0  0  0  0  0  0  0
   13.3560  -58.8928   34.3877 N   0  0  0  0  0  0  0  0  0  0  0  0
   12.5882  -59.0938   35.4380 N   0  0  0  0  0  0  0  0  0  0  0  0
   12.1674  -60.3565   35.4180 C   0  0  0  0  0  0  0  0  0  0  0  0
   11.2778  -61.0729   36.3848 C   0  0  0  0  0  0  0  0  0  0  0  0
   14.1511  -60.2998   32.4644 O   0  0  0  0  0  0  0  0  0  0  0  0
   14.0358  -61.5945   31.9689 C   0  0  0  0  0  0  0  0  0  0  0  0
   13.3329  -62.5396   32.5366 C   0  0  0  0  0  0  0  0  0  0  0  0
   14.7387  -61.9274   30.7385 N   0  0  0  0  0  0  0  0  0  0  0  0
   12.4358  -65.1660   36.2783 C   0  0  0  0  0  0  0  0  0  0  0  0
   12.3202  -58.4118   36.1937 H   0  0  0  0  0  0  0  0  0  0  0  0
   15.7118  -62.2672   30.8732 H   0  0  0  0  0  0  0  0  0  0  0  0
   14.3240  -61.8388   29.8131 H   0  0  0  0  0  0  0  0  0  0  0  0
   13.3238  -63.8535   31.8702 C   0  0  0  0  0  0  0  0  0  0  0  0
   13.3042  -64.8859   31.3244 N   0  0  0  0  0  0  0  0  0  0  0  0
  1  2  1  0  0  0
  2  3  2  0  0  0
  2  7  1  0  0  0
  3  4  1  0  0  0
  4  5  2  0  0  0
  4 11  1  0  0  0
  5  6  1  0  0  0
  5  8  1  0  0  0
  6  7  2  0  0  0
  8  9  1  0  0  0
  8 22  1  0  0  0
  9 10  2  0  0  0
  9 11  1  0  0  0
 11 12  1  0  0  0
 11 20  1  0  0  0
 12 13  1  0  0  0
 12 16  2  0  0  0
 13 14  2  0  0  0
 13 18  1  0  0  0
 14 15  1  0  0  0
 15 16  1  0  0  0
 16 17  1  0  0  0
 18 19  1  0  0  0
 19 20  2  0  0  0
 19 21  1  0  0  0
 20 26  1  0  0  0
 26 27  3  0  0  0
 15 23  1  0  0  0
 21 24  1  0  0  0
 21 25  1  0  0  0
M  END
> <minimizedAffinity>
-5.27509

$$$$
504


 29 32  0  0  0  0  0  0  0  0999 V2000
   20.3033  -64.4935   29.8794 Br  0  0  0  0  0  0  0  0  0  0  0  0
   18.6751  -63.8489   30.6164 C   0  0  0  0  0  0  0  0  0  0  0  0
   18.1588  -62.6093   30.3239 C   0  0  0  0  0  0  0  0  0  0  0  0
   16.9570  -62.2095   30.9069 C   0  0  0  0  0  0  0  0  0  0  0  0
   16.2524  -62.9877   31.7626 C   0  0  0  0  0  0  0  0  0  0  0  0
   16.7775  -64.2486   32.0593 C   0  0  0  0  0  0  0  0  0  0  0  0
   17.9632  -64.6600   31.4932 C   0  0  0  0  0  0  0  0  0  0  0  0
   15.0705  -62.3537   32.2124 N   0  0  0  0  0  0  0  0  0  0  0  0
   15.0136  -61.0842   31.6054 C   0  0  0  0  0  0  0  0  0  0  0  0
   14.1033  -60.2244   31.7632 O   0  0  0  0  0  0  0  0  0  0  0  0
   16.2130  -60.9197   30.7372 C   0  0  0  0  0  0  0  0  0  0  0  0
   17.0509  -59.7932   31.2198 C   0  0  0  0  0  0  0  0  0  0  0  0
   17.4270  -58.8333   30.4546 C   0  0  0  0  0  0  0  0  0  0  0  0
   17.0668  -58.7622   29.0470 N   0  0  0  0  0  0  0  0  0  0  0  0
   16.2700  -59.8285   28.5751 C   0  0  0  0  0  0  0  0  0  0  0  0
   15.8762  -60.8133   29.3349 C   0  0  0  0  0  0  0  0  0  0  0  0
   15.8789  -59.8104   27.1745 N   0  0  0  0  0  0  0  0  0  0  0  0
   18.2508  -57.8756   31.2551 C   0  0  0  0  0  0  0  0  0  0  0  0
   18.2896  -58.4021   32.5296 O   0  0  0  0  0  0  0  0  0  0  0  0
   17.5880  -59.5670   32.6010 C   0  0  0  0  0  0  0  0  0  0  0  0
   17.3887  -60.3415   33.5849 O   0  0  0  0  0  0  0  0  0  0  0  0
   17.6406  -56.4886   31.1917 C   0  0  0  0  0  0  0  0  0  0  0  0
   19.6721  -57.8188   30.7257 C   0  0  0  0  0  0  0  0  0  0  0  0
   14.0624  -62.8853   33.1424 C   0  0  0  0  0  0  0  0  0  0  0  0
   17.3974  -57.9658   28.4758 H   0  0  0  0  0  0  0  0  0  0  0  0
   14.8738  -59.6368   26.9696 H   0  0  0  0  0  0  0  0  0  0  0  0
   16.5640  -59.9642   26.4217 H   0  0  0  0  0  0  0  0  0  0  0  0
   15.0568  -61.8431   28.7076 C   0  0  0  0  0  0  0  0  0  0  0  0
   14.3909  -62.6463   28.2045 N   0  0  0  0  0  0  0  0  0  0  0  0
  1  2  1  0  0  0
  2  3  2  0  0  0
  2  7  1  0  0  0
  3  4  1  0  0  0
  4  5  2  0  0  0
  4 11  1  0  0  0
  5  6  1  0  0  0
  5  8  1  0  0  0
  6  7  2  0  0  0
  8  9  1  0  0  0
  8 24  1  0  0  0
  9 10  2  0  0  0
  9 11  1  0  0  0
 11 12  1  0  0  0
 11 16  1  0  0  0
 12 13  2  0  0  0
 12 20  1  0  0  0
 13 14  1  0  0  0
 13 18  1  0  0  0
 14 15  1  0  0  0
 15 16  2  0  0  0
 15 17  1  0  0  0
 16 28  1  0  0  0
 28 29  3  0  0  0
 18 19  1  0  0  0
 18 22  1  0  0  0
 18 23  1  0  0  0
 19 20  1  0  0  0
 20 21  2  0  0  0
 14 25  1  0  0  0
 17 26  1  0  0  0
 17 27  1  0  0  0
M  END
> <minimizedAffinity>
-5.64475

$$$$
505


 30 33  0  0  0  0  0  0  0  0999 V2000
   17.8848  -65.1729   35.1739 Br  0  0  0  0  0  0  0  0  0  0  0  0
   16.0892  -64.5419   35.1800 C   0  0  0  0  0  0  0  0  0  0  0  0
   15.7359  -63.4730   34.3857 C   0  0  0  0  0  0  0  0  0  0  0  0
   14.4233  -62.9905   34.3719 C   0  0  0  0  0  0  0  0  0  0  0  0
   13.5149  -63.6122   35.1666 C   0  0  0  0  0  0  0  0  0  0  0  0
   13.8782  -64.7059   35.9797 C   0  0  0  0  0  0  0  0  0  0  0  0
   15.1714  -65.1748   35.9869 C   0  0  0  0  0  0  0  0  0  0  0  0
   12.2532  -62.9758   35.0088 N   0  0  0  0  0  0  0  0  0  0  0  0
   12.3658  -61.9199   34.0865 C   0  0  0  0  0  0  0  0  0  0  0  0
   11.4607  -61.1389   33.6997 O   0  0  0  0  0  0  0  0  0  0  0  0
   13.7834  -61.8700   33.6206 C   0  0  0  0  0  0  0  0  0  0  0  0
   14.4021  -60.5835   33.9590 C   0  0  0  0  0  0  0  0  0  0  0  0
   14.9874  -59.8040   33.0151 C   0  0  0  0  0  0  0  0  0  0  0  0
   15.0122  -60.2154   31.6789 O   0  0  0  0  0  0  0  0  0  0  0  0
   14.4433  -61.4174   31.3079 C   0  0  0  0  0  0  0  0  0  0  0  0
   13.8767  -62.1821   32.1917 C   0  0  0  0  0  0  0  0  0  0  0  0
   14.5074  -61.7738   29.9171 N   0  0  0  0  0  0  0  0  0  0  0  0
   15.5651  -58.5861   33.3842 C   0  0  0  0  0  0  0  0  0  0  0  0
   16.0997  -57.8780   32.5057 O   0  0  0  0  0  0  0  0  0  0  0  0
   15.5322  -58.1950   34.7020 C   0  0  0  0  0  0  0  0  0  0  0  0
   14.9246  -59.0278   35.6178 C   0  0  0  0  0  0  0  0  0  0  0  0
   14.4080  -60.1406   35.2188 O   0  0  0  0  0  0  0  0  0  0  0  0
   11.0400  -63.4038   35.7321 C   0  0  0  0  0  0  0  0  0  0  0  0
   14.8428  -62.7019   29.6657 H   0  0  0  0  0  0  0  0  0  0  0  0
   14.2150  -61.0839   29.2265 H   0  0  0  0  0  0  0  0  0  0  0  0
   14.8755  -58.6188   37.0748 C   0  0  0  0  0  0  0  0  0  0  0  0
   15.9702  -59.1712   37.7397 O   0  0  0  0  0  0  0  0  0  0  0  0
   16.2467  -60.0144   37.2700 H   0  0  0  0  0  0  0  0  0  0  0  0
   13.2968  -63.4431   31.7074 C   0  0  0  0  0  0  0  0  0  0  0  0
   12.8553  -64.4222   31.3282 N   0  0  0  0  0  0  0  0  0  0  0  0
  1  2  1  0  0  0
  2  3  2  0  0  0
  2  7  1  0  0  0
  3  4  1  0  0  0
  4  5  2  0  0  0
  4 11  1  0  0  0
  5  6  1  0  0  0
  5  8  1  0  0  0
  6  7  2  0  0  0
  8  9  1  0  0  0
  8 23  1  0  0  0
  9 10  2  0  0  0
  9 11  1  0  0  0
 11 12  1  0  0  0
 11 16  1  0  0  0
 12 13  2  0  0  0
 12 22  1  0  0  0
 13 14  1  0  0  0
 13 18  1  0  0  0
 14 15  1  0  0  0
 15 16  2  0  0  0
 15 17  1  0  0  0
 16 29  1  0  0  0
 29 30  3  0  0  0
 18 19  2  0  0  0
 18 20  1  0  0  0
 20 21  2  0  0  0
 21 22  1  0  0  0
 21 26  1  0  0  0
 26 27  1  0  0  0
 17 24  1  0  0  0
 17 25  1  0  0  0
 27 28  1  0  0  0
M  END
> <minimizedAffinity>
-6.37798

$$$$
513


 33 36  0  0  0  0  0  0  0  0999 V2000
   18.4588  -55.9219   34.2093 N   0  0  0  0  0  0  0  0  0  0  0  0
   17.2820  -56.6985   34.3841 C   0  0  0  0  0  0  0  0  0  0  0  0
   16.9088  -56.9069   35.5495 O   0  0  0  0  0  0  0  0  0  0  0  0
   18.7782  -55.7596   33.2297 H   0  0  0  0  0  0  0  0  0  0  0  0
   19.1878  -55.3867   35.2553 N   0  0  0  0  0  0  0  0  0  0  0  0
   19.4475  -55.9972   36.0775 H   0  0  0  0  0  0  0  0  0  0  0  0
   15.1643  -55.6448   38.9413 Br  0  0  0  0  0  0  0  0  0  0  0  0
   16.2431  -54.1421   38.4484 C   0  0  0  0  0  0  0  0  0  0  0  0
   17.2331  -54.2696   37.4744 C   0  0  0  0  0  0  0  0  0  0  0  0
   18.0422  -53.2260   37.0811 C   0  0  0  0  0  0  0  0  0  0  0  0
   17.8367  -52.0143   37.6973 C   0  0  0  0  0  0  0  0  0  0  0  0
   16.8503  -51.8493   38.6805 C   0  0  0  0  0  0  0  0  0  0  0  0
   16.0689  -52.9171   39.0391 C   0  0  0  0  0  0  0  0  0  0  0  0
   18.7696  -51.0928   37.1502 N   0  0  0  0  0  0  0  0  0  0  0  0
   19.5763  -51.7270   36.1749 C   0  0  0  0  0  0  0  0  0  0  0  0
   20.5005  -51.2365   35.4821 O   0  0  0  0  0  0  0  0  0  0  0  0
   19.1298  -53.1275   36.1018 C   0  0  0  0  0  0  0  0  0  0  0  0
   19.6254  -54.0569   35.3138 C   0  0  0  0  0  0  0  0  0  0  0  0
   18.8586  -50.0847   37.4185 H   0  0  0  0  0  0  0  0  0  0  0  0
   16.5003  -57.2519   33.2561 C   0  0  0  0  0  0  0  0  0  0  0  0
   16.3653  -58.6311   33.3295 N   0  0  0  0  0  0  0  0  0  0  0  0
   15.3388  -59.4120   33.6631 C   0  0  0  0  0  0  0  0  0  0  0  0
   15.7539  -60.7366   33.6329 C   0  0  0  0  0  0  0  0  0  0  0  0
   17.0511  -60.7266   33.2724 N   0  0  0  0  0  0  0  0  0  0  0  0
   17.4161  -59.4780   33.0908 C   0  0  0  0  0  0  0  0  0  0  0  0
   14.8622  -61.7468   33.9337 C   0  0  0  0  0  0  0  0  0  0  0  0
   15.2685  -62.9371   33.9006 O   0  0  0  0  0  0  0  0  0  0  0  0
   13.6232  -61.3966   34.2442 N   0  0  0  0  0  0  0  0  0  0  0  0
   13.2314  -60.1103   34.2678 C   0  0  0  0  0  0  0  0  0  0  0  0
   12.0481  -59.8225   34.5659 O   0  0  0  0  0  0  0  0  0  0  0  0
   14.0713  -59.0764   33.9793 N   0  0  0  0  0  0  0  0  0  0  0  0
   13.6131  -57.7166   33.9780 C   0  0  0  0  0  0  0  0  0  0  0  0
   12.6329  -62.4345   34.5761 C   0  0  0  0  0  0  0  0  0  0  0  0
  7  8  1  0  0  0
  8  9  2  0  0  0
  8 13  1  0  0  0
  9 10  1  0  0  0
 10 11  2  0  0  0
 10 17  1  0  0  0
 11 12  1  0  0  0
 11 14  1  0  0  0
 12 13  2  0  0  0
 14 15  1  0  0  0
 15 16  2  0  0  0
 15 17  1  0  0  0
 17 18  2  0  0  0
 18  5  1  0  0  0
  5  1  1  0  0  0
  1  2  1  0  0  0
  2  3  2  0  0  0
  2 20  1  0  0  0
 20 21  1  0  0  0
 21 22  1  0  0  0
 21 25  1  0  0  0
 22 23  2  0  0  0
 22 31  1  0  0  0
 23 24  1  0  0  0
 23 26  1  0  0  0
 24 25  2  0  0  0
 26 27  2  0  0  0
 26 28  1  0  0  0
 28 29  1  0  0  0
 28 33  1  0  0  0
 29 30  2  0  0  0
 29 31  1  0  0  0
 31 32  1  0  0  0
 14 19  1  0  0  0
  5  6  1  0  0  0
  1  4  1  0  0  0
M  END
> <minimizedAffinity>
-10.40349

$$$$
526


 31 34  0  0  0  0  0  0  0  0999 V2000
   15.0721  -57.5050   37.8577 N   0  0  0  0  0  0  0  0  0  0  0  0
   14.3039  -58.0423   36.8082 C   0  0  0  0  0  0  0  0  0  0  0  0
   14.3067  -57.4293   35.6820 O   0  0  0  0  0  0  0  0  0  0  0  0
   15.0703  -57.9914   38.7952 H   0  0  0  0  0  0  0  0  0  0  0  0
   19.8649  -52.9174   35.1162 Br  0  0  0  0  0  0  0  0  0  0  0  0
   18.5470  -53.0098   36.4787 C   0  0  0  0  0  0  0  0  0  0  0  0
   17.8029  -54.1351   36.6912 C   0  0  0  0  0  0  0  0  0  0  0  0
   16.8462  -54.1885   37.6815 C   0  0  0  0  0  0  0  0  0  0  0  0
   16.5875  -53.1353   38.5002 C   0  0  0  0  0  0  0  0  0  0  0  0
   17.3453  -51.9787   38.2898 C   0  0  0  0  0  0  0  0  0  0  0  0
   18.2991  -51.9203   37.3052 C   0  0  0  0  0  0  0  0  0  0  0  0
   15.5680  -53.4309   39.4302 N   0  0  0  0  0  0  0  0  0  0  0  0
   15.1137  -54.7695   39.2147 C   0  0  0  0  0  0  0  0  0  0  0  0
   14.2464  -55.4306   39.7893 O   0  0  0  0  0  0  0  0  0  0  0  0
   15.9389  -55.2733   38.0765 C   0  0  0  0  0  0  0  0  0  0  0  0
   15.7985  -56.3837   37.6688 N   0  0  0  0  0  0  0  0  0  0  0  0
   15.1745  -52.8009   40.1696 H   0  0  0  0  0  0  0  0  0  0  0  0
   13.4824  -59.2560   36.8349 C   0  0  0  0  0  0  0  0  0  0  0  0
   13.2675  -59.8504   38.1238 N   0  0  0  0  0  0  0  0  0  0  0  0
   11.9580  -60.0801   38.6317 C   0  0  0  0  0  0  0  0  0  0  0  0
   10.9871  -59.7153   37.8605 O   0  0  0  0  0  0  0  0  0  0  0  0
   14.0485  -60.1187   38.7418 H   0  0  0  0  0  0  0  0  0  0  0  0
   11.6263  -60.6638   39.8951 C   0  0  0  0  0  0  0  0  0  0  0  0
   11.2667  -61.9876   40.0999 C   0  0  0  0  0  0  0  0  0  0  0  0
   10.9720  -62.4794   41.3256 C   0  0  0  0  0  0  0  0  0  0  0  0
   11.0163  -61.6746   42.4464 C   0  0  0  0  0  0  0  0  0  0  0  0
   11.3598  -60.3685   42.2928 C   0  0  0  0  0  0  0  0  0  0  0  0
   11.6718  -59.8415   41.0306 C   0  0  0  0  0  0  0  0  0  0  0  0
   10.6745  -62.4511   43.5657 O   0  0  0  0  0  0  0  0  0  0  0  0
   11.1679  -63.7589   43.1875 C   0  0  0  0  0  0  0  0  0  0  0  0
   10.5864  -63.7749   41.8350 O   0  0  0  0  0  0  0  0  0  0  0  0
  5  6  1  0  0  0
  6  7  2  0  0  0
  6 11  1  0  0  0
  7  8  1  0  0  0
  8  9  2  0  0  0
  8 15  1  0  0  0
  9 10  1  0  0  0
  9 12  1  0  0  0
 10 11  2  0  0  0
 12 13  1  0  0  0
 13 14  2  0  0  0
 13 15  1  0  0  0
 15 16  2  0  0  0
 16  1  1  0  0  0
  1  2  1  0  0  0
  2  3  2  0  0  0
  2 18  1  0  0  0
 18 19  1  0  0  0
 19 20  1  0  0  0
 20 21  2  0  0  0
 20 23  1  0  0  0
 23 24  2  0  0  0
 23 28  1  0  0  0
 24 25  1  0  0  0
 25 26  2  0  0  0
 25 31  1  0  0  0
 26 27  1  0  0  0
 26 29  1  0  0  0
 27 28  2  0  0  0
 29 30  1  0  0  0
 30 31  1  0  0  0
 12 17  1  0  0  0
  1  4  1  0  0  0
 19 22  1  0  0  0
M  END
> <minimizedAffinity>
-9.98415

$$$$
550


 30 35  0  0  0  0  0  0  0  0999 V2000
   16.5921  -51.8379   38.0896 Br  0  0  0  0  0  0  0  0  0  0  0  0
   17.6066  -53.1393   37.1330 C   0  0  0  0  0  0  0  0  0  0  0  0
   17.0203  -54.2697   36.5761 C   0  0  0  0  0  0  0  0  0  0  0  0
   17.7544  -55.2000   35.8908 C   0  0  0  0  0  0  0  0  0  0  0  0
   19.1169  -54.9708   35.7709 C   0  0  0  0  0  0  0  0  0  0  0  0
   19.7054  -53.8516   36.3212 C   0  0  0  0  0  0  0  0  0  0  0  0
   18.9575  -52.9241   37.0083 C   0  0  0  0  0  0  0  0  0  0  0  0
   19.7303  -56.0277   35.0284 N   0  0  0  0  0  0  0  0  0  0  0  0
   18.7350  -56.9593   34.6622 C   0  0  0  0  0  0  0  0  0  0  0  0
   18.9486  -57.9882   34.0052 O   0  0  0  0  0  0  0  0  0  0  0  0
   17.4563  -56.4566   35.2083 C   0  0  0  0  0  0  0  0  0  0  0  0
   16.9040  -57.4987   36.0206 N   0  0  0  0  0  0  0  0  0  0  0  0
   16.3781  -58.4608   35.0542 C   0  0  0  0  0  0  0  0  0  0  0  0
   15.9198  -57.6662   33.8759 C   0  0  0  0  0  0  0  0  0  0  0  0
   16.4023  -56.2827   34.1433 C   0  0  0  0  0  0  0  0  0  0  0  0
   16.9332  -55.8149   32.8671 C   0  0  0  0  0  0  0  0  0  0  0  0
   17.3107  -54.6513   32.6030 O   0  0  0  0  0  0  0  0  0  0  0  0
   16.9629  -56.8834   31.9541 N   0  0  0  0  0  0  0  0  0  0  0  0
   16.5744  -58.1047   32.6020 C   0  0  0  0  0  0  0  0  0  0  0  0
   16.7344  -59.2900   32.2170 O   0  0  0  0  0  0  0  0  0  0  0  0
   15.1546  -59.0755   35.7179 C   0  0  0  0  0  0  0  0  0  0  0  0
   15.0625  -58.4426   37.0907 C   0  0  0  0  0  0  0  0  0  0  0  0
   15.7637  -57.1042   36.8213 C   0  0  0  0  0  0  0  0  0  0  0  0
   20.7670  -56.0821   34.8025 H   0  0  0  0  0  0  0  0  0  0  0  0
   17.3226  -56.8016   30.5735 C   0  0  0  0  0  0  0  0  0  0  0  0
   18.7459  -56.4723   30.3067 C   0  0  0  0  0  0  0  0  0  0  0  0
   18.9994  -56.0982   28.9920 O   0  0  0  0  0  0  0  0  0  0  0  0
   20.3857  -56.0771   28.9187 C   0  0  0  0  0  0  0  0  0  0  0  0
   20.9151  -57.1961   29.7599 C   0  0  0  0  0  0  0  0  0  0  0  0
   19.7305  -57.5322   30.6652 C   0  0  0  0  0  0  0  0  0  0  0  0
  1  2  1  0  0  0
  2  3  2  0  0  0
  2  7  1  0  0  0
  3  4  1  0  0  0
  4  5  2  0  0  0
  4 11  1  0  0  0
  5  6  1  0  0  0
  5  8  1  0  0  0
  6  7  2  0  0  0
  8  9  1  0  0  0
  9 10  2  0  0  0
  9 11  1  0  0  0
 11 12  1  0  0  0
 11 15  1  0  0  0
 12 13  1  0  0  0
 12 23  1  0  0  0
 13 14  1  0  0  0
 13 21  1  0  0  0
 14 15  1  0  0  0
 14 19  1  0  0  0
 15 16  1  0  0  0
 16 17  2  0  0  0
 16 18  1  0  0  0
 18 19  1  0  0  0
 18 25  1  0  0  0
 19 20  2  0  0  0
 25 26  1  0  0  0
 26 27  1  0  0  0
 26 30  1  0  0  0
 27 28  1  0  0  0
 28 29  1  0  0  0
 29 30  1  0  0  0
 21 22  1  0  0  0
 22 23  1  0  0  0
  8 24  1  0  0  0
M  END
> <minimizedAffinity>
-8.66969

$$$$
556


 30 33  0  0  0  0  0  0  0  0999 V2000
   16.8324  -51.3970   37.6667 Br  0  0  0  0  0  0  0  0  0  0  0  0
   17.7974  -52.9752   37.2028 C   0  0  0  0  0  0  0  0  0  0  0  0
   17.3875  -53.6536   36.0812 C   0  0  0  0  0  0  0  0  0  0  0  0
   18.0644  -54.8170   35.6996 C   0  0  0  0  0  0  0  0  0  0  0  0
   19.1107  -55.2505   36.4470 C   0  0  0  0  0  0  0  0  0  0  0  0
   19.5471  -54.5701   37.5998 C   0  0  0  0  0  0  0  0  0  0  0  0
   18.8631  -53.4301   37.9505 C   0  0  0  0  0  0  0  0  0  0  0  0
   19.6558  -56.4389   35.9043 N   0  0  0  0  0  0  0  0  0  0  0  0
   18.9137  -56.7617   34.7668 C   0  0  0  0  0  0  0  0  0  0  0  0
   19.0835  -57.7780   33.9877 O   0  0  0  0  0  0  0  0  0  0  0  0
   17.8599  -55.7203   34.5785 C   0  0  0  0  0  0  0  0  0  0  0  0
   18.0635  -55.1819   33.2591 C   0  0  0  0  0  0  0  0  0  0  0  0
   17.1694  -55.3817   32.2751 C   0  0  0  0  0  0  0  0  0  0  0  0
   17.6556  -54.7449   31.1587 N   0  0  0  0  0  0  0  0  0  0  0  0
   18.8046  -54.1827   31.4663 N   0  0  0  0  0  0  0  0  0  0  0  0
   19.1221  -54.4079   32.7417 C   0  0  0  0  0  0  0  0  0  0  0  0
   20.3277  -53.9557   33.4946 C   0  0  0  0  0  0  0  0  0  0  0  0
   15.9828  -56.1183   32.4453 O   0  0  0  0  0  0  0  0  0  0  0  0
   15.7676  -56.6464   33.7121 C   0  0  0  0  0  0  0  0  0  0  0  0
   16.5958  -56.4865   34.6994 C   0  0  0  0  0  0  0  0  0  0  0  0
   14.5707  -57.4158   33.9658 N   0  0  0  0  0  0  0  0  0  0  0  0
   20.4741  -57.0072   36.2660 H   0  0  0  0  0  0  0  0  0  0  0  0
   17.1889  -54.7159   30.2239 H   0  0  0  0  0  0  0  0  0  0  0  0
   14.6425  -58.4358   33.9530 H   0  0  0  0  0  0  0  0  0  0  0  0
   13.6935  -56.9281   34.1505 H   0  0  0  0  0  0  0  0  0  0  0  0
   16.2692  -57.0956   36.0213 C   0  0  0  0  0  0  0  0  0  0  0  0
   16.7886  -58.1910   36.3006 O   0  0  0  0  0  0  0  0  0  0  0  0
   15.4343  -56.5078   36.9319 O   0  0  0  0  0  0  0  0  0  0  0  0
   15.7633  -56.2535   38.2766 C   0  0  0  0  0  0  0  0  0  0  0  0
   14.9930  -54.9993   38.7025 C   0  0  0  0  0  0  0  0  0  0  0  0
  1  2  1  0  0  0
  2  3  2  0  0  0
  2  7  1  0  0  0
  3  4  1  0  0  0
  4  5  2  0  0  0
  4 11  1  0  0  0
  5  6  1  0  0  0
  5  8  1  0  0  0
  6  7  2  0  0  0
  8  9  1  0  0  0
  9 10  2  0  0  0
  9 11  1  0  0  0
 11 12  1  0  0  0
 11 20  1  0  0  0
 12 13  2  0  0  0
 12 16  1  0  0  0
 13 14  1  0  0  0
 13 18  1  0  0  0
 14 15  1  0  0  0
 15 16  2  0  0  0
 16 17  1  0  0  0
 18 19  1  0  0  0
 19 20  2  0  0  0
 19 21  1  0  0  0
 20 26  1  0  0  0
 26 27  2  0  0  0
 26 28  1  0  0  0
 28 29  1  0  0  0
 29 30  1  0  0  0
  8 22  1  0  0  0
 14 23  1  0  0  0
 21 24  1  0  0  0
 21 25  1  0  0  0
M  END
> <minimizedAffinity>
-5.82157

$$$$
558


 29 32  0  0  0  0  0  0  0  0999 V2000
    7.9200  -62.3439   32.0945 Br  0  0  0  0  0  0  0  0  0  0  0  0
    9.6082  -63.1565   32.4052 C   0  0  0  0  0  0  0  0  0  0  0  0
   10.5372  -62.6198   33.3024 C   0  0  0  0  0  0  0  0  0  0  0  0
   11.7524  -63.2126   33.5211 C   0  0  0  0  0  0  0  0  0  0  0  0
   12.0696  -64.3551   32.8468 C   0  0  0  0  0  0  0  0  0  0  0  0
   11.1727  -64.9315   31.9367 C   0  0  0  0  0  0  0  0  0  0  0  0
    9.9605  -64.3150   31.7387 C   0  0  0  0  0  0  0  0  0  0  0  0
   13.3623  -64.8117   33.2070 N   0  0  0  0  0  0  0  0  0  0  0  0
   13.8786  -63.9091   34.1531 C   0  0  0  0  0  0  0  0  0  0  0  0
   14.9979  -63.9465   34.7290 O   0  0  0  0  0  0  0  0  0  0  0  0
   12.8787  -62.8469   34.3988 C   0  0  0  0  0  0  0  0  0  0  0  0
   13.4526  -61.5199   34.0033 C   0  0  0  0  0  0  0  0  0  0  0  0
   13.5479  -60.4732   34.7804 C   0  0  0  0  0  0  0  0  0  0  0  0
   13.0752  -60.5816   36.1096 N   0  0  0  0  0  0  0  0  0  0  0  0
   12.5151  -61.7996   36.5745 C   0  0  0  0  0  0  0  0  0  0  0  0
   12.4181  -62.8506   35.7980 C   0  0  0  0  0  0  0  0  0  0  0  0
   12.0362  -61.8871   37.9443 N   0  0  0  0  0  0  0  0  0  0  0  0
   14.1703  -59.3693   34.0096 C   0  0  0  0  0  0  0  0  0  0  0  0
   14.4286  -59.8613   32.7200 O   0  0  0  0  0  0  0  0  0  0  0  0
   14.0026  -61.1746   32.6807 C   0  0  0  0  0  0  0  0  0  0  0  0
   14.0799  -61.9427   31.6608 O   0  0  0  0  0  0  0  0  0  0  0  0
   15.5288  -58.9907   34.6039 C   0  0  0  0  0  0  0  0  0  0  0  0
   13.2623  -58.1482   33.9711 C   0  0  0  0  0  0  0  0  0  0  0  0
   13.8381  -65.6854   32.8188 H   0  0  0  0  0  0  0  0  0  0  0  0
   13.1256  -59.7719   36.7803 H   0  0  0  0  0  0  0  0  0  0  0  0
   11.3198  -62.5640   38.2536 H   0  0  0  0  0  0  0  0  0  0  0  0
   12.4402  -61.2351   38.6359 H   0  0  0  0  0  0  0  0  0  0  0  0
   11.8267  -64.0707   36.3558 C   0  0  0  0  0  0  0  0  0  0  0  0
   11.3547  -65.0228   36.8116 N   0  0  0  0  0  0  0  0  0  0  0  0
  1  2  1  0  0  0
  2  3  2  0  0  0
  2  7  1  0  0  0
  3  4  1  0  0  0
  4  5  2  0  0  0
  4 11  1  0  0  0
  5  6  1  0  0  0
  5  8  1  0  0  0
  6  7  2  0  0  0
  8  9  1  0  0  0
  9 10  2  0  0  0
  9 11  1  0  0  0
 11 12  1  0  0  0
 11 16  1  0  0  0
 12 13  2  0  0  0
 12 20  1  0  0  0
 13 14  1  0  0  0
 13 18  1  0  0  0
 14 15  1  0  0  0
 15 16  2  0  0  0
 15 17  1  0  0  0
 16 28  1  0  0  0
 28 29  3  0  0  0
 18 19  1  0  0  0
 18 22  1  0  0  0
 18 23  1  0  0  0
 19 20  1  0  0  0
 20 21  2  0  0  0
  8 24  1  0  0  0
 14 25  1  0  0  0
 17 26  1  0  0  0
 17 27  1  0  0  0
M  END
> <minimizedAffinity>
-5.79732

$$$$
559


 32 35  0  0  0  0  0  0  0  0999 V2000
   20.2051  -54.3389   36.2470 Br  0  0  0  0  0  0  0  0  0  0  0  0
   19.6314  -54.7480   34.4614 C   0  0  0  0  0  0  0  0  0  0  0  0
   18.8295  -55.8405   34.1874 C   0  0  0  0  0  0  0  0  0  0  0  0
   18.4124  -56.1429   32.9073 C   0  0  0  0  0  0  0  0  0  0  0  0
   18.8395  -55.2944   31.9069 C   0  0  0  0  0  0  0  0  0  0  0  0
   19.6470  -54.1944   32.1786 C   0  0  0  0  0  0  0  0  0  0  0  0
   20.0440  -53.9181   33.4509 C   0  0  0  0  0  0  0  0  0  0  0  0
   18.3202  -55.7622   30.6520 N   0  0  0  0  0  0  0  0  0  0  0  0
   17.5518  -56.9314   30.8759 C   0  0  0  0  0  0  0  0  0  0  0  0
   16.9759  -57.5785   29.9705 O   0  0  0  0  0  0  0  0  0  0  0  0
   17.5704  -57.2138   32.3262 C   0  0  0  0  0  0  0  0  0  0  0  0
   18.0888  -58.5286   32.5914 N   0  0  0  0  0  0  0  0  0  0  0  0
   16.9604  -59.4029   32.3484 C   0  0  0  0  0  0  0  0  0  0  0  0
   15.8050  -58.6749   32.9821 C   0  0  0  0  0  0  0  0  0  0  0  0
   16.1749  -57.2180   32.8402 C   0  0  0  0  0  0  0  0  0  0  0  0
   15.9873  -56.6370   34.1771 C   0  0  0  0  0  0  0  0  0  0  0  0
   16.0641  -55.4213   34.4872 O   0  0  0  0  0  0  0  0  0  0  0  0
   15.6912  -57.6858   35.1275 N   0  0  0  0  0  0  0  0  0  0  0  0
   15.6900  -58.9239   34.4354 C   0  0  0  0  0  0  0  0  0  0  0  0
   15.6043  -60.0424   34.9962 O   0  0  0  0  0  0  0  0  0  0  0  0
   18.5078  -55.2829   29.7448 H   0  0  0  0  0  0  0  0  0  0  0  0
   18.3444  -58.5936   33.5899 H   0  0  0  0  0  0  0  0  0  0  0  0
   15.4371  -57.5250   36.5376 C   0  0  0  0  0  0  0  0  0  0  0  0
   16.0443  -56.2536   37.0792 C   0  0  0  0  0  0  0  0  0  0  0  0
   13.9230  -57.5105   36.7684 C   0  0  0  0  0  0  0  0  0  0  0  0
   16.0272  -58.6736   37.3257 C   0  0  0  0  0  0  0  0  0  0  0  0
   17.2143  -60.7641   32.9377 C   0  0  0  0  0  0  0  0  0  0  0  0
   17.0902  -61.8149   31.9142 C   0  0  0  0  0  0  0  0  0  0  0  0
   15.9365  -62.1776   31.5559 O   0  0  0  0  0  0  0  0  0  0  0  0
   18.1843  -62.4630   31.2867 N   0  0  0  0  0  0  0  0  0  0  0  0
   19.0058  -62.8509   31.7726 H   0  0  0  0  0  0  0  0  0  0  0  0
   18.1464  -62.5506   30.2372 H   0  0  0  0  0  0  0  0  0  0  0  0
  1  2  1  0  0  0
  2  3  2  0  0  0
  2  7  1  0  0  0
  3  4  1  0  0  0
  4  5  2  0  0  0
  4 11  1  0  0  0
  5  6  1  0  0  0
  5  8  1  0  0  0
  6  7  2  0  0  0
  8  9  1  0  0  0
  9 10  2  0  0  0
  9 11  1  0  0  0
 11 12  1  0  0  0
 11 15  1  0  0  0
 12 13  1  0  0  0
 13 14  1  0  0  0
 13 27  1  0  0  0
 14 15  1  0  0  0
 14 19  1  0  0  0
 15 16  1  0  0  0
 16 17  2  0  0  0
 16 18  1  0  0  0
 18 19  1  0  0  0
 18 23  1  0  0  0
 19 20  2  0  0  0
 23 24  1  0  0  0
 23 25  1  0  0  0
 23 26  1  0  0  0
 27 28  1  0  0  0
 28 29  2  0  0  0
 28 30  1  0  0  0
  8 21  1  0  0  0
 12 22  1  0  0  0
 30 31  1  0  0  0
 30 32  1  0  0  0
M  END
> <minimizedAffinity>
-7.97462

$$$$
566


 30 33  0  0  0  0  0  0  0  0999 V2000
   19.6291  -54.2178   37.3595 Br  0  0  0  0  0  0  0  0  0  0  0  0
   19.2146  -54.5379   35.5247 C   0  0  0  0  0  0  0  0  0  0  0  0
   18.3242  -55.5185   35.1673 C   0  0  0  0  0  0  0  0  0  0  0  0
   18.0116  -55.7635   33.8178 C   0  0  0  0  0  0  0  0  0  0  0  0
   18.5843  -55.0326   32.8149 C   0  0  0  0  0  0  0  0  0  0  0  0
   19.4940  -54.0300   33.1805 C   0  0  0  0  0  0  0  0  0  0  0  0
   19.7858  -53.8075   34.5060 C   0  0  0  0  0  0  0  0  0  0  0  0
   18.1158  -55.4598   31.5436 N   0  0  0  0  0  0  0  0  0  0  0  0
   17.2011  -56.5148   31.7647 C   0  0  0  0  0  0  0  0  0  0  0  0
   16.6074  -57.1090   30.8046 O   0  0  0  0  0  0  0  0  0  0  0  0
   17.0995  -56.7479   33.1951 C   0  0  0  0  0  0  0  0  0  0  0  0
   15.7473  -56.6356   33.7063 N   0  0  0  0  0  0  0  0  0  0  0  0
   15.1733  -57.9643   33.5955 C   0  0  0  0  0  0  0  0  0  0  0  0
   16.3154  -58.8352   34.0337 C   0  0  0  0  0  0  0  0  0  0  0  0
   17.5373  -58.1639   33.5058 C   0  0  0  0  0  0  0  0  0  0  0  0
   17.9236  -58.9225   32.3057 C   0  0  0  0  0  0  0  0  0  0  0  0
   18.7181  -58.5829   31.3684 O   0  0  0  0  0  0  0  0  0  0  0  0
   17.2591  -60.1796   32.3039 N   0  0  0  0  0  0  0  0  0  0  0  0
   16.3188  -60.1510   33.3588 C   0  0  0  0  0  0  0  0  0  0  0  0
   15.5597  -61.1033   33.7138 O   0  0  0  0  0  0  0  0  0  0  0  0
   18.4283  -55.0312   30.6351 H   0  0  0  0  0  0  0  0  0  0  0  0
   15.1909  -55.9119   33.2165 H   0  0  0  0  0  0  0  0  0  0  0  0
   13.9763  -58.0602   34.4882 C   0  0  0  0  0  0  0  0  0  0  0  0
   13.0036  -57.1816   33.9951 O   0  0  0  0  0  0  0  0  0  0  0  0
   14.3279  -57.5983   35.8809 C   0  0  0  0  0  0  0  0  0  0  0  0
   12.5830  -56.6693   34.7326 H   0  0  0  0  0  0  0  0  0  0  0  0
   17.4951  -61.2859   31.3972 C   0  0  0  0  0  0  0  0  0  0  0  0
   16.5242  -61.3105   30.2614 C   0  0  0  0  0  0  0  0  0  0  0  0
   17.3204  -60.9851   28.9913 C   0  0  0  0  0  0  0  0  0  0  0  0
   16.8967  -59.6549   28.4322 C   0  0  0  0  0  0  0  0  0  0  0  0
  1  2  1  0  0  0
  2  3  2  0  0  0
  2  7  1  0  0  0
  3  4  1  0  0  0
  4  5  2  0  0  0
  4 11  1  0  0  0
  5  6  1  0  0  0
  5  8  1  0  0  0
  6  7  2  0  0  0
  8  9  1  0  0  0
  9 10  2  0  0  0
  9 11  1  0  0  0
 11 12  1  0  0  0
 11 15  1  0  0  0
 12 13  1  0  0  0
 13 14  1  0  0  0
 13 23  1  0  0  0
 14 15  1  0  0  0
 14 19  1  0  0  0
 15 16  1  0  0  0
 16 17  2  0  0  0
 16 18  1  0  0  0
 18 19  1  0  0  0
 18 27  1  0  0  0
 19 20  2  0  0  0
 27 28  1  0  0  0
 28 29  1  0  0  0
 29 30  1  0  0  0
 23 24  1  0  0  0
 23 25  1  0  0  0
  8 21  1  0  0  0
 12 22  1  0  0  0
 24 26  1  0  0  0
M  END
> <minimizedAffinity>
-7.48300

$$$$
571


 34 38  0  0  0  0  0  0  0  0999 V2000
   17.3444  -64.7101   34.1559 Br  0  0  0  0  0  0  0  0  0  0  0  0
   15.6695  -63.8004   34.0420 C   0  0  0  0  0  0  0  0  0  0  0  0
   15.5372  -62.4545   34.3017 C   0  0  0  0  0  0  0  0  0  0  0  0
   14.3027  -61.7922   34.2230 C   0  0  0  0  0  0  0  0  0  0  0  0
   13.2073  -62.5420   33.8704 C   0  0  0  0  0  0  0  0  0  0  0  0
   13.3331  -63.8986   33.6063 C   0  0  0  0  0  0  0  0  0  0  0  0
   14.5502  -64.5381   33.6878 C   0  0  0  0  0  0  0  0  0  0  0  0
   12.0367  -61.7484   33.8462 N   0  0  0  0  0  0  0  0  0  0  0  0
   12.4082  -60.4351   34.2009 C   0  0  0  0  0  0  0  0  0  0  0  0
   11.5751  -59.4882   34.2700 O   0  0  0  0  0  0  0  0  0  0  0  0
   13.8644  -60.4153   34.4528 C   0  0  0  0  0  0  0  0  0  0  0  0
   14.1392  -60.0015   35.8323 N   0  0  0  0  0  0  0  0  0  0  0  0
   15.3926  -59.2830   35.7793 C   0  0  0  0  0  0  0  0  0  0  0  0
   15.5496  -58.7301   34.4179 C   0  0  0  0  0  0  0  0  0  0  0  0
   14.4575  -59.3723   33.5820 C   0  0  0  0  0  0  0  0  0  0  0  0
   15.1083  -59.8000   32.3494 C   0  0  0  0  0  0  0  0  0  0  0  0
   14.5939  -60.4883   31.4332 O   0  0  0  0  0  0  0  0  0  0  0  0
   16.4682  -59.3166   32.3116 N   0  0  0  0  0  0  0  0  0  0  0  0
   16.7877  -59.0950   33.7012 C   0  0  0  0  0  0  0  0  0  0  0  0
   17.9223  -59.1983   34.1909 O   0  0  0  0  0  0  0  0  0  0  0  0
   11.0632  -62.0825   33.6049 H   0  0  0  0  0  0  0  0  0  0  0  0
   14.1985  -60.8251   36.4739 H   0  0  0  0  0  0  0  0  0  0  0  0
   15.4447  -58.2412   36.8717 C   0  0  0  0  0  0  0  0  0  0  0  0
   15.7079  -58.8443   38.0866 O   0  0  0  0  0  0  0  0  0  0  0  0
   16.4133  -57.1271   36.5575 C   0  0  0  0  0  0  0  0  0  0  0  0
   15.8303  -58.1978   38.8073 H   0  0  0  0  0  0  0  0  0  0  0  0
   17.3114  -59.0719   31.1854 C   0  0  0  0  0  0  0  0  0  0  0  0
   17.4080  -57.6448   30.7303 C   0  0  0  0  0  0  0  0  0  0  0  0
   17.6992  -56.6702   31.7958 C   0  0  0  0  0  0  0  0  0  0  0  0
   16.6525  -55.9705   32.3837 C   0  0  0  0  0  0  0  0  0  0  0  0
   16.9044  -55.0907   33.3823 C   0  0  0  0  0  0  0  0  0  0  0  0
   18.1633  -54.8517   33.8526 C   0  0  0  0  0  0  0  0  0  0  0  0
   19.2002  -55.5557   33.2595 C   0  0  0  0  0  0  0  0  0  0  0  0
   18.9721  -56.4470   32.2508 C   0  0  0  0  0  0  0  0  0  0  0  0
  1  2  1  0  0  0
  2  3  2  0  0  0
  2  7  1  0  0  0
  3  4  1  0  0  0
  4  5  2  0  0  0
  4 11  1  0  0  0
  5  6  1  0  0  0
  5  8  1  0  0  0
  6  7  2  0  0  0
  8  9  1  0  0  0
  9 10  2  0  0  0
  9 11  1  0  0  0
 11 12  1  0  0  0
 11 15  1  0  0  0
 12 13  1  0  0  0
 13 14  1  0  0  0
 13 23  1  0  0  0
 14 15  1  0  0  0
 14 19  1  0  0  0
 15 16  1  0  0  0
 16 17  2  0  0  0
 16 18  1  0  0  0
 18 19  1  0  0  0
 18 27  1  0  0  0
 19 20  2  0  0  0
 27 28  1  0  0  0
 28 29  1  0  0  0
 29 30  2  0  0  0
 29 34  1  0  0  0
 30 31  1  0  0  0
 31 32  2  0  0  0
 32 33  1  0  0  0
 33 34  2  0  0  0
 23 24  1  0  0  0
 23 25  1  0  0  0
  8 21  1  0  0  0
 12 22  1  0  0  0
 24 26  1  0  0  0
M  END
> <minimizedAffinity>
-7.53441

$$$$
578


 27 30  0  0  0  0  0  0  0  0999 V2000
   14.7160  -55.4106   39.2910 Br  0  0  0  0  0  0  0  0  0  0  0  0
   16.2991  -55.0265   38.2942 C   0  0  0  0  0  0  0  0  0  0  0  0
   16.4400  -55.3847   36.9771 C   0  0  0  0  0  0  0  0  0  0  0  0
   17.5898  -55.1190   36.2125 C   0  0  0  0  0  0  0  0  0  0  0  0
   18.6064  -54.4658   36.8422 C   0  0  0  0  0  0  0  0  0  0  0  0
   18.4801  -54.0914   38.1932 C   0  0  0  0  0  0  0  0  0  0  0  0
   17.3418  -54.3664   38.9142 C   0  0  0  0  0  0  0  0  0  0  0  0
   19.6959  -54.2543   35.9549 N   0  0  0  0  0  0  0  0  0  0  0  0
   19.3339  -54.8051   34.7098 C   0  0  0  0  0  0  0  0  0  0  0  0
   20.0591  -54.7959   33.6485 O   0  0  0  0  0  0  0  0  0  0  0  0
   17.9860  -55.3860   34.8458 C   0  0  0  0  0  0  0  0  0  0  0  0
   17.1713  -54.5871   33.9128 N   0  0  0  0  0  0  0  0  0  0  0  0
   16.9796  -55.3432   32.7146 C   0  0  0  0  0  0  0  0  0  0  0  0
   17.0445  -56.7588   33.1560 C   0  0  0  0  0  0  0  0  0  0  0  0
   17.9075  -56.7955   34.3881 C   0  0  0  0  0  0  0  0  0  0  0  0
   17.2482  -57.7592   35.2395 C   0  0  0  0  0  0  0  0  0  0  0  0
   17.7642  -58.3000   36.2615 O   0  0  0  0  0  0  0  0  0  0  0  0
   15.9380  -57.9979   34.7447 N   0  0  0  0  0  0  0  0  0  0  0  0
   15.6813  -57.1592   33.6277 C   0  0  0  0  0  0  0  0  0  0  0  0
   14.5489  -56.8675   33.1948 O   0  0  0  0  0  0  0  0  0  0  0  0
   17.9489  -55.0214   31.6014 C   0  0  0  0  0  0  0  0  0  0  0  0
   20.6185  -53.7738   36.1696 H   0  0  0  0  0  0  0  0  0  0  0  0
   16.2653  -54.3123   34.3522 H   0  0  0  0  0  0  0  0  0  0  0  0
   15.0352  -58.9738   35.3403 C   0  0  0  0  0  0  0  0  0  0  0  0
   14.1088  -58.3467   36.3376 C   0  0  0  0  0  0  0  0  0  0  0  0
   14.3703  -58.7913   37.7514 C   0  0  0  0  0  0  0  0  0  0  0  0
   13.0061  -58.8463   38.4481 C   0  0  0  0  0  0  0  0  0  0  0  0
  1  2  1  0  0  0
  2  3  2  0  0  0
  2  7  1  0  0  0
  3  4  1  0  0  0
  4  5  2  0  0  0
  4 11  1  0  0  0
  5  6  1  0  0  0
  5  8  1  0  0  0
  6  7  2  0  0  0
  8  9  1  0  0  0
  9 10  2  0  0  0
  9 11  1  0  0  0
 11 12  1  0  0  0
 11 15  1  0  0  0
 12 13  1  0  0  0
 13 14  1  0  0  0
 13 21  1  0  0  0
 14 15  1  0  0  0
 14 19  1  0  0  0
 15 16  1  0  0  0
 16 17  2  0  0  0
 16 18  1  0  0  0
 18 19  1  0  0  0
 18 24  1  0  0  0
 19 20  2  0  0  0
 24 25  1  0  0  0
 25 26  1  0  0  0
 26 27  1  0  0  0
  8 22  1  0  0  0
 12 23  1  0  0  0
M  END
> <minimizedAffinity>
-8.16888

$$$$
579


 32 35  0  0  0  0  0  0  0  0999 V2000
   14.6769  -55.1753   39.2011 Br  0  0  0  0  0  0  0  0  0  0  0  0
   15.5698  -56.3190   37.9633 C   0  0  0  0  0  0  0  0  0  0  0  0
   16.3198  -55.8420   36.9114 C   0  0  0  0  0  0  0  0  0  0  0  0
   16.9708  -56.6837   36.0102 C   0  0  0  0  0  0  0  0  0  0  0  0
   16.8653  -58.0430   36.1676 C   0  0  0  0  0  0  0  0  0  0  0  0
   16.1170  -58.5530   37.2164 C   0  0  0  0  0  0  0  0  0  0  0  0
   15.4742  -57.6854   38.1073 C   0  0  0  0  0  0  0  0  0  0  0  0
   17.6083  -58.7154   35.1465 N   0  0  0  0  0  0  0  0  0  0  0  0
   18.2042  -57.7351   34.3138 C   0  0  0  0  0  0  0  0  0  0  0  0
   18.9262  -58.0143   33.3371 O   0  0  0  0  0  0  0  0  0  0  0  0
   17.8193  -56.4241   34.8115 C   0  0  0  0  0  0  0  0  0  0  0  0
   19.0477  -55.7281   35.1926 N   0  0  0  0  0  0  0  0  0  0  0  0
   18.8534  -54.3615   34.8100 C   0  0  0  0  0  0  0  0  0  0  0  0
   18.0882  -54.4519   33.5405 C   0  0  0  0  0  0  0  0  0  0  0  0
   17.0928  -55.5503   33.8332 C   0  0  0  0  0  0  0  0  0  0  0  0
   16.8100  -56.1470   32.5350 C   0  0  0  0  0  0  0  0  0  0  0  0
   15.8304  -56.8723   32.2593 O   0  0  0  0  0  0  0  0  0  0  0  0
   17.8465  -55.7579   31.6421 N   0  0  0  0  0  0  0  0  0  0  0  0
   18.8378  -55.0140   32.3900 C   0  0  0  0  0  0  0  0  0  0  0  0
   20.0261  -54.9394   32.0378 O   0  0  0  0  0  0  0  0  0  0  0  0
   17.6803  -59.7669   35.0547 H   0  0  0  0  0  0  0  0  0  0  0  0
   19.8614  -56.1015   34.6480 H   0  0  0  0  0  0  0  0  0  0  0  0
   17.8673  -56.0680   30.2419 C   0  0  0  0  0  0  0  0  0  0  0  0
   18.2682  -57.4646   29.9017 C   0  0  0  0  0  0  0  0  0  0  0  0
   17.1904  -58.3093   29.6934 O   0  0  0  0  0  0  0  0  0  0  0  0
   17.3131  -59.4897   30.4226 C   0  0  0  0  0  0  0  0  0  0  0  0
   20.1139  -53.5696   34.7436 C   0  0  0  0  0  0  0  0  0  0  0  0
   19.9955  -52.3723   35.5832 C   0  0  0  0  0  0  0  0  0  0  0  0
   20.4720  -51.2746   35.1773 O   0  0  0  0  0  0  0  0  0  0  0  0
   19.3482  -52.4297   36.8529 N   0  0  0  0  0  0  0  0  0  0  0  0
   18.8579  -51.5934   37.2300 H   0  0  0  0  0  0  0  0  0  0  0  0
   19.3701  -53.3151   37.3990 H   0  0  0  0  0  0  0  0  0  0  0  0
  1  2  1  0  0  0
  2  3  2  0  0  0
  2  7  1  0  0  0
  3  4  1  0  0  0
  4  5  2  0  0  0
  4 11  1  0  0  0
  5  6  1  0  0  0
  5  8  1  0  0  0
  6  7  2  0  0  0
  8  9  1  0  0  0
  9 10  2  0  0  0
  9 11  1  0  0  0
 11 12  1  0  0  0
 11 15  1  0  0  0
 12 13  1  0  0  0
 13 14  1  0  0  0
 13 27  1  0  0  0
 14 15  1  0  0  0
 14 19  1  0  0  0
 15 16  1  0  0  0
 16 17  2  0  0  0
 16 18  1  0  0  0
 18 19  1  0  0  0
 18 23  1  0  0  0
 19 20  2  0  0  0
 23 24  1  0  0  0
 24 25  1  0  0  0
 25 26  1  0  0  0
 27 28  1  0  0  0
 28 29  2  0  0  0
 28 30  1  0  0  0
  8 21  1  0  0  0
 12 22  1  0  0  0
 30 31  1  0  0  0
 30 32  1  0  0  0
M  END
> <minimizedAffinity>
-8.76840

$$$$
588


 24 27  0  0  0  0  0  0  0  0999 V2000
   20.0426  -55.7997   30.7047 Br  0  0  0  0  0  0  0  0  0  0  0  0
   19.2124  -55.6732   32.4151 C   0  0  0  0  0  0  0  0  0  0  0  0
   18.8400  -56.8269   33.0415 C   0  0  0  0  0  0  0  0  0  0  0  0
   18.2342  -56.7646   34.2850 C   0  0  0  0  0  0  0  0  0  0  0  0
   18.0062  -55.5362   34.8931 C   0  0  0  0  0  0  0  0  0  0  0  0
   18.3772  -54.3608   34.2725 C   0  0  0  0  0  0  0  0  0  0  0  0
   18.9754  -54.4713   33.0374 C   0  0  0  0  0  0  0  0  0  0  0  0
   17.3991  -55.3502   36.1559 N   0  0  0  0  0  0  0  0  0  0  0  0
   17.6073  -54.2340   36.8642 N   0  0  0  0  0  0  0  0  0  0  0  0
   16.9160  -54.3723   37.9628 N   0  0  0  0  0  0  0  0  0  0  0  0
   16.2825  -55.5341   37.9675 N   0  0  0  0  0  0  0  0  0  0  0  0
   16.5900  -56.1725   36.8014 C   0  0  0  0  0  0  0  0  0  0  0  0
   16.0346  -57.5314   36.4746 C   0  0  0  0  0  0  0  0  0  0  0  0
   17.0646  -58.3823   35.8843 N   0  0  0  0  0  0  0  0  0  0  0  0
   17.9171  -58.1105   34.7780 C   0  0  0  0  0  0  0  0  0  0  0  0
   18.4390  -59.0899   34.1756 O   0  0  0  0  0  0  0  0  0  0  0  0
   15.0046  -57.3124   35.3996 C   0  0  0  0  0  0  0  0  0  0  0  0
   14.0658  -58.4733   35.3560 C   0  0  0  0  0  0  0  0  0  0  0  0
   13.4120  -58.5126   36.5591 O   0  0  0  0  0  0  0  0  0  0  0  0
   14.1913  -58.8000   37.6470 C   0  0  0  0  0  0  0  0  0  0  0  0
   15.5108  -58.1603   37.7133 C   0  0  0  0  0  0  0  0  0  0  0  0
   13.0011  -58.2228   34.2806 C   0  0  0  0  0  0  0  0  0  0  0  0
   14.7337  -59.7722   34.9920 C   0  0  0  0  0  0  0  0  0  0  0  0
   17.2124  -59.3394   36.3271 H   0  0  0  0  0  0  0  0  0  0  0  0
  1  2  1  0  0  0
  2  3  2  0  0  0
  2  7  1  0  0  0
  3  4  1  0  0  0
  4  5  2  0  0  0
  4 15  1  0  0  0
  5  6  1  0  0  0
  5  8  1  0  0  0
  6  7  2  0  0  0
  8  9  1  0  0  0
  8 12  1  0  0  0
  9 10  2  0  0  0
 10 11  1  0  0  0
 11 12  2  0  0  0
 12 13  1  0  0  0
 13 14  1  0  0  0
 13 17  1  0  0  0
 13 21  1  0  0  0
 14 15  1  0  0  0
 15 16  2  0  0  0
 17 18  1  0  0  0
 18 19  1  0  0  0
 18 22  1  0  0  0
 18 23  1  0  0  0
 19 20  1  0  0  0
 20 21  1  0  0  0
 14 24  1  0  0  0
M  END
> <minimizedAffinity>
-9.15193

$$$$
591


 23 26  0  0  0  0  0  0  0  0999 V2000
   19.1984  -57.2406   29.8042 Br  0  0  0  0  0  0  0  0  0  0  0  0
   19.2838  -55.9834   31.2529 C   0  0  0  0  0  0  0  0  0  0  0  0
   18.2607  -55.9091   32.1738 C   0  0  0  0  0  0  0  0  0  0  0  0
   18.3273  -55.0045   33.2130 C   0  0  0  0  0  0  0  0  0  0  0  0
   19.3932  -54.1425   33.3876 C   0  0  0  0  0  0  0  0  0  0  0  0
   20.4172  -54.2305   32.4477 C   0  0  0  0  0  0  0  0  0  0  0  0
   20.3583  -55.1332   31.4068 C   0  0  0  0  0  0  0  0  0  0  0  0
   19.6156  -53.1694   34.3817 N   0  0  0  0  0  0  0  0  0  0  0  0
   20.5471  -52.2340   34.2924 N   0  0  0  0  0  0  0  0  0  0  0  0
   20.4832  -51.4956   35.3892 N   0  0  0  0  0  0  0  0  0  0  0  0
   19.5252  -51.9624   36.1537 N   0  0  0  0  0  0  0  0  0  0  0  0
   18.9489  -53.0290   35.5459 C   0  0  0  0  0  0  0  0  0  0  0  0
   17.8451  -53.7462   36.1869 C   0  0  0  0  0  0  0  0  0  0  0  0
   16.9174  -54.3933   35.3250 N   0  0  0  0  0  0  0  0  0  0  0  0
   17.1602  -55.0581   34.0958 C   0  0  0  0  0  0  0  0  0  0  0  0
   16.2717  -55.8276   33.6413 O   0  0  0  0  0  0  0  0  0  0  0  0
   18.3600  -54.8228   37.1548 C   0  0  0  0  0  0  0  0  0  0  0  0
   17.3981  -54.9341   38.3104 C   0  0  0  0  0  0  0  0  0  0  0  0
   17.6486  -53.8169   39.1928 N   0  0  0  0  0  0  0  0  0  0  0  0
   17.7039  -52.6075   38.4152 C   0  0  0  0  0  0  0  0  0  0  0  0
   17.0781  -52.7503   37.0497 C   0  0  0  0  0  0  0  0  0  0  0  0
   18.9112  -54.0740   39.8839 C   0  0  0  0  0  0  0  0  0  0  0  0
   15.9268  -54.3753   35.6430 H   0  0  0  0  0  0  0  0  0  0  0  0
  1  2  1  0  0  0
  2  3  2  0  0  0
  2  7  1  0  0  0
  3  4  1  0  0  0
  4  5  2  0  0  0
  4 15  1  0  0  0
  5  6  1  0  0  0
  5  8  1  0  0  0
  6  7  2  0  0  0
  8  9  1  0  0  0
  8 12  1  0  0  0
  9 10  2  0  0  0
 10 11  1  0  0  0
 11 12  2  0  0  0
 12 13  1  0  0  0
 13 14  1  0  0  0
 13 17  1  0  0  0
 13 21  1  0  0  0
 14 15  1  0  0  0
 15 16  2  0  0  0
 17 18  1  0  0  0
 18 19  1  0  0  0
 19 20  1  0  0  0
 19 22  1  0  0  0
 20 21  1  0  0  0
 14 23  1  0  0  0
M  END
> <minimizedAffinity>
-8.72779

$$$$
592


 27 30  0  0  0  0  0  0  0  0999 V2000
   16.0613  -63.1122   32.9427 Br  0  0  0  0  0  0  0  0  0  0  0  0
   16.4263  -61.3402   32.3646 C   0  0  0  0  0  0  0  0  0  0  0  0
   16.4971  -60.3417   33.2959 C   0  0  0  0  0  0  0  0  0  0  0  0
   16.7654  -59.0370   32.8691 C   0  0  0  0  0  0  0  0  0  0  0  0
   16.9476  -58.8047   31.5461 C   0  0  0  0  0  0  0  0  0  0  0  0
   16.8737  -59.8374   30.5884 C   0  0  0  0  0  0  0  0  0  0  0  0
   16.6092  -61.1175   31.0115 C   0  0  0  0  0  0  0  0  0  0  0  0
   17.2159  -57.5326   31.0738 O   0  0  0  0  0  0  0  0  0  0  0  0
   17.2955  -56.4965   31.9790 C   0  0  0  0  0  0  0  0  0  0  0  0
   17.1316  -56.6445   33.2719 C   0  0  0  0  0  0  0  0  0  0  0  0
   16.8458  -57.9452   33.8620 C   0  0  0  0  0  0  0  0  0  0  0  0
   15.6548  -57.9274   34.7449 C   0  0  0  0  0  0  0  0  0  0  0  0
   16.0536  -58.2217   36.0191 C   0  0  0  0  0  0  0  0  0  0  0  0
   14.9545  -58.2040   36.8295 N   0  0  0  0  0  0  0  0  0  0  0  0
   13.9250  -57.9061   36.0569 N   0  0  0  0  0  0  0  0  0  0  0  0
   14.3030  -57.7296   34.7844 C   0  0  0  0  0  0  0  0  0  0  0  0
   13.3699  -57.3837   33.6696 C   0  0  0  0  0  0  0  0  0  0  0  0
   17.4464  -58.4428   36.0789 N   0  0  0  0  0  0  0  0  0  0  0  0
   17.9554  -58.2818   34.7800 C   0  0  0  0  0  0  0  0  0  0  0  0
   19.1557  -58.3966   34.4143 O   0  0  0  0  0  0  0  0  0  0  0  0
   17.5745  -55.1810   31.4728 N   0  0  0  0  0  0  0  0  0  0  0  0
   12.9481  -57.8298   36.4470 H   0  0  0  0  0  0  0  0  0  0  0  0
   17.9940  -58.6893   36.9692 H   0  0  0  0  0  0  0  0  0  0  0  0
   17.3272  -54.9464   30.4872 H   0  0  0  0  0  0  0  0  0  0  0  0
   18.0207  -54.4396   32.0580 H   0  0  0  0  0  0  0  0  0  0  0  0
   17.2306  -55.5089   34.1574 C   0  0  0  0  0  0  0  0  0  0  0  0
   17.3181  -54.5873   34.8530 N   0  0  0  0  0  0  0  0  0  0  0  0
  1  2  1  0  0  0
  2  3  2  0  0  0
  2  7  1  0  0  0
  3  4  1  0  0  0
  4  5  2  0  0  0
  4 11  1  0  0  0
  5  6  1  0  0  0
  5  8  1  0  0  0
  6  7  2  0  0  0
  8  9  1  0  0  0
  9 10  2  0  0  0
  9 21  1  0  0  0
 10 11  1  0  0  0
 10 26  1  0  0  0
 11 12  1  0  0  0
 11 19  1  0  0  0
 12 13  1  0  0  0
 12 16  2  0  0  0
 13 14  2  0  0  0
 13 18  1  0  0  0
 14 15  1  0  0  0
 15 16  1  0  0  0
 16 17  1  0  0  0
 18 19  1  0  0  0
 19 20  2  0  0  0
 26 27  3  0  0  0
 15 22  1  0  0  0
 18 23  1  0  0  0
 21 24  1  0  0  0
 21 25  1  0  0  0
M  END
> <minimizedAffinity>
-6.57920

$$$$
596


 29 32  0  0  0  0  0  0  0  0999 V2000
   17.9718  -56.3256   33.6751 C   0  0  0  0  0  0  0  0  0  0  0  0
   17.2542  -56.9593   34.6769 C   0  0  0  0  0  0  0  0  0  0  0  0
   17.2267  -56.4359   35.9522 C   0  0  0  0  0  0  0  0  0  0  0  0
   16.5487  -57.0753   36.8172 O   0  0  0  0  0  0  0  0  0  0  0  0
   17.8672  -55.3436   36.2360 O   0  0  0  0  0  0  0  0  0  0  0  0
   18.5463  -54.7101   35.3590 C   0  0  0  0  0  0  0  0  0  0  0  0
   18.6293  -55.1742   34.0322 C   0  0  0  0  0  0  0  0  0  0  0  0
   19.3522  -54.4697   33.1142 C   0  0  0  0  0  0  0  0  0  0  0  0
   19.9927  -53.3018   33.5427 C   0  0  0  0  0  0  0  0  0  0  0  0
   19.8950  -52.8756   34.8523 C   0  0  0  0  0  0  0  0  0  0  0  0
   19.1721  -53.5601   35.8034 C   0  0  0  0  0  0  0  0  0  0  0  0
   20.5837  -51.6879   35.1811 O   0  0  0  0  0  0  0  0  0  0  0  0
   22.1801  -59.5483   28.0184 Br  0  0  0  0  0  0  0  0  0  0  0  0
   20.5438  -58.9407   28.7552 C   0  0  0  0  0  0  0  0  0  0  0  0
   20.4857  -58.3696   30.0135 C   0  0  0  0  0  0  0  0  0  0  0  0
   19.3170  -57.9020   30.5861 C   0  0  0  0  0  0  0  0  0  0  0  0
   18.1544  -58.0165   29.8514 C   0  0  0  0  0  0  0  0  0  0  0  0
   18.1502  -58.5809   28.5845 C   0  0  0  0  0  0  0  0  0  0  0  0
   19.3342  -59.0350   28.0521 C   0  0  0  0  0  0  0  0  0  0  0  0
   17.0122  -57.5736   30.3805 O   0  0  0  0  0  0  0  0  0  0  0  0
   16.9364  -57.0411   31.5489 C   0  0  0  0  0  0  0  0  0  0  0  0
   15.8538  -56.6151   32.0588 O   0  0  0  0  0  0  0  0  0  0  0  0
   18.0613  -56.8990   32.3333 C   0  0  0  0  0  0  0  0  0  0  0  0
   19.2670  -57.3402   31.8372 C   0  0  0  0  0  0  0  0  0  0  0  0
   19.1999  -53.1081   37.1683 C   0  0  0  0  0  0  0  0  0  0  0  0
   18.1258  -53.2389   38.0655 N   0  0  0  0  0  0  0  0  0  0  0  0
   18.3827  -53.8889   39.3209 C   0  0  0  0  0  0  0  0  0  0  0  0
   17.3657  -51.9725   38.2240 C   0  0  0  0  0  0  0  0  0  0  0  0
   17.4155  -53.8779   37.6038 H   0  0  0  0  0  0  0  0  0  0  0  0
 13 14  1  0  0  0
 14 15  2  0  0  0
 14 19  1  0  0  0
 15 16  1  0  0  0
 16 17  2  0  0  0
 16 24  1  0  0  0
 17 18  1  0  0  0
 17 20  1  0  0  0
 18 19  2  0  0  0
 20 21  1  0  0  0
 21 22  2  0  0  0
 21 23  1  0  0  0
 23 24  2  0  0  0
 23  1  1  0  0  0
  1  2  2  0  0  0
  1  7  1  0  0  0
  2  3  1  0  0  0
  3  4  2  0  0  0
  3  5  1  0  0  0
  5  6  1  0  0  0
  6  7  2  0  0  0
  6 11  1  0  0  0
  7  8  1  0  0  0
  8  9  2  0  0  0
  9 10  1  0  0  0
 10 11  2  0  0  0
 10 12  1  0  0  0
 11 25  1  0  0  0
 25 26  1  0  0  0
 26 27  1  0  0  0
 26 28  1  0  0  0
 26 29  1  0  0  0
M  CHG 1  12  -1
M  CHG 1  26   1
M  END
> <minimizedAffinity>
-9.46772

$$$$
610


 32 35  0  0  0  0  0  0  0  0999 V2000
   17.5747  -52.9722   37.4131 Br  0  0  0  0  0  0  0  0  0  0  0  0
   18.4872  -53.4420   35.8045 C   0  0  0  0  0  0  0  0  0  0  0  0
   18.0709  -54.5307   35.0434 C   0  0  0  0  0  0  0  0  0  0  0  0
   18.7336  -54.8729   33.8725 C   0  0  0  0  0  0  0  0  0  0  0  0
   19.8169  -54.1316   33.4524 C   0  0  0  0  0  0  0  0  0  0  0  0
   20.4634  -54.4621   32.3061 N   0  0  0  0  0  0  0  0  0  0  0  0
   20.0782  -55.5065   31.5513 C   0  0  0  0  0  0  0  0  0  0  0  0
   19.0245  -56.2148   31.9749 N   0  0  0  0  0  0  0  0  0  0  0  0
   18.3375  -55.9451   33.1001 C   0  0  0  0  0  0  0  0  0  0  0  0
   20.2136  -53.0508   34.2293 C   0  0  0  0  0  0  0  0  0  0  0  0
   19.5700  -52.6934   35.3941 C   0  0  0  0  0  0  0  0  0  0  0  0
   20.7843  -55.8236   30.3452 N   0  0  0  0  0  0  0  0  0  0  0  0
   20.0180  -55.4076   29.2020 C   0  0  0  0  0  0  0  0  0  0  0  0
   18.8545  -56.2849   28.8867 C   0  0  0  0  0  0  0  0  0  0  0  0
   18.9029  -57.5458   29.5931 N   0  0  0  0  0  0  0  0  0  0  0  0
   20.2071  -58.1497   29.7571 C   0  0  0  0  0  0  0  0  0  0  0  0
   21.2217  -57.1843   30.2866 C   0  0  0  0  0  0  0  0  0  0  0  0
   17.6935  -58.1038   30.0728 C   0  0  0  0  0  0  0  0  0  0  0  0
   16.6013  -57.5219   29.8931 O   0  0  0  0  0  0  0  0  0  0  0  0
   21.6363  -55.1869   30.3651 H   0  0  0  0  0  0  0  0  0  0  0  0
   17.8000  -59.4060   30.7926 C   0  0  0  0  0  0  0  0  0  0  0  0
   16.7287  -60.3619   30.3623 C   0  0  0  0  0  0  0  0  0  0  0  0
   15.8552  -60.7918   31.4649 C   0  0  0  0  0  0  0  0  0  0  0  0
   16.2914  -61.4727   32.4162 O   0  0  0  0  0  0  0  0  0  0  0  0
   14.5226  -60.4346   31.4505 O   0  0  0  0  0  0  0  0  0  0  0  0
   17.2048  -56.7777   33.4713 C   0  0  0  0  0  0  0  0  0  0  0  0
   17.3991  -57.9442   34.1983 C   0  0  0  0  0  0  0  0  0  0  0  0
   16.3491  -58.7518   34.5799 C   0  0  0  0  0  0  0  0  0  0  0  0
   15.0485  -58.4289   34.2522 C   0  0  0  0  0  0  0  0  0  0  0  0
   14.8557  -57.2609   33.5247 C   0  0  0  0  0  0  0  0  0  0  0  0
   15.9108  -56.4600   33.1469 C   0  0  0  0  0  0  0  0  0  0  0  0
   19.0529  -58.3835   34.6318 Cl  0  0  0  0  0  0  0  0  0  0  0  0
  1  2  1  0  0  0
  2  3  2  0  0  0
  2 11  1  0  0  0
  3  4  1  0  0  0
  4  5  2  0  0  0
  4  9  1  0  0  0
  5  6  1  0  0  0
  5 10  1  0  0  0
  6  7  2  0  0  0
  7  8  1  0  0  0
  7 12  1  0  0  0
  8  9  2  0  0  0
  9 26  1  0  0  0
 26 27  2  0  0  0
 26 31  1  0  0  0
 27 28  1  0  0  0
 27 32  1  0  0  0
 28 29  2  0  0  0
 29 30  1  0  0  0
 30 31  2  0  0  0
 12 13  1  0  0  0
 12 17  1  0  0  0
 13 14  1  0  0  0
 14 15  1  0  0  0
 15 16  1  0  0  0
 15 18  1  0  0  0
 16 17  1  0  0  0
 18 19  2  0  0  0
 18 21  1  0  0  0
 21 22  1  0  0  0
 22 23  1  0  0  0
 23 24  2  0  0  0
 23 25  1  0  0  0
 10 11  2  0  0  0
 12 20  1  0  0  0
M  CHG 1  12   1
M  END
> <minimizedAffinity>
-8.31153

$$$$
611


 33 36  0  0  0  0  0  0  0  0999 V2000
   14.8406  -56.5036   39.6463 Br  0  0  0  0  0  0  0  0  0  0  0  0
   15.5117  -56.7853   37.8784 C   0  0  0  0  0  0  0  0  0  0  0  0
   16.3075  -55.8521   37.2379 C   0  0  0  0  0  0  0  0  0  0  0  0
   16.8062  -56.0254   35.9652 C   0  0  0  0  0  0  0  0  0  0  0  0
   16.5132  -57.1823   35.2669 C   0  0  0  0  0  0  0  0  0  0  0  0
   16.9873  -57.3693   34.0102 N   0  0  0  0  0  0  0  0  0  0  0  0
   17.7541  -56.4591   33.3864 C   0  0  0  0  0  0  0  0  0  0  0  0
   18.0411  -55.3336   34.0650 N   0  0  0  0  0  0  0  0  0  0  0  0
   17.5926  -55.0987   35.3206 C   0  0  0  0  0  0  0  0  0  0  0  0
   15.7224  -58.1179   35.8966 C   0  0  0  0  0  0  0  0  0  0  0  0
   15.2218  -57.9372   37.1803 C   0  0  0  0  0  0  0  0  0  0  0  0
   18.2345  -56.6900   32.0668 N   0  0  0  0  0  0  0  0  0  0  0  0
   18.5661  -55.4451   31.4104 C   0  0  0  0  0  0  0  0  0  0  0  0
   19.4636  -55.7436   30.2514 C   0  0  0  0  0  0  0  0  0  0  0  0
   19.3956  -57.1622   29.9662 N   0  0  0  0  0  0  0  0  0  0  0  0
   18.0797  -57.7759   29.9584 C   0  0  0  0  0  0  0  0  0  0  0  0
   17.3032  -57.3948   31.2246 C   0  0  0  0  0  0  0  0  0  0  0  0
   20.5855  -57.8653   29.7148 C   0  0  0  0  0  0  0  0  0  0  0  0
   20.5007  -59.0951   29.4742 O   0  0  0  0  0  0  0  0  0  0  0  0
   19.0918  -57.2752   32.1511 H   0  0  0  0  0  0  0  0  0  0  0  0
   21.8993  -57.2187   29.7260 C   0  0  0  0  0  0  0  0  0  0  0  0
   22.6027  -57.4684   28.4233 C   0  0  0  0  0  0  0  0  0  0  0  0
   22.2176  -56.4710   27.3532 C   0  0  0  0  0  0  0  0  0  0  0  0
   22.9012  -55.1707   27.4999 C   0  0  0  0  0  0  0  0  0  0  0  0
   24.0822  -55.1840   27.9198 O   0  0  0  0  0  0  0  0  0  0  0  0
   22.2379  -53.9961   27.1779 O   0  0  0  0  0  0  0  0  0  0  0  0
   17.9316  -53.8618   36.0078 C   0  0  0  0  0  0  0  0  0  0  0  0
   19.1844  -53.2795   35.8921 C   0  0  0  0  0  0  0  0  0  0  0  0
   19.5251  -52.1144   36.5559 C   0  0  0  0  0  0  0  0  0  0  0  0
   18.5482  -51.5241   37.3664 C   0  0  0  0  0  0  0  0  0  0  0  0
   17.2923  -52.0774   37.5035 C   0  0  0  0  0  0  0  0  0  0  0  0
   17.0025  -53.2230   36.8333 C   0  0  0  0  0  0  0  0  0  0  0  0
   20.3915  -54.0414   34.8688 Cl  0  0  0  0  0  0  0  0  0  0  0  0
  1  2  1  0  0  0
  2  3  2  0  0  0
  2 11  1  0  0  0
  3  4  1  0  0  0
  4  5  2  0  0  0
  4  9  1  0  0  0
  5  6  1  0  0  0
  5 10  1  0  0  0
  6  7  2  0  0  0
  7  8  1  0  0  0
  7 12  1  0  0  0
  8  9  2  0  0  0
  9 27  1  0  0  0
 27 28  2  0  0  0
 27 32  1  0  0  0
 28 29  1  0  0  0
 28 33  1  0  0  0
 29 30  2  0  0  0
 30 31  1  0  0  0
 31 32  2  0  0  0
 12 13  1  0  0  0
 12 17  1  0  0  0
 13 14  1  0  0  0
 14 15  1  0  0  0
 15 16  1  0  0  0
 15 18  1  0  0  0
 16 17  1  0  0  0
 18 19  2  0  0  0
 18 21  1  0  0  0
 21 22  1  0  0  0
 22 23  1  0  0  0
 23 24  1  0  0  0
 24 25  2  0  0  0
 24 26  1  0  0  0
 10 11  2  0  0  0
 12 20  1  0  0  0
M  CHG 1  12   1
M  END
> <minimizedAffinity>
-10.09354

$$$$
616


 28 31  0  0  0  0  0  0  0  0999 V2000
   14.6943  -57.2308   37.5313 C   0  0  0  0  0  0  0  0  0  0  0  0
   14.4787  -57.8607   38.6358 O   0  0  0  0  0  0  0  0  0  0  0  0
   14.1402  -57.8075   36.3881 N   0  0  0  0  0  0  0  0  0  0  0  0
   14.2494  -57.3122   35.0425 C   0  0  0  0  0  0  0  0  0  0  0  0
   13.5630  -58.2365   34.0282 C   0  0  0  0  0  0  0  0  0  0  0  0
   13.9895  -59.6033   34.2857 N   0  0  0  0  0  0  0  0  0  0  0  0
   14.0569  -60.0971   35.6619 C   0  0  0  0  0  0  0  0  0  0  0  0
   13.3372  -59.0526   36.5197 C   0  0  0  0  0  0  0  0  0  0  0  0
   14.3460  -60.4698   33.2293 C   0  0  0  0  0  0  0  0  0  0  0  0
   14.2818  -60.0092   32.0643 O   0  0  0  0  0  0  0  0  0  0  0  0
   19.9896  -51.5455   36.2978 Br  0  0  0  0  0  0  0  0  0  0  0  0
   18.5043  -52.5526   36.9764 C   0  0  0  0  0  0  0  0  0  0  0  0
   18.2134  -53.8118   36.5189 C   0  0  0  0  0  0  0  0  0  0  0  0
   17.1291  -54.5386   37.0181 C   0  0  0  0  0  0  0  0  0  0  0  0
   16.3325  -53.9913   37.9860 C   0  0  0  0  0  0  0  0  0  0  0  0
   15.3525  -54.8944   38.2993 N   0  0  0  0  0  0  0  0  0  0  0  0
   15.4750  -56.0101   37.5753 C   0  0  0  0  0  0  0  0  0  0  0  0
   16.6112  -55.7760   36.7602 C   0  0  0  0  0  0  0  0  0  0  0  0
   16.6191  -52.7225   38.4530 C   0  0  0  0  0  0  0  0  0  0  0  0
   17.6976  -52.0081   37.9512 C   0  0  0  0  0  0  0  0  0  0  0  0
   14.6441  -54.6784   39.0158 H   0  0  0  0  0  0  0  0  0  0  0  0
   14.7658  -61.8292   33.5307 C   0  0  0  0  0  0  0  0  0  0  0  0
   13.9553  -62.8670   32.9331 N   0  0  0  0  0  0  0  0  0  0  0  0
   12.5550  -62.6483   33.3024 C   0  0  0  0  0  0  0  0  0  0  0  0
   12.1715  -63.4856   34.4729 C   0  0  0  0  0  0  0  0  0  0  0  0
   13.2371  -63.6089   35.3613 O   0  0  0  0  0  0  0  0  0  0  0  0
   14.2566  -64.3974   34.8230 C   0  0  0  0  0  0  0  0  0  0  0  0
   14.3657  -64.2030   33.3280 C   0  0  0  0  0  0  0  0  0  0  0  0
 11 12  1  0  0  0
 12 13  2  0  0  0
 12 20  1  0  0  0
 13 14  1  0  0  0
 14 15  2  0  0  0
 14 18  1  0  0  0
 15 16  1  0  0  0
 15 19  1  0  0  0
 16 17  1  0  0  0
 17 18  2  0  0  0
 17  1  1  0  0  0
  1  2  2  0  0  0
  1  3  1  0  0  0
  3  4  1  0  0  0
  3  8  1  0  0  0
  4  5  1  0  0  0
  5  6  1  0  0  0
  6  7  1  0  0  0
  6  9  1  0  0  0
  7  8  1  0  0  0
  9 10  2  0  0  0
  9 22  1  0  0  0
 22 23  1  0  0  0
 23 24  1  0  0  0
 23 28  1  0  0  0
 24 25  1  0  0  0
 25 26  1  0  0  0
 26 27  1  0  0  0
 27 28  1  0  0  0
 19 20  2  0  0  0
 16 21  1  0  0  0
M  END
> <minimizedAffinity>
-8.49091

$$$$
617


 25 28  0  0  0  0  0  0  0  0999 V2000
   20.1612  -51.4308   35.8552 Br  0  0  0  0  0  0  0  0  0  0  0  0
   18.7176  -52.1985   36.8272 C   0  0  0  0  0  0  0  0  0  0  0  0
   18.3206  -53.5024   36.6142 C   0  0  0  0  0  0  0  0  0  0  0  0
   17.2754  -54.0740   37.3109 C   0  0  0  0  0  0  0  0  0  0  0  0
   16.6172  -53.2993   38.2472 C   0  0  0  0  0  0  0  0  0  0  0  0
   15.6622  -54.0934   38.7637 N   0  0  0  0  0  0  0  0  0  0  0  0
   15.6930  -55.3251   38.1963 C   0  0  0  0  0  0  0  0  0  0  0  0
   16.7134  -55.3318   37.2694 C   0  0  0  0  0  0  0  0  0  0  0  0
   16.9376  -56.4618   36.5702 N   0  0  0  0  0  0  0  0  0  0  0  0
   16.1991  -57.5730   36.7524 C   0  0  0  0  0  0  0  0  0  0  0  0
   15.2017  -57.5956   37.6465 N   0  0  0  0  0  0  0  0  0  0  0  0
   14.9615  -56.4808   38.3524 C   0  0  0  0  0  0  0  0  0  0  0  0
   14.0298  -56.4834   39.1954 O   0  0  0  0  0  0  0  0  0  0  0  0
   17.0247  -51.9939   38.4503 C   0  0  0  0  0  0  0  0  0  0  0  0
   18.0684  -51.4138   37.7579 C   0  0  0  0  0  0  0  0  0  0  0  0
   14.9808  -53.8254   39.4978 H   0  0  0  0  0  0  0  0  0  0  0  0
   14.3886  -58.8071   37.8492 C   0  0  0  0  0  0  0  0  0  0  0  0
   13.3129  -58.8838   36.8355 C   0  0  0  0  0  0  0  0  0  0  0  0
   12.0242  -59.2531   37.2967 N   0  0  0  0  0  0  0  0  0  0  0  0
   11.8427  -59.2070   38.7062 C   0  0  0  0  0  0  0  0  0  0  0  0
   12.0256  -60.5375   39.3786 C   0  0  0  0  0  0  0  0  0  0  0  0
   11.5170  -61.6358   38.5852 N   0  0  0  0  0  0  0  0  0  0  0  0
   10.6120  -61.1632   37.5510 C   0  0  0  0  0  0  0  0  0  0  0  0
   11.4454  -60.3433   36.5966 C   0  0  0  0  0  0  0  0  0  0  0  0
   12.2830  -62.2163   38.1737 H   0  0  0  0  0  0  0  0  0  0  0  0
  1  2  1  0  0  0
  2  3  2  0  0  0
  2 15  1  0  0  0
  3  4  1  0  0  0
  4  5  2  0  0  0
  4  8  1  0  0  0
  5  6  1  0  0  0
  5 14  1  0  0  0
  6  7  1  0  0  0
  7  8  2  0  0  0
  7 12  1  0  0  0
  8  9  1  0  0  0
  9 10  2  0  0  0
 10 11  1  0  0  0
 11 12  1  0  0  0
 11 17  1  0  0  0
 12 13  2  0  0  0
 17 18  1  0  0  0
 18 19  1  0  0  0
 19 20  1  0  0  0
 19 24  1  0  0  0
 20 21  1  0  0  0
 21 22  1  0  0  0
 22 23  1  0  0  0
 23 24  1  0  0  0
 14 15  2  0  0  0
  6 16  1  0  0  0
 22 25  1  0  0  0
M  END
> <minimizedAffinity>
-8.71877

$$$$
624


 22 25  0  0  0  0  0  0  0  0999 V2000
   20.3403  -50.6417   36.1499 Br  0  0  0  0  0  0  0  0  0  0  0  0
   19.0272  -51.9048   36.7043 C   0  0  0  0  0  0  0  0  0  0  0  0
   18.1534  -51.5584   37.7135 C   0  0  0  0  0  0  0  0  0  0  0  0
   17.1766  -52.4655   38.1439 C   0  0  0  0  0  0  0  0  0  0  0  0
   17.1197  -53.6805   37.5412 C   0  0  0  0  0  0  0  0  0  0  0  0
   17.9700  -54.0714   36.5302 C   0  0  0  0  0  0  0  0  0  0  0  0
   18.9180  -53.1672   36.1263 C   0  0  0  0  0  0  0  0  0  0  0  0
   17.8014  -55.3276   36.0117 C   0  0  0  0  0  0  0  0  0  0  0  0
   18.5608  -55.6923   35.0991 O   0  0  0  0  0  0  0  0  0  0  0  0
   16.8217  -56.1991   36.4634 C   0  0  0  0  0  0  0  0  0  0  0  0
   16.0042  -55.7468   37.4767 C   0  0  0  0  0  0  0  0  0  0  0  0
   16.1656  -54.4905   38.0033 N   0  0  0  0  0  0  0  0  0  0  0  0
   15.4649  -53.7771   39.0475 C   0  0  0  0  0  0  0  0  0  0  0  0
   16.1157  -52.4256   39.1650 C   0  0  0  0  0  0  0  0  0  0  0  0
   16.6545  -57.5342   35.8992 C   0  0  0  0  0  0  0  0  0  0  0  0
   16.9649  -58.5319   36.5895 O   0  0  0  0  0  0  0  0  0  0  0  0
   16.1423  -57.7112   34.5713 N   0  0  0  0  0  0  0  0  0  0  0  0
   15.9674  -59.0239   33.9877 C   0  0  0  0  0  0  0  0  0  0  0  0
   16.7241  -58.9992   32.6535 C   0  0  0  0  0  0  0  0  0  0  0  0
   16.2966  -57.9269   31.9082 O   0  0  0  0  0  0  0  0  0  0  0  0
   16.5908  -56.6991   32.4627 C   0  0  0  0  0  0  0  0  0  0  0  0
   15.7770  -56.5717   33.7534 C   0  0  0  0  0  0  0  0  0  0  0  0
  1  2  1  0  0  0
  2  3  2  0  0  0
  2  7  1  0  0  0
  3  4  1  0  0  0
  4  5  2  0  0  0
  4 14  1  0  0  0
  5  6  1  0  0  0
  5 12  1  0  0  0
  6  7  2  0  0  0
  6  8  1  0  0  0
  8  9  2  0  0  0
  8 10  1  0  0  0
 10 11  2  0  0  0
 10 15  1  0  0  0
 11 12  1  0  0  0
 12 13  1  0  0  0
 13 14  1  0  0  0
 15 16  2  0  0  0
 15 17  1  0  0  0
 17 18  1  0  0  0
 17 22  1  0  0  0
 18 19  1  0  0  0
 19 20  1  0  0  0
 20 21  1  0  0  0
 21 22  1  0  0  0
M  END
> <minimizedAffinity>
-9.97327

$$$$
625


 31 34  0  0  0  0  0  0  0  0999 V2000
   19.5922  -51.8489   36.2370 Br  0  0  0  0  0  0  0  0  0  0  0  0
   18.5840  -53.4410   36.2444 C   0  0  0  0  0  0  0  0  0  0  0  0
   18.1681  -54.0351   35.0641 C   0  0  0  0  0  0  0  0  0  0  0  0
   17.4232  -55.1784   35.0426 C   0  0  0  0  0  0  0  0  0  0  0  0
   16.9794  -55.9278   33.9891 N   0  0  0  0  0  0  0  0  0  0  0  0
   16.3558  -57.0032   34.5013 C   0  0  0  0  0  0  0  0  0  0  0  0
   16.3766  -56.9208   35.9198 C   0  0  0  0  0  0  0  0  0  0  0  0
   17.0639  -55.7683   36.2029 C   0  0  0  0  0  0  0  0  0  0  0  0
   17.4726  -55.1898   37.4073 C   0  0  0  0  0  0  0  0  0  0  0  0
   18.2321  -54.0294   37.4444 C   0  0  0  0  0  0  0  0  0  0  0  0
   18.6667  -53.4280   38.6392 O   0  0  0  0  0  0  0  0  0  0  0  0
   19.2366  -52.5713   38.5886 H   0  0  0  0  0  0  0  0  0  0  0  0
   15.6597  -57.7637   36.8859 C   0  0  0  0  0  0  0  0  0  0  0  0
   16.2667  -58.7744   37.3315 O   0  0  0  0  0  0  0  0  0  0  0  0
   14.4064  -57.5422   37.3508 O   0  0  0  0  0  0  0  0  0  0  0  0
   13.8628  -56.5038   38.0834 C   0  0  0  0  0  0  0  0  0  0  0  0
   14.6234  -56.1608   39.3584 C   0  0  0  0  0  0  0  0  0  0  0  0
   16.9523  -55.3779   32.6198 C   0  0  0  0  0  0  0  0  0  0  0  0
   18.2106  -55.9518   31.9291 C   0  0  0  0  0  0  0  0  0  0  0  0
   19.1928  -55.0447   31.6559 C   0  0  0  0  0  0  0  0  0  0  0  0
   20.3721  -55.4948   31.0394 C   0  0  0  0  0  0  0  0  0  0  0  0
   20.5793  -56.8007   30.7089 C   0  0  0  0  0  0  0  0  0  0  0  0
   19.5481  -57.6903   31.0122 C   0  0  0  0  0  0  0  0  0  0  0  0
   18.3653  -57.2541   31.6220 C   0  0  0  0  0  0  0  0  0  0  0  0
   15.7842  -58.1631   33.8176 C   0  0  0  0  0  0  0  0  0  0  0  0
   14.7085  -58.8721   34.4379 N   0  0  0  0  0  0  0  0  0  0  0  0
   14.5420  -60.1962   34.6737 C   0  0  0  0  0  0  0  0  0  0  0  0
   13.0305  -60.5089   34.5569 C   0  0  0  0  0  0  0  0  0  0  0  0
   12.4494  -59.1392   34.8990 C   0  0  0  0  0  0  0  0  0  0  0  0
   13.4075  -58.2766   34.0890 C   0  0  0  0  0  0  0  0  0  0  0  0
   14.7815  -58.3831   35.5093 H   0  0  0  0  0  0  0  0  0  0  0  0
  1  2  1  0  0  0
  2  3  2  0  0  0
  2 10  1  0  0  0
  3  4  1  0  0  0
  4  5  1  0  0  0
  4  8  2  0  0  0
  5  6  1  0  0  0
  5 18  1  0  0  0
  6  7  2  0  0  0
  6 25  1  0  0  0
  7  8  1  0  0  0
  7 13  1  0  0  0
  8  9  1  0  0  0
  9 10  2  0  0  0
 10 11  1  0  0  0
 13 14  2  0  0  0
 13 15  1  0  0  0
 15 16  1  0  0  0
 16 17  1  0  0  0
 25 26  1  0  0  0
 26 27  1  0  0  0
 26 30  1  0  0  0
 27 28  1  0  0  0
 28 29  1  0  0  0
 29 30  1  0  0  0
 18 19  1  0  0  0
 19 20  2  0  0  0
 19 24  1  0  0  0
 20 21  1  0  0  0
 21 22  2  0  0  0
 22 23  1  0  0  0
 23 24  2  0  0  0
 11 12  1  0  0  0
 26 31  1  0  0  0
M  CHG 1  26   1
M  END
> <minimizedAffinity>
-8.39886

$$$$
626


 32 35  0  0  0  0  0  0  0  0999 V2000
   19.1469  -54.2154   34.5304 N   0  0  0  0  0  0  0  0  0  0  0  0
   19.7757  -53.0389   34.9577 C   0  0  0  0  0  0  0  0  0  0  0  0
   20.4451  -52.3490   34.1472 O   0  0  0  0  0  0  0  0  0  0  0  0
   18.5880  -54.7210   35.2838 H   0  0  0  0  0  0  0  0  0  0  0  0
   16.8384  -56.0940   34.1997 Br  0  0  0  0  0  0  0  0  0  0  0  0
   18.1612  -55.6686   32.8773 C   0  0  0  0  0  0  0  0  0  0  0  0
   18.0767  -56.2615   31.6382 C   0  0  0  0  0  0  0  0  0  0  0  0
   19.0109  -55.9884   30.6693 C   0  0  0  0  0  0  0  0  0  0  0  0
   19.2256  -56.3732   29.3971 N   0  0  0  0  0  0  0  0  0  0  0  0
   20.3249  -55.7725   28.9041 C   0  0  0  0  0  0  0  0  0  0  0  0
   20.7858  -55.0040   29.9064 N   0  0  0  0  0  0  0  0  0  0  0  0
   20.0052  -55.1124   31.0011 C   0  0  0  0  0  0  0  0  0  0  0  0
   20.0955  -54.5053   32.2618 C   0  0  0  0  0  0  0  0  0  0  0  0
   19.1604  -54.7771   33.2346 C   0  0  0  0  0  0  0  0  0  0  0  0
   20.8622  -55.9276   27.6109 O   0  0  0  0  0  0  0  0  0  0  0  0
   21.6463  -54.3907   29.8556 H   0  0  0  0  0  0  0  0  0  0  0  0
   20.5398  -55.2378   26.9193 H   0  0  0  0  0  0  0  0  0  0  0  0
   19.7100  -52.5281   36.3313 C   0  0  0  0  0  0  0  0  0  0  0  0
   18.6171  -52.9113   37.1326 N   0  0  0  0  0  0  0  0  0  0  0  0
   18.8399  -53.8548   38.1674 C   0  0  0  0  0  0  0  0  0  0  0  0
   17.5436  -54.5186   38.6328 C   0  0  0  0  0  0  0  0  0  0  0  0
   16.6404  -53.5071   38.9821 N   0  0  0  0  0  0  0  0  0  0  0  0
   16.9890  -52.1651   38.7232 C   0  0  0  0  0  0  0  0  0  0  0  0
   17.6681  -51.8883   37.4156 C   0  0  0  0  0  0  0  0  0  0  0  0
   15.3039  -53.8761   39.1119 C   0  0  0  0  0  0  0  0  0  0  0  0
   14.9476  -55.2881   38.9688 C   0  0  0  0  0  0  0  0  0  0  0  0
   14.4512  -55.8378   40.0275 O   0  0  0  0  0  0  0  0  0  0  0  0
   15.0760  -56.0970   37.8453 N   0  0  0  0  0  0  0  0  0  0  0  0
   15.4598  -55.7104   36.9591 H   0  0  0  0  0  0  0  0  0  0  0  0
   14.6829  -57.5028   37.8208 C   0  0  0  0  0  0  0  0  0  0  0  0
   14.7230  -58.2774   36.5703 C   0  0  0  0  0  0  0  0  0  0  0  0
   15.7756  -58.5333   37.6326 C   0  0  0  0  0  0  0  0  0  0  0  0
  5  6  1  0  0  0
  6  7  2  0  0  0
  6 14  1  0  0  0
  7  8  1  0  0  0
  8  9  1  0  0  0
  8 12  2  0  0  0
  9 10  2  0  0  0
 10 11  1  0  0  0
 10 15  1  0  0  0
 11 12  1  0  0  0
 12 13  1  0  0  0
 13 14  2  0  0  0
 14  1  1  0  0  0
  1  2  1  0  0  0
  2  3  2  0  0  0
  2 18  1  0  0  0
 18 19  1  0  0  0
 19 20  1  0  0  0
 19 24  1  0  0  0
 20 21  1  0  0  0
 21 22  1  0  0  0
 22 23  1  0  0  0
 22 25  1  0  0  0
 23 24  1  0  0  0
 25 26  1  0  0  0
 26 27  2  0  0  0
 26 28  1  0  0  0
 28 30  1  0  0  0
 30 31  1  0  0  0
 30 32  1  0  0  0
 31 32  1  0  0  0
 11 16  1  0  0  0
  1  4  1  0  0  0
 28 29  1  0  0  0
 15 17  1  0  0  0
M  END
> <minimizedAffinity>
-9.02253

$$$$
631


 29 32  0  0  0  0  0  0  0  0999 V2000
   17.6252  -53.1883   37.0879 N   0  0  0  0  0  0  0  0  0  0  0  0
   18.0067  -53.9007   35.8486 C   0  0  0  0  0  0  0  0  0  0  0  0
   19.5158  -53.7213   35.8037 C   0  0  0  0  0  0  0  0  0  0  0  0
   19.7093  -52.3575   36.4319 C   0  0  0  0  0  0  0  0  0  0  0  0
   18.4600  -52.0354   37.1685 C   0  0  0  0  0  0  0  0  0  0  0  0
   18.1781  -50.9764   37.7455 O   0  0  0  0  0  0  0  0  0  0  0  0
   13.7000  -58.9574   38.2349 Br  0  0  0  0  0  0  0  0  0  0  0  0
   14.6473  -57.2970   38.1153 C   0  0  0  0  0  0  0  0  0  0  0  0
   14.3873  -56.2584   39.0071 C   0  0  0  0  0  0  0  0  0  0  0  0
   15.1084  -55.0966   38.8557 C   0  0  0  0  0  0  0  0  0  0  0  0
   15.1092  -53.9290   39.5227 N   0  0  0  0  0  0  0  0  0  0  0  0
   16.0023  -53.1055   38.9813 N   0  0  0  0  0  0  0  0  0  0  0  0
   16.6258  -53.6841   37.9450 C   0  0  0  0  0  0  0  0  0  0  0  0
   16.0464  -54.9659   37.8685 C   0  0  0  0  0  0  0  0  0  0  0  0
   16.3099  -55.9782   36.9892 C   0  0  0  0  0  0  0  0  0  0  0  0
   15.6023  -57.1473   37.1194 C   0  0  0  0  0  0  0  0  0  0  0  0
   16.1676  -52.1457   39.3418 H   0  0  0  0  0  0  0  0  0  0  0  0
   19.8776  -53.7949   34.3791 C   0  0  0  0  0  0  0  0  0  0  0  0
   20.7190  -53.0111   33.8817 O   0  0  0  0  0  0  0  0  0  0  0  0
   19.2456  -54.7843   33.5782 N   0  0  0  0  0  0  0  0  0  0  0  0
   18.5481  -55.4075   34.0298 H   0  0  0  0  0  0  0  0  0  0  0  0
   19.5489  -54.9312   32.1716 C   0  0  0  0  0  0  0  0  0  0  0  0
   19.0524  -56.2429   31.6016 C   0  0  0  0  0  0  0  0  0  0  0  0
   17.8461  -56.7027   32.3171 C   0  0  0  0  0  0  0  0  0  0  0  0
   16.7786  -55.9249   32.5584 N   0  0  0  0  0  0  0  0  0  0  0  0
   15.8477  -56.6162   33.2169 C   0  0  0  0  0  0  0  0  0  0  0  0
   16.3271  -57.8751   33.4065 N   0  0  0  0  0  0  0  0  0  0  0  0
   17.5435  -57.9158   32.8542 C   0  0  0  0  0  0  0  0  0  0  0  0
   15.7799  -58.6137   33.9041 H   0  0  0  0  0  0  0  0  0  0  0  0
  7  8  1  0  0  0
  8  9  2  0  0  0
  8 16  1  0  0  0
  9 10  1  0  0  0
 10 11  2  0  0  0
 10 14  1  0  0  0
 11 12  1  0  0  0
 12 13  1  0  0  0
 13 14  2  0  0  0
 13  1  1  0  0  0
 14 15  1  0  0  0
 15 16  2  0  0  0
  1  2  1  0  0  0
  1  5  1  0  0  0
  2  3  1  0  0  0
  3  4  1  0  0  0
  3 18  1  0  0  0
  4  5  1  0  0  0
  5  6  2  0  0  0
 18 19  2  0  0  0
 18 20  1  0  0  0
 20 22  1  0  0  0
 22 23  1  0  0  0
 23 24  1  0  0  0
 24 25  1  0  0  0
 24 28  2  0  0  0
 25 26  2  0  0  0
 26 27  1  0  0  0
 27 28  1  0  0  0
 12 17  1  0  0  0
 20 21  1  0  0  0
 27 29  1  0  0  0
M  END
> <minimizedAffinity>
-9.63737

$$$$
648


 32 35  0  0  0  0  0  0  0  0999 V2000
   15.6685  -58.2621   36.7597 C   0  0  0  0  0  0  0  0  0  0  0  0
   16.6279  -59.0231   37.1448 O   0  0  0  0  0  0  0  0  0  0  0  0
   15.0596  -58.5611   35.5699 N   0  0  0  0  0  0  0  0  0  0  0  0
   13.9899  -57.8272   34.9684 C   0  0  0  0  0  0  0  0  0  0  0  0
   14.5180  -57.0978   33.7769 C   0  0  0  0  0  0  0  0  0  0  0  0
   15.6706  -57.7766   33.2025 N   0  0  0  0  0  0  0  0  0  0  0  0
   15.9481  -59.1596   33.4052 C   0  0  0  0  0  0  0  0  0  0  0  0
   15.4858  -59.7135   34.7494 C   0  0  0  0  0  0  0  0  0  0  0  0
   16.5384  -56.9053   32.4610 C   0  0  0  0  0  0  0  0  0  0  0  0
   16.2424  -55.6380   32.4727 O   0  0  0  0  0  0  0  0  0  0  0  0
   12.9911  -58.4823   38.8245 Br  0  0  0  0  0  0  0  0  0  0  0  0
   14.2903  -57.0898   38.5538 C   0  0  0  0  0  0  0  0  0  0  0  0
   14.3497  -55.8811   39.1926 C   0  0  0  0  0  0  0  0  0  0  0  0
   15.4068  -55.2271   38.7003 N   0  0  0  0  0  0  0  0  0  0  0  0
   15.9883  -55.9737   37.7996 N   0  0  0  0  0  0  0  0  0  0  0  0
   15.3486  -57.1696   37.6429 C   0  0  0  0  0  0  0  0  0  0  0  0
   15.7653  -53.8902   39.1581 C   0  0  0  0  0  0  0  0  0  0  0  0
   17.2360  -53.5990   39.0228 C   0  0  0  0  0  0  0  0  0  0  0  0
   17.6819  -57.3247   31.7281 C   0  0  0  0  0  0  0  0  0  0  0  0
   18.8953  -57.6355   32.3285 N   0  0  0  0  0  0  0  0  0  0  0  0
   19.7709  -57.9246   31.4224 N   0  0  0  0  0  0  0  0  0  0  0  0
   19.2514  -57.8370   30.2014 C   0  0  0  0  0  0  0  0  0  0  0  0
   17.9108  -57.4509   30.4030 C   0  0  0  0  0  0  0  0  0  0  0  0
   19.1507  -57.6423   33.7495 C   0  0  0  0  0  0  0  0  0  0  0  0
   19.8671  -58.0938   28.9121 C   0  0  0  0  0  0  0  0  0  0  0  0
   19.7899  -59.2971   28.4746 O   0  0  0  0  0  0  0  0  0  0  0  0
   20.5230  -57.1555   28.1306 N   0  0  0  0  0  0  0  0  0  0  0  0
   21.0653  -57.5913   26.8398 C   0  0  0  0  0  0  0  0  0  0  0  0
   22.5222  -57.1781   26.8446 C   0  0  0  0  0  0  0  0  0  0  0  0
   22.5098  -55.7713   26.8385 O   0  0  0  0  0  0  0  0  0  0  0  0
   22.1065  -55.3031   28.0581 C   0  0  0  0  0  0  0  0  0  0  0  0
   20.7316  -55.7896   28.4972 C   0  0  0  0  0  0  0  0  0  0  0  0
 11 12  1  0  0  0
 12 13  2  0  0  0
 12 16  1  0  0  0
 13 14  1  0  0  0
 14 15  1  0  0  0
 14 17  1  0  0  0
 15 16  2  0  0  0
 16  1  1  0  0  0
  1  2  2  0  0  0
  1  3  1  0  0  0
  3  4  1  0  0  0
  3  8  1  0  0  0
  4  5  1  0  0  0
  5  6  1  0  0  0
  6  7  1  0  0  0
  6  9  1  0  0  0
  7  8  1  0  0  0
  9 10  2  0  0  0
  9 19  1  0  0  0
 19 20  1  0  0  0
 19 23  2  0  0  0
 20 21  1  0  0  0
 20 24  1  0  0  0
 21 22  2  0  0  0
 22 23  1  0  0  0
 22 25  1  0  0  0
 25 26  2  0  0  0
 25 27  1  0  0  0
 27 28  1  0  0  0
 27 32  1  0  0  0
 28 29  1  0  0  0
 29 30  1  0  0  0
 30 31  1  0  0  0
 31 32  1  0  0  0
 17 18  1  0  0  0
M  END
> <minimizedAffinity>
-8.08396

$$$$
653


 29 32  0  0  0  0  0  0  0  0999 V2000
   15.5718  -57.0991   36.4402 C   0  0  0  0  0  0  0  0  0  0  0  0
   16.5602  -56.6170   35.6204 C   0  0  0  0  0  0  0  0  0  0  0  0
   16.6629  -57.0252   34.3032 C   0  0  0  0  0  0  0  0  0  0  0  0
   15.7737  -57.9327   33.7718 C   0  0  0  0  0  0  0  0  0  0  0  0
   14.7547  -58.4368   34.6024 C   0  0  0  0  0  0  0  0  0  0  0  0
   14.6531  -58.0314   35.9069 C   0  0  0  0  0  0  0  0  0  0  0  0
   13.5823  -58.5556   36.7580 C   0  0  0  0  0  0  0  0  0  0  0  0
   12.9506  -59.8287   36.3569 C   0  0  0  0  0  0  0  0  0  0  0  0
   12.8586  -60.0140   34.9142 N   0  0  0  0  0  0  0  0  0  0  0  0
   13.8488  -59.4476   34.0666 C   0  0  0  0  0  0  0  0  0  0  0  0
   13.9231  -59.8346   32.8612 O   0  0  0  0  0  0  0  0  0  0  0  0
   11.7473  -60.7986   34.4272 C   0  0  0  0  0  0  0  0  0  0  0  0
   17.7465  -56.3565   33.7683 O   0  0  0  0  0  0  0  0  0  0  0  0
   18.2255  -55.3914   34.6703 C   0  0  0  0  0  0  0  0  0  0  0  0
   17.5881  -55.6900   35.9095 O   0  0  0  0  0  0  0  0  0  0  0  0
   15.8440  -58.3626   32.4588 O   0  0  0  0  0  0  0  0  0  0  0  0
   16.9892  -59.0266   31.9664 C   0  0  0  0  0  0  0  0  0  0  0  0
   15.4625  -56.7151   37.8637 C   0  0  0  0  0  0  0  0  0  0  0  0
   15.3752  -54.5012   39.1422 C   0  0  0  0  0  0  0  0  0  0  0  0
   14.6076  -54.9214   40.0668 O   0  0  0  0  0  0  0  0  0  0  0  0
   15.7806  -55.3205   38.1111 N   0  0  0  0  0  0  0  0  0  0  0  0
   16.4290  -54.9055   37.3697 H   0  0  0  0  0  0  0  0  0  0  0  0
   15.8198  -53.0833   39.2162 C   0  0  0  0  0  0  0  0  0  0  0  0
   20.0242  -51.5635   36.1236 Br  0  0  0  0  0  0  0  0  0  0  0  0
   18.8802  -52.4558   37.3647 C   0  0  0  0  0  0  0  0  0  0  0  0
   17.5762  -52.1486   37.6782 C   0  0  0  0  0  0  0  0  0  0  0  0
   17.1518  -53.0234   38.5842 N   0  0  0  0  0  0  0  0  0  0  0  0
   18.1569  -53.8584   38.8355 N   0  0  0  0  0  0  0  0  0  0  0  0
   19.2436  -53.5534   38.1106 C   0  0  0  0  0  0  0  0  0  0  0  0
 24 25  1  0  0  0
 25 26  2  0  0  0
 25 29  1  0  0  0
 26 27  1  0  0  0
 27 28  1  0  0  0
 27 23  1  0  0  0
 28 29  2  0  0  0
 23 19  1  0  0  0
 19 20  2  0  0  0
 19 21  1  0  0  0
 21 18  1  0  0  0
 18  1  1  0  0  0
  1  2  2  0  0  0
  1  6  1  0  0  0
  2  3  1  0  0  0
  2 15  1  0  0  0
  3  4  2  0  0  0
  3 13  1  0  0  0
  4  5  1  0  0  0
  4 16  1  0  0  0
  5  6  2  0  0  0
  5 10  1  0  0  0
  6  7  1  0  0  0
  7  8  1  0  0  0
  8  9  1  0  0  0
  9 10  1  0  0  0
  9 12  1  0  0  0
 10 11  2  0  0  0
 16 17  1  0  0  0
 13 14  1  0  0  0
 14 15  1  0  0  0
 21 22  1  0  0  0
M  END
> <minimizedAffinity>
-8.90060

$$$$
662


 25 29  0  0  0  0  0  0  0  0999 V2000
   16.2314  -55.4306   37.5626 C   0  0  0  0  0  0  0  0  0  0  0  0
   16.0620  -54.3162   38.2917 N   0  0  0  0  0  0  0  0  0  0  0  0
   16.9396  -53.3848   37.9185 N   0  0  0  0  0  0  0  0  0  0  0  0
   17.6973  -53.9166   36.9169 C   0  0  0  0  0  0  0  0  0  0  0  0
   17.2432  -55.1693   36.7190 N   0  0  0  0  0  0  0  0  0  0  0  0
   18.6869  -53.1354   36.3587 C   0  0  0  0  0  0  0  0  0  0  0  0
   18.9379  -51.8398   36.7743 C   0  0  0  0  0  0  0  0  0  0  0  0
   19.9524  -51.3341   36.0526 N   0  0  0  0  0  0  0  0  0  0  0  0
   20.3350  -52.2756   35.2049 N   0  0  0  0  0  0  0  0  0  0  0  0
   19.5884  -53.3889   35.3599 C   0  0  0  0  0  0  0  0  0  0  0  0
   18.1670  -51.3592   37.7627 N   0  0  0  0  0  0  0  0  0  0  0  0
   17.2038  -52.1232   38.3033 C   0  0  0  0  0  0  0  0  0  0  0  0
   20.3778  -50.3852   36.1236 H   0  0  0  0  0  0  0  0  0  0  0  0
   13.8132  -58.0834   38.0173 N   0  0  0  0  0  0  0  0  0  0  0  0
   14.1662  -56.8099   38.0152 N   0  0  0  0  0  0  0  0  0  0  0  0
   15.4594  -56.6667   37.6787 C   0  0  0  0  0  0  0  0  0  0  0  0
   15.9254  -57.9460   37.4608 C   0  0  0  0  0  0  0  0  0  0  0  0
   14.8755  -58.8328   37.6769 C   0  0  0  0  0  0  0  0  0  0  0  0
   12.4769  -58.5914   38.3385 C   0  0  0  0  0  0  0  0  0  0  0  0
   11.2051  -61.8757   34.2583 Br  0  0  0  0  0  0  0  0  0  0  0  0
   11.6571  -61.1884   35.9614 C   0  0  0  0  0  0  0  0  0  0  0  0
   11.8811  -59.8651   36.2835 C   0  0  0  0  0  0  0  0  0  0  0  0
   12.1746  -59.7952   37.5924 N   0  0  0  0  0  0  0  0  0  0  0  0
   12.1426  -61.0173   38.0929 N   0  0  0  0  0  0  0  0  0  0  0  0
   11.8269  -61.9065   37.1239 C   0  0  0  0  0  0  0  0  0  0  0  0
 20 21  1  0  0  0
 21 22  2  0  0  0
 21 25  1  0  0  0
 22 23  1  0  0  0
 23 24  1  0  0  0
 23 19  1  0  0  0
 24 25  2  0  0  0
 19 14  1  0  0  0
 14 15  1  0  0  0
 14 18  1  0  0  0
 15 16  2  0  0  0
 16 17  1  0  0  0
 16  1  1  0  0  0
 17 18  2  0  0  0
  1  2  2  0  0  0
  1  5  1  0  0  0
  2  3  1  0  0  0
  3  4  1  0  0  0
  3 12  1  0  0  0
  4  5  2  0  0  0
  4  6  1  0  0  0
  6  7  2  0  0  0
  6 10  1  0  0  0
  7  8  1  0  0  0
  7 11  1  0  0  0
  8  9  1  0  0  0
  9 10  2  0  0  0
 11 12  2  0  0  0
  8 13  1  0  0  0
M  END
> <minimizedAffinity>
-8.48623

$$$$
663


 28 31  0  0  0  0  0  0  0  0999 V2000
   19.9245  -57.4774   30.2699 C   0  0  0  0  0  0  0  0  0  0  0  0
   20.3044  -58.6960   30.4884 O   0  0  0  0  0  0  0  0  0  0  0  0
   20.0270  -57.0428   28.9593 N   0  0  0  0  0  0  0  0  0  0  0  0
   19.6590  -55.7999   28.3365 C   0  0  0  0  0  0  0  0  0  0  0  0
   20.9285  -54.9841   28.1860 C   0  0  0  0  0  0  0  0  0  0  0  0
   22.0941  -55.8832   27.8265 C   0  0  0  0  0  0  0  0  0  0  0  0
   22.9070  -55.1664   26.8682 N   0  0  0  0  0  0  0  0  0  0  0  0
   23.7975  -54.3298   27.5912 C   0  0  0  0  0  0  0  0  0  0  0  0
   24.4230  -53.3018   27.1728 O   0  0  0  0  0  0  0  0  0  0  0  0
   23.8736  -54.8644   28.9221 N   0  0  0  0  0  0  0  0  0  0  0  0
   23.0154  -56.0243   28.9694 C   0  0  0  0  0  0  0  0  0  0  0  0
   23.0961  -56.9244   29.8327 O   0  0  0  0  0  0  0  0  0  0  0  0
   21.6787  -57.1831   27.2169 C   0  0  0  0  0  0  0  0  0  0  0  0
   20.6728  -57.9743   27.9822 C   0  0  0  0  0  0  0  0  0  0  0  0
   22.8790  -55.2212   25.8316 H   0  0  0  0  0  0  0  0  0  0  0  0
   24.4258  -54.5209   29.7380 H   0  0  0  0  0  0  0  0  0  0  0  0
   18.5434  -55.5842   33.8767 C   0  0  0  0  0  0  0  0  0  0  0  0
   18.4051  -56.9304   33.6427 C   0  0  0  0  0  0  0  0  0  0  0  0
   18.8398  -57.5124   32.4820 C   0  0  0  0  0  0  0  0  0  0  0  0
   19.4562  -56.7804   31.4461 C   0  0  0  0  0  0  0  0  0  0  0  0
   19.5900  -55.4343   31.6933 C   0  0  0  0  0  0  0  0  0  0  0  0
   19.1391  -54.8497   32.8874 C   0  0  0  0  0  0  0  0  0  0  0  0
   17.5848  -52.0500   37.8817 Br  0  0  0  0  0  0  0  0  0  0  0  0
   17.6479  -53.6215   36.7710 C   0  0  0  0  0  0  0  0  0  0  0  0
   18.2651  -53.7557   35.5467 C   0  0  0  0  0  0  0  0  0  0  0  0
   18.0833  -55.0079   35.0901 N   0  0  0  0  0  0  0  0  0  0  0  0
   17.3741  -55.6399   36.0011 N   0  0  0  0  0  0  0  0  0  0  0  0
   17.0850  -54.8506   37.0337 C   0  0  0  0  0  0  0  0  0  0  0  0
 23 24  1  0  0  0
 24 25  2  0  0  0
 24 28  1  0  0  0
 25 26  1  0  0  0
 26 27  1  0  0  0
 26 17  1  0  0  0
 27 28  2  0  0  0
 17 18  2  0  0  0
 17 22  1  0  0  0
 18 19  1  0  0  0
 19 20  2  0  0  0
 20 21  1  0  0  0
 20  1  1  0  0  0
 21 22  2  0  0  0
  1  2  2  0  0  0
  1  3  1  0  0  0
  3  4  1  0  0  0
  3 14  1  0  0  0
  4  5  1  0  0  0
  5  6  1  0  0  0
  6  7  1  0  0  0
  6 11  1  0  0  0
  6 13  1  0  0  0
  7  8  1  0  0  0
  8  9  2  0  0  0
  8 10  1  0  0  0
 10 11  1  0  0  0
 11 12  2  0  0  0
 13 14  1  0  0  0
  7 15  1  0  0  0
 10 16  1  0  0  0
M  END
> <minimizedAffinity>
-8.98313

$$$$
666


 28 31  0  0  0  0  0  0  0  0999 V2000
   16.6730  -56.5097   33.5269 C   0  0  0  0  0  0  0  0  0  0  0  0
   16.4596  -57.5766   34.2390 C   0  0  0  0  0  0  0  0  0  0  0  0
   16.6829  -57.1985   35.6355 C   0  0  0  0  0  0  0  0  0  0  0  0
   16.5640  -58.0004   36.6137 O   0  0  0  0  0  0  0  0  0  0  0  0
   17.0504  -55.8154   35.7426 N   0  0  0  0  0  0  0  0  0  0  0  0
   17.0458  -55.3625   34.3894 C   0  0  0  0  0  0  0  0  0  0  0  0
   17.3114  -54.1947   33.9997 O   0  0  0  0  0  0  0  0  0  0  0  0
   17.3540  -55.0888   36.9225 C   0  0  0  0  0  0  0  0  0  0  0  0
   18.6037  -54.6023   37.2095 C   0  0  0  0  0  0  0  0  0  0  0  0
   18.8652  -53.8687   38.3856 C   0  0  0  0  0  0  0  0  0  0  0  0
   17.8577  -53.6179   39.2890 C   0  0  0  0  0  0  0  0  0  0  0  0
   16.6060  -54.1021   39.0064 C   0  0  0  0  0  0  0  0  0  0  0  0
   16.3654  -54.8263   37.8379 C   0  0  0  0  0  0  0  0  0  0  0  0
   16.0721  -58.8799   33.7992 N   0  0  0  0  0  0  0  0  0  0  0  0
   17.0111  -59.7734   33.4388 C   0  0  0  0  0  0  0  0  0  0  0  0
   16.6638  -61.0607   32.9936 C   0  0  0  0  0  0  0  0  0  0  0  0
   15.3330  -61.4272   32.9188 C   0  0  0  0  0  0  0  0  0  0  0  0
   14.3899  -60.4945   33.2939 C   0  0  0  0  0  0  0  0  0  0  0  0
   14.7706  -59.2504   33.7230 C   0  0  0  0  0  0  0  0  0  0  0  0
   16.5903  -56.3448   32.1240 N   0  0  0  0  0  0  0  0  0  0  0  0
   15.8485  -55.7833   31.7068 H   0  0  0  0  0  0  0  0  0  0  0  0
   20.7161  -59.1998   28.6138 Br  0  0  0  0  0  0  0  0  0  0  0  0
   19.4338  -58.2960   29.7061 C   0  0  0  0  0  0  0  0  0  0  0  0
   18.0902  -58.3477   29.4440 C   0  0  0  0  0  0  0  0  0  0  0  0
   17.2109  -57.7130   30.2272 N   0  0  0  0  0  0  0  0  0  0  0  0
   17.5626  -56.9828   31.3194 C   0  0  0  0  0  0  0  0  0  0  0  0
   18.9380  -56.9339   31.5775 C   0  0  0  0  0  0  0  0  0  0  0  0
   19.8613  -57.5736   30.7960 C   0  0  0  0  0  0  0  0  0  0  0  0
 22 23  1  0  0  0
 23 24  2  0  0  0
 23 28  1  0  0  0
 24 25  1  0  0  0
 25 26  2  0  0  0
 26 27  1  0  0  0
 26 20  1  0  0  0
 27 28  2  0  0  0
 20  1  1  0  0  0
  1  2  2  0  0  0
  1  6  1  0  0  0
  2  3  1  0  0  0
  2 14  1  0  0  0
  3  4  2  0  0  0
  3  5  1  0  0  0
  5  6  1  0  0  0
  5  8  1  0  0  0
  6  7  2  0  0  0
  8  9  2  0  0  0
  8 13  1  0  0  0
  9 10  1  0  0  0
 10 11  2  0  0  0
 11 12  1  0  0  0
 12 13  2  0  0  0
 14 15  2  0  0  0
 14 19  1  0  0  0
 15 16  1  0  0  0
 16 17  2  0  0  0
 17 18  1  0  0  0
 18 19  2  0  0  0
 20 21  1  0  0  0
M  END
> <minimizedAffinity>
-8.41234

$$$$
670


 23 26  0  0  0  0  0  0  0  0999 V2000
   16.1397  -56.4959   37.2374 C   0  0  0  0  0  0  0  0  0  0  0  0
   16.3352  -55.1405   37.6800 N   0  0  0  0  0  0  0  0  0  0  0  0
   17.3298  -54.3482   37.1068 N   0  0  0  0  0  0  0  0  0  0  0  0
   17.5602  -53.0053   37.5103 C   0  0  0  0  0  0  0  0  0  0  0  0
   18.5148  -52.2996   36.9349 C   0  0  0  0  0  0  0  0  0  0  0  0
   19.6284  -52.0477   35.9988 C   0  0  0  0  0  0  0  0  0  0  0  0
   19.2262  -50.9627   36.8802 C   0  0  0  0  0  0  0  0  0  0  0  0
   16.7506  -52.4058   38.5527 C   0  0  0  0  0  0  0  0  0  0  0  0
   15.8012  -53.1391   39.1112 C   0  0  0  0  0  0  0  0  0  0  0  0
   15.5528  -54.5357   38.6984 C   0  0  0  0  0  0  0  0  0  0  0  0
   14.6425  -55.2123   39.2462 O   0  0  0  0  0  0  0  0  0  0  0  0
   17.9182  -54.7948   36.3444 H   0  0  0  0  0  0  0  0  0  0  0  0
   16.9751  -57.6229   34.1800 N   0  0  0  0  0  0  0  0  0  0  0  0
   17.1500  -58.0939   35.5236 C   0  0  0  0  0  0  0  0  0  0  0  0
   16.8596  -56.6646   35.9367 C   0  0  0  0  0  0  0  0  0  0  0  0
   15.9609  -56.7556   34.7085 C   0  0  0  0  0  0  0  0  0  0  0  0
   19.4868  -58.7977   28.7555 Br  0  0  0  0  0  0  0  0  0  0  0  0
   18.7099  -58.4226   30.4629 C   0  0  0  0  0  0  0  0  0  0  0  0
   17.4175  -58.8058   30.7419 C   0  0  0  0  0  0  0  0  0  0  0  0
   16.8982  -58.5361   31.9320 N   0  0  0  0  0  0  0  0  0  0  0  0
   17.5439  -57.8976   32.9317 C   0  0  0  0  0  0  0  0  0  0  0  0
   18.8253  -57.5194   32.6479 N   0  0  0  0  0  0  0  0  0  0  0  0
   19.4023  -57.7674   31.4585 C   0  0  0  0  0  0  0  0  0  0  0  0
 17 18  1  0  0  0
 18 19  2  0  0  0
 18 23  1  0  0  0
 19 20  1  0  0  0
 20 21  2  0  0  0
 21 22  1  0  0  0
 21 13  1  0  0  0
 22 23  2  0  0  0
 13 14  1  0  0  0
 13 16  1  0  0  0
 14 15  1  0  0  0
 15 16  1  0  0  0
 15  1  1  0  0  0
  1  2  1  0  0  0
  2  3  1  0  0  0
  2 10  1  0  0  0
  3  4  1  0  0  0
  4  5  2  0  0  0
  4  8  1  0  0  0
  5  6  1  0  0  0
  5  7  1  0  0  0
  6  7  1  0  0  0
  8  9  2  0  0  0
  9 10  1  0  0  0
 10 11  2  0  0  0
  3 12  1  0  0  0
M  END
> <minimizedAffinity>
-8.63128

$$$$
677


 29 32  0  0  0  0  0  0  0  0999 V2000
   16.5642  -56.3477   36.9070 C   0  0  0  0  0  0  0  0  0  0  0  0
   15.4321  -56.8028   37.6721 C   0  0  0  0  0  0  0  0  0  0  0  0
   14.9064  -56.0132   38.6278 C   0  0  0  0  0  0  0  0  0  0  0  0
   15.4439  -54.7412   38.8969 C   0  0  0  0  0  0  0  0  0  0  0  0
   16.5250  -54.2920   38.1782 C   0  0  0  0  0  0  0  0  0  0  0  0
   17.0834  -55.1079   37.1812 C   0  0  0  0  0  0  0  0  0  0  0  0
   18.3093  -54.6782   36.4604 C   0  0  0  0  0  0  0  0  0  0  0  0
   19.0772  -53.5670   37.1685 C   0  0  0  0  0  0  0  0  0  0  0  0
   18.1986  -52.5118   37.6159 N   0  0  0  0  0  0  0  0  0  0  0  0
   17.0897  -52.9652   38.4047 C   0  0  0  0  0  0  0  0  0  0  0  0
   16.6585  -52.1716   39.2664 O   0  0  0  0  0  0  0  0  0  0  0  0
   18.4196  -51.1184   37.2941 C   0  0  0  0  0  0  0  0  0  0  0  0
   14.8614  -54.0127   39.8661 O   0  0  0  0  0  0  0  0  0  0  0  0
   13.8304  -56.7122   39.1962 O   0  0  0  0  0  0  0  0  0  0  0  0
   13.5282  -57.8474   38.4130 C   0  0  0  0  0  0  0  0  0  0  0  0
   14.6976  -57.9917   37.6313 O   0  0  0  0  0  0  0  0  0  0  0  0
   15.0566  -53.1374   40.2132 H   0  0  0  0  0  0  0  0  0  0  0  0
   16.9679  -57.3327   35.9263 C   0  0  0  0  0  0  0  0  0  0  0  0
   18.1321  -57.8169   33.8467 C   0  0  0  0  0  0  0  0  0  0  0  0
   18.9167  -58.5084   34.5172 O   0  0  0  0  0  0  0  0  0  0  0  0
   17.0242  -57.1327   34.5449 N   0  0  0  0  0  0  0  0  0  0  0  0
   16.4215  -56.6251   33.8811 H   0  0  0  0  0  0  0  0  0  0  0  0
   21.2532  -57.3451   29.5492 Br  0  0  0  0  0  0  0  0  0  0  0  0
   19.5597  -57.4747   30.4224 C   0  0  0  0  0  0  0  0  0  0  0  0
   18.4075  -57.4523   29.7024 C   0  0  0  0  0  0  0  0  0  0  0  0
   17.2191  -57.5419   30.2978 N   0  0  0  0  0  0  0  0  0  0  0  0
   17.1513  -57.6564   31.6320 C   0  0  0  0  0  0  0  0  0  0  0  0
   18.2975  -57.6848   32.4186 C   0  0  0  0  0  0  0  0  0  0  0  0
   19.5289  -57.5932   31.8112 C   0  0  0  0  0  0  0  0  0  0  0  0
 23 24  1  0  0  0
 24 25  2  0  0  0
 24 29  1  0  0  0
 25 26  1  0  0  0
 26 27  2  0  0  0
 27 28  1  0  0  0
 28 29  2  0  0  0
 28 19  1  0  0  0
 19 20  2  0  0  0
 19 21  1  0  0  0
 21 18  1  0  0  0
 18  1  1  0  0  0
  1  2  2  0  0  0
  1  6  1  0  0  0
  2  3  1  0  0  0
  2 16  1  0  0  0
  3  4  2  0  0  0
  3 14  1  0  0  0
  4  5  1  0  0  0
  4 13  1  0  0  0
  5  6  2  0  0  0
  5 10  1  0  0  0
  6  7  1  0  0  0
  7  8  1  0  0  0
  8  9  1  0  0  0
  9 10  1  0  0  0
  9 12  1  0  0  0
 10 11  2  0  0  0
 14 15  1  0  0  0
 15 16  1  0  0  0
 21 22  1  0  0  0
 13 17  1  0  0  0
M  END
> <minimizedAffinity>
-10.01275

$$$$
680


 24 27  0  0  0  0  0  0  0  0999 V2000
   19.7580  -55.9050   30.9733 C   0  0  0  0  0  0  0  0  0  0  0  0
   20.7332  -55.4639   30.2607 O   0  0  0  0  0  0  0  0  0  0  0  0
   19.4667  -55.2171   32.1662 N   0  0  0  0  0  0  0  0  0  0  0  0
   18.5623  -55.2871   33.2713 C   0  0  0  0  0  0  0  0  0  0  0  0
   19.6419  -54.5785   34.1092 C   0  0  0  0  0  0  0  0  0  0  0  0
   20.0236  -54.0035   32.7981 C   0  0  0  0  0  0  0  0  0  0  0  0
   19.0662  -53.6911   35.0817 N   0  0  0  0  0  0  0  0  0  0  0  0
   19.5855  -52.4387   35.5669 C   0  0  0  0  0  0  0  0  0  0  0  0
   20.3698  -51.7048   34.9411 O   0  0  0  0  0  0  0  0  0  0  0  0
   18.9789  -52.2534   36.9303 C   0  0  0  0  0  0  0  0  0  0  0  0
   17.5849  -52.7748   36.6727 C   0  0  0  0  0  0  0  0  0  0  0  0
   16.9072  -53.1775   37.9530 C   0  0  0  0  0  0  0  0  0  0  0  0
   17.7090  -54.2302   38.6323 C   0  0  0  0  0  0  0  0  0  0  0  0
   19.0215  -54.1390   38.5676 C   0  0  0  0  0  0  0  0  0  0  0  0
   19.7758  -53.0821   37.8789 C   0  0  0  0  0  0  0  0  0  0  0  0
   17.8332  -53.9068   35.7592 C   0  0  0  0  0  0  0  0  0  0  0  0
   17.0482  -54.8795   35.6394 O   0  0  0  0  0  0  0  0  0  0  0  0
   19.9214  -60.9019   28.9297 Br  0  0  0  0  0  0  0  0  0  0  0  0
   19.0336  -59.3243   29.5181 C   0  0  0  0  0  0  0  0  0  0  0  0
   17.6618  -59.2643   29.4576 C   0  0  0  0  0  0  0  0  0  0  0  0
   17.0126  -58.1474   29.8744 N   0  0  0  0  0  0  0  0  0  0  0  0
   17.6860  -57.0921   30.3452 C   0  0  0  0  0  0  0  0  0  0  0  0
   19.0837  -57.0659   30.4420 C   0  0  0  0  0  0  0  0  0  0  0  0
   19.7045  -58.2163   30.0114 C   0  0  0  0  0  0  0  0  0  0  0  0
 18 19  1  0  0  0
 19 20  2  0  0  0
 19 24  1  0  0  0
 20 21  1  0  0  0
 21 22  2  0  0  0
 22 23  1  0  0  0
 23 24  2  0  0  0
 23  1  1  0  0  0
  1  2  2  0  0  0
  1  3  1  0  0  0
  3  4  1  0  0  0
  3  6  1  0  0  0
  4  5  1  0  0  0
  5  6  1  0  0  0
  5  7  1  0  0  0
  7  8  1  0  0  0
  7 16  1  0  0  0
  8  9  2  0  0  0
  8 10  1  0  0  0
 10 11  1  0  0  0
 10 15  1  0  0  0
 11 12  1  0  0  0
 11 16  1  0  0  0
 12 13  1  0  0  0
 13 14  2  0  0  0
 14 15  1  0  0  0
 16 17  2  0  0  0
M  END
> <minimizedAffinity>
-9.39643

$$$$
681


 25 28  0  0  0  0  0  0  0  0999 V2000
   16.5956  -58.7002   34.3248 C   0  0  0  0  0  0  0  0  0  0  0  0
   17.3282  -59.5727   33.7633 O   0  0  0  0  0  0  0  0  0  0  0  0
   17.1675  -57.4713   34.6770 N   0  0  0  0  0  0  0  0  0  0  0  0
   16.8205  -56.2115   35.2790 C   0  0  0  0  0  0  0  0  0  0  0  0
   18.1678  -55.5991   34.9272 C   0  0  0  0  0  0  0  0  0  0  0  0
   18.5574  -56.9930   34.5387 C   0  0  0  0  0  0  0  0  0  0  0  0
   12.8454  -59.4533   38.0194 Br  0  0  0  0  0  0  0  0  0  0  0  0
   13.4417  -59.3979   36.1927 C   0  0  0  0  0  0  0  0  0  0  0  0
   12.5349  -59.6819   35.1975 C   0  0  0  0  0  0  0  0  0  0  0  0
   12.9736  -59.6368   33.9347 N   0  0  0  0  0  0  0  0  0  0  0  0
   14.2646  -59.3239   33.6203 C   0  0  0  0  0  0  0  0  0  0  0  0
   15.2135  -59.0308   34.5671 C   0  0  0  0  0  0  0  0  0  0  0  0
   14.7419  -59.0808   35.8920 C   0  0  0  0  0  0  0  0  0  0  0  0
   18.8914  -55.0245   35.9701 O   0  0  0  0  0  0  0  0  0  0  0  0
   18.7405  -53.7414   36.4546 C   0  0  0  0  0  0  0  0  0  0  0  0
   19.5519  -52.7758   36.0307 C   0  0  0  0  0  0  0  0  0  0  0  0
   19.4430  -51.4018   36.5041 C   0  0  0  0  0  0  0  0  0  0  0  0
   20.2652  -50.4672   36.0607 C   0  0  0  0  0  0  0  0  0  0  0  0
   18.4264  -51.1132   37.4536 N   0  0  0  0  0  0  0  0  0  0  0  0
   17.5662  -52.1756   37.8936 C   0  0  0  0  0  0  0  0  0  0  0  0
   17.7182  -53.4202   37.4191 N   0  0  0  0  0  0  0  0  0  0  0  0
   16.8028  -54.2119   37.9874 N   0  0  0  0  0  0  0  0  0  0  0  0
   16.0840  -53.4482   38.8176 C   0  0  0  0  0  0  0  0  0  0  0  0
   16.5506  -52.1968   38.7621 N   0  0  0  0  0  0  0  0  0  0  0  0
   18.3395  -50.1417   37.7963 H   0  0  0  0  0  0  0  0  0  0  0  0
  7  8  1  0  0  0
  8  9  2  0  0  0
  8 13  1  0  0  0
  9 10  1  0  0  0
 10 11  2  0  0  0
 11 12  1  0  0  0
 12 13  2  0  0  0
 12  1  1  0  0  0
  1  2  2  0  0  0
  1  3  1  0  0  0
  3  4  1  0  0  0
  3  6  1  0  0  0
  4  5  1  0  0  0
  5  6  1  0  0  0
  5 14  1  0  0  0
 14 15  1  0  0  0
 15 16  2  0  0  0
 15 21  1  0  0  0
 16 17  1  0  0  0
 17 18  2  0  0  0
 17 19  1  0  0  0
 19 20  1  0  0  0
 20 21  1  0  0  0
 20 24  2  0  0  0
 21 22  1  0  0  0
 22 23  2  0  0  0
 23 24  1  0  0  0
 19 25  1  0  0  0
M  END
> <minimizedAffinity>
-8.50622

$$$$
683


 20 22  0  0  0  0  0  0  0  0999 V2000
   18.2409  -53.8476   35.1874 N   0  0  0  0  0  0  0  0  0  0  0  0
   19.3957  -53.0795   35.6227 C   0  0  0  0  0  0  0  0  0  0  0  0
   19.4520  -52.9406   37.1273 C   0  0  0  0  0  0  0  0  0  0  0  0
   18.6942  -51.6992   37.5640 C   0  0  0  0  0  0  0  0  0  0  0  0
   17.2013  -51.9224   37.4766 C   0  0  0  0  0  0  0  0  0  0  0  0
   16.9298  -53.3591   37.3108 C   0  0  0  0  0  0  0  0  0  0  0  0
   17.3915  -54.1770   36.3078 C   0  0  0  0  0  0  0  0  0  0  0  0
   17.0492  -55.4678   36.3040 N   0  0  0  0  0  0  0  0  0  0  0  0
   16.2661  -55.9998   37.2466 C   0  0  0  0  0  0  0  0  0  0  0  0
   15.7934  -55.2019   38.2569 C   0  0  0  0  0  0  0  0  0  0  0  0
   16.1307  -53.8641   38.2863 C   0  0  0  0  0  0  0  0  0  0  0  0
   15.6241  -53.0466   39.3535 N   0  0  0  0  0  0  0  0  0  0  0  0
   14.9741  -55.7036   39.2646 C   0  0  0  0  0  0  0  0  0  0  0  0
   14.6463  -57.0357   39.2219 C   0  0  0  0  0  0  0  0  0  0  0  0
   15.1203  -57.8338   38.2099 C   0  0  0  0  0  0  0  0  0  0  0  0
   15.9404  -57.3210   37.2058 C   0  0  0  0  0  0  0  0  0  0  0  0
   18.7299  -55.1029   34.6277 C   0  0  0  0  0  0  0  0  0  0  0  0
   17.7016  -53.3173   34.4652 H   0  0  0  0  0  0  0  0  0  0  0  0
   16.2781  -52.6310   40.0352 H   0  0  0  0  0  0  0  0  0  0  0  0
   14.5990  -52.8649   39.4539 H   0  0  0  0  0  0  0  0  0  0  0  0
  1  2  1  0  0  0
  1  7  1  0  0  0
  1 17  1  0  0  0
  2  3  1  0  0  0
  3  4  1  0  0  0
  4  5  1  0  0  0
  5  6  1  0  0  0
  6  7  2  0  0  0
  6 11  1  0  0  0
  7  8  1  0  0  0
  8  9  2  0  0  0
  9 10  1  0  0  0
  9 16  1  0  0  0
 10 11  2  0  0  0
 10 13  1  0  0  0
 11 12  1  0  0  0
 13 14  2  0  0  0
 14 15  1  0  0  0
 15 16  2  0  0  0
  1 18  1  0  0  0
 12 19  1  0  0  0
 12 20  1  0  0  0
M  CHG 1   1   1
M  END
> <minimizedAffinity>
-9.27379

$$$$
684


 19 21  0  0  0  0  0  0  0  0999 V2000
   18.7274  -53.3019   35.7589 N   0  0  0  0  0  0  0  0  0  0  0  0
   19.5999  -52.5316   36.6645 C   0  0  0  0  0  0  0  0  0  0  0  0
   18.8752  -51.2963   37.0878 C   0  0  0  0  0  0  0  0  0  0  0  0
   17.6231  -51.6835   37.8277 C   0  0  0  0  0  0  0  0  0  0  0  0
   17.2183  -53.0880   37.6517 C   0  0  0  0  0  0  0  0  0  0  0  0
   17.7485  -53.8719   36.6515 C   0  0  0  0  0  0  0  0  0  0  0  0
   17.3378  -55.1340   36.5470 N   0  0  0  0  0  0  0  0  0  0  0  0
   16.4251  -55.6937   37.3696 C   0  0  0  0  0  0  0  0  0  0  0  0
   15.8727  -54.9382   38.3824 C   0  0  0  0  0  0  0  0  0  0  0  0
   16.2679  -53.6271   38.5292 C   0  0  0  0  0  0  0  0  0  0  0  0
   15.6957  -52.8509   39.5754 N   0  0  0  0  0  0  0  0  0  0  0  0
   14.9285  -55.5139   39.2348 C   0  0  0  0  0  0  0  0  0  0  0  0
   14.5202  -56.8228   39.1056 C   0  0  0  0  0  0  0  0  0  0  0  0
   15.0759  -57.5737   38.0898 C   0  0  0  0  0  0  0  0  0  0  0  0
   16.0139  -57.0029   37.2426 C   0  0  0  0  0  0  0  0  0  0  0  0
   19.5675  -54.3261   35.1728 C   0  0  0  0  0  0  0  0  0  0  0  0
   18.2972  -52.6821   35.0526 H   0  0  0  0  0  0  0  0  0  0  0  0
   15.9678  -53.1011   40.5516 H   0  0  0  0  0  0  0  0  0  0  0  0
   15.0394  -52.0689   39.4391 H   0  0  0  0  0  0  0  0  0  0  0  0
  1  2  1  0  0  0
  1  6  1  0  0  0
  1 16  1  0  0  0
  2  3  1  0  0  0
  3  4  1  0  0  0
  4  5  1  0  0  0
  5  6  2  0  0  0
  5 10  1  0  0  0
  6  7  1  0  0  0
  7  8  2  0  0  0
  8  9  1  0  0  0
  8 15  1  0  0  0
  9 10  2  0  0  0
  9 12  1  0  0  0
 10 11  1  0  0  0
 12 13  2  0  0  0
 13 14  1  0  0  0
 14 15  2  0  0  0
  1 17  1  0  0  0
 11 18  1  0  0  0
 11 19  1  0  0  0
M  CHG 1   1   1
M  END
> <minimizedAffinity>
-9.43386

$$$$
692


 29 32  0  0  0  0  0  0  0  0999 V2000
   19.9694  -55.4389   28.2982 Br  0  0  0  0  0  0  0  0  0  0  0  0
   19.4869  -56.9392   29.3592 C   0  0  0  0  0  0  0  0  0  0  0  0
   19.0131  -56.7405   30.6419 C   0  0  0  0  0  0  0  0  0  0  0  0
   18.6410  -57.8041   31.4779 C   0  0  0  0  0  0  0  0  0  0  0  0
   18.7491  -59.0899   31.0100 C   0  0  0  0  0  0  0  0  0  0  0  0
   19.2220  -59.2955   29.7282 C   0  0  0  0  0  0  0  0  0  0  0  0
   19.5876  -58.2516   28.9070 C   0  0  0  0  0  0  0  0  0  0  0  0
   19.3843  -61.0653   29.0473 Br  0  0  0  0  0  0  0  0  0  0  0  0
   18.1598  -57.5445   32.8293 C   0  0  0  0  0  0  0  0  0  0  0  0
   18.2708  -58.5000   33.6455 O   0  0  0  0  0  0  0  0  0  0  0  0
   17.5843  -56.2636   33.2235 C   0  0  0  0  0  0  0  0  0  0  0  0
   17.7506  -55.2640   32.0481 C   0  0  0  0  0  0  0  0  0  0  0  0
   18.8491  -55.5072   31.2481 O   0  0  0  0  0  0  0  0  0  0  0  0
   16.1567  -56.2207   33.5232 C   0  0  0  0  0  0  0  0  0  0  0  0
   15.4020  -57.2184   34.1262 N   0  0  0  0  0  0  0  0  0  0  0  0
   14.0444  -57.4456   33.7407 C   0  0  0  0  0  0  0  0  0  0  0  0
   13.7371  -58.9212   34.1037 C   0  0  0  0  0  0  0  0  0  0  0  0
   13.6218  -58.9398   35.6137 C   0  0  0  0  0  0  0  0  0  0  0  0
   14.2462  -57.7126   36.2396 C   0  0  0  0  0  0  0  0  0  0  0  0
   15.5511  -57.3401   35.5690 C   0  0  0  0  0  0  0  0  0  0  0  0
   15.8779  -58.1326   33.7831 H   0  0  0  0  0  0  0  0  0  0  0  0
   18.3765  -55.7438   34.4130 C   0  0  0  0  0  0  0  0  0  0  0  0
   18.4359  -54.3037   34.4637 N   0  0  0  0  0  0  0  0  0  0  0  0
   19.7879  -53.9267   34.8504 C   0  0  0  0  0  0  0  0  0  0  0  0
   20.1467  -54.6289   36.1177 C   0  0  0  0  0  0  0  0  0  0  0  0
   19.1858  -54.4483   37.2348 C   0  0  0  0  0  0  0  0  0  0  0  0
   17.7523  -54.3562   36.8399 C   0  0  0  0  0  0  0  0  0  0  0  0
   17.5919  -53.7076   35.4832 C   0  0  0  0  0  0  0  0  0  0  0  0
   18.1545  -53.8770   33.5632 H   0  0  0  0  0  0  0  0  0  0  0  0
  1  2  1  0  0  0
  2  3  2  0  0  0
  2  7  1  0  0  0
  3  4  1  0  0  0
  3 13  1  0  0  0
  4  5  2  0  0  0
  4  9  1  0  0  0
  5  6  1  0  0  0
  6  7  2  0  0  0
  6  8  1  0  0  0
  9 10  2  0  0  0
  9 11  1  0  0  0
 11 12  1  0  0  0
 11 14  1  0  0  0
 11 22  1  0  0  0
 12 13  1  0  0  0
 14 15  1  0  0  0
 15 16  1  0  0  0
 15 20  1  0  0  0
 16 17  1  0  0  0
 17 18  1  0  0  0
 18 19  1  0  0  0
 19 20  1  0  0  0
 22 23  1  0  0  0
 23 24  1  0  0  0
 23 28  1  0  0  0
 24 25  1  0  0  0
 25 26  1  0  0  0
 26 27  1  0  0  0
 27 28  1  0  0  0
 15 21  1  0  0  0
 23 29  1  0  0  0
M  CHG 1  15   1
M  CHG 1  23   1
M  END
> <minimizedAffinity>
-7.01427

$$$$
693


 33 36  0  0  0  0  0  0  0  0999 V2000
   15.9745  -56.6516   34.0085 N   0  0  0  0  0  0  0  0  0  0  0  0
   16.7286  -56.5545   32.8180 C   0  0  0  0  0  0  0  0  0  0  0  0
   16.5334  -57.3526   31.8779 O   0  0  0  0  0  0  0  0  0  0  0  0
   16.0837  -56.0215   34.8315 H   0  0  0  0  0  0  0  0  0  0  0  0
   12.0312  -60.1966   39.2463 Br  0  0  0  0  0  0  0  0  0  0  0  0
   12.3652  -60.0757   37.3655 C   0  0  0  0  0  0  0  0  0  0  0  0
   13.2701  -59.1725   36.8464 C   0  0  0  0  0  0  0  0  0  0  0  0
   13.5215  -59.0777   35.4882 C   0  0  0  0  0  0  0  0  0  0  0  0
   12.8177  -59.9358   34.6717 C   0  0  0  0  0  0  0  0  0  0  0  0
   11.9064  -60.8491   35.1522 C   0  0  0  0  0  0  0  0  0  0  0  0
   11.6667  -60.9318   36.5141 C   0  0  0  0  0  0  0  0  0  0  0  0
   10.9633  -62.0122   33.9641 Br  0  0  0  0  0  0  0  0  0  0  0  0
   14.5161  -58.0522   35.2104 C   0  0  0  0  0  0  0  0  0  0  0  0
   15.0141  -57.6638   34.0969 N   0  0  0  0  0  0  0  0  0  0  0  0
   14.8841  -57.4941   36.5163 C   0  0  0  0  0  0  0  0  0  0  0  0
   15.7293  -56.5725   36.6731 O   0  0  0  0  0  0  0  0  0  0  0  0
   14.1081  -58.2010   37.4632 N   0  0  0  0  0  0  0  0  0  0  0  0
   14.1424  -58.0342   38.4831 H   0  0  0  0  0  0  0  0  0  0  0  0
   17.7830  -55.5100   32.6211 C   0  0  0  0  0  0  0  0  0  0  0  0
   18.2661  -54.9914   33.8713 N   0  0  0  0  0  0  0  0  0  0  0  0
   19.4672  -54.2396   33.9827 C   0  0  0  0  0  0  0  0  0  0  0  0
   20.1292  -54.0216   32.9446 O   0  0  0  0  0  0  0  0  0  0  0  0
   17.7420  -55.1492   34.7639 H   0  0  0  0  0  0  0  0  0  0  0  0
   19.9833  -53.6968   35.2750 C   0  0  0  0  0  0  0  0  0  0  0  0
   19.3806  -54.3093   36.3762 O   0  0  0  0  0  0  0  0  0  0  0  0
   18.4784  -53.6891   37.2377 C   0  0  0  0  0  0  0  0  0  0  0  0
   18.4581  -52.3193   37.2346 C   0  0  0  0  0  0  0  0  0  0  0  0
   17.5651  -51.6713   38.0882 C   0  0  0  0  0  0  0  0  0  0  0  0
   16.7137  -52.3559   38.9252 C   0  0  0  0  0  0  0  0  0  0  0  0
   16.7629  -53.7362   38.9007 C   0  0  0  0  0  0  0  0  0  0  0  0
   17.6410  -54.3806   38.0610 C   0  0  0  0  0  0  0  0  0  0  0  0
   19.3004  -51.6297   36.4069 O   0  0  0  0  0  0  0  0  0  0  0  0
   19.9650  -52.2090   35.3183 C   0  0  0  0  0  0  0  0  0  0  0  0
  5  6  1  0  0  0
  6  7  2  0  0  0
  6 11  1  0  0  0
  7  8  1  0  0  0
  7 17  1  0  0  0
  8  9  2  0  0  0
  8 13  1  0  0  0
  9 10  1  0  0  0
 10 11  2  0  0  0
 10 12  1  0  0  0
 13 14  2  0  0  0
 13 15  1  0  0  0
 14  1  1  0  0  0
  1  2  1  0  0  0
  2  3  2  0  0  0
  2 19  1  0  0  0
 19 20  1  0  0  0
 20 21  1  0  0  0
 21 22  2  0  0  0
 21 24  1  0  0  0
 24 25  1  0  0  0
 24 33  1  0  0  0
 25 26  1  0  0  0
 26 27  2  0  0  0
 26 31  1  0  0  0
 27 28  1  0  0  0
 27 32  1  0  0  0
 28 29  2  0  0  0
 29 30  1  0  0  0
 30 31  2  0  0  0
 32 33  1  0  0  0
 15 16  2  0  0  0
 15 17  1  0  0  0
  1  4  1  0  0  0
 20 23  1  0  0  0
 17 18  1  0  0  0
M  END
> <minimizedAffinity>
-10.21123

$$$$
695


 22 25  0  0  0  0  0  0  0  0999 V2000
   18.3297  -56.0910   34.8381 C   0  0  0  0  0  0  0  0  0  0  0  0
   16.5928  -52.4370   38.3530 Br  0  0  0  0  0  0  0  0  0  0  0  0
   17.8106  -53.0479   36.9988 C   0  0  0  0  0  0  0  0  0  0  0  0
   18.8351  -52.1995   36.6355 C   0  0  0  0  0  0  0  0  0  0  0  0
   19.7062  -52.6357   35.6679 C   0  0  0  0  0  0  0  0  0  0  0  0
   19.5436  -53.8936   35.0843 C   0  0  0  0  0  0  0  0  0  0  0  0
   18.5251  -54.7473   35.4395 C   0  0  0  0  0  0  0  0  0  0  0  0
   17.6444  -54.2926   36.4255 C   0  0  0  0  0  0  0  0  0  0  0  0
   20.6353  -51.6098   35.4851 O   0  0  0  0  0  0  0  0  0  0  0  0
   20.0205  -50.3957   35.9435 C   0  0  0  0  0  0  0  0  0  0  0  0
   19.2432  -50.9198   37.0296 O   0  0  0  0  0  0  0  0  0  0  0  0
   16.9482  -56.2479   34.4541 N   0  0  0  0  0  0  0  0  0  0  0  0
   16.5316  -55.7118   33.6744 H   0  0  0  0  0  0  0  0  0  0  0  0
   16.1362  -57.1828   35.1889 C   0  0  0  0  0  0  0  0  0  0  0  0
   16.5264  -57.6484   36.3832 N   0  0  0  0  0  0  0  0  0  0  0  0
   15.7616  -58.5213   37.0629 C   0  0  0  0  0  0  0  0  0  0  0  0
   14.5466  -58.9681   36.5523 C   0  0  0  0  0  0  0  0  0  0  0  0
   14.1651  -58.5002   35.3642 N   0  0  0  0  0  0  0  0  0  0  0  0
   14.9350  -57.6188   34.6752 C   0  0  0  0  0  0  0  0  0  0  0  0
   14.2993  -57.3318   33.5276 N   0  0  0  0  0  0  0  0  0  0  0  0
   13.1589  -57.9989   33.4684 N   0  0  0  0  0  0  0  0  0  0  0  0
   13.0823  -58.7125   34.5948 C   0  0  0  0  0  0  0  0  0  0  0  0
  2  3  1  0  0  0
  3  4  2  0  0  0
  3  8  1  0  0  0
  4  5  1  0  0  0
  4 11  1  0  0  0
  5  6  2  0  0  0
  5  9  1  0  0  0
  6  7  1  0  0  0
  7  8  2  0  0  0
  7  1  1  0  0  0
  1 12  1  0  0  0
 12 14  1  0  0  0
 14 15  2  0  0  0
 14 19  1  0  0  0
 15 16  1  0  0  0
 16 17  2  0  0  0
 17 18  1  0  0  0
 18 19  1  0  0  0
 18 22  1  0  0  0
 19 20  2  0  0  0
 20 21  1  0  0  0
 21 22  2  0  0  0
  9 10  1  0  0  0
 10 11  1  0  0  0
 12 13  1  0  0  0
M  END
> <minimizedAffinity>
-8.75950

$$$$
696


 28 31  0  0  0  0  0  0  0  0999 V2000
   16.8381  -62.2520   32.8968 Br  0  0  0  0  0  0  0  0  0  0  0  0
   15.4897  -61.0987   33.5712 C   0  0  0  0  0  0  0  0  0  0  0  0
   15.7997  -59.7543   33.8170 C   0  0  0  0  0  0  0  0  0  0  0  0
   14.8720  -58.8786   34.2922 C   0  0  0  0  0  0  0  0  0  0  0  0
   13.5907  -59.3404   34.5379 C   0  0  0  0  0  0  0  0  0  0  0  0
   13.2744  -60.6727   34.2971 C   0  0  0  0  0  0  0  0  0  0  0  0
   14.2136  -61.5549   33.8158 C   0  0  0  0  0  0  0  0  0  0  0  0
   11.9064  -61.2093   34.5485 C   0  0  0  0  0  0  0  0  0  0  0  0
   15.2134  -57.4457   34.5055 C   0  0  0  0  0  0  0  0  0  0  0  0
   16.6210  -57.1430   34.8751 C   0  0  0  0  0  0  0  0  0  0  0  0
   17.5326  -58.3734   34.6509 C   0  0  0  0  0  0  0  0  0  0  0  0
   17.0560  -59.2043   33.6053 O   0  0  0  0  0  0  0  0  0  0  0  0
   14.8087  -56.8511   33.2774 O   0  0  0  0  0  0  0  0  0  0  0  0
   13.8471  -56.7070   33.2552 H   0  0  0  0  0  0  0  0  0  0  0  0
   16.7979  -56.8658   36.3560 C   0  0  0  0  0  0  0  0  0  0  0  0
   15.5628  -56.6715   37.0849 N   0  0  0  0  0  0  0  0  0  0  0  0
   15.7286  -55.5795   38.0444 C   0  0  0  0  0  0  0  0  0  0  0  0
   14.7329  -55.7741   39.1271 C   0  0  0  0  0  0  0  0  0  0  0  0
   14.1665  -57.1279   38.8616 C   0  0  0  0  0  0  0  0  0  0  0  0
   15.2718  -57.7586   38.0047 C   0  0  0  0  0  0  0  0  0  0  0  0
   14.7211  -56.5416   36.5054 H   0  0  0  0  0  0  0  0  0  0  0  0
   17.2250  -56.1012   34.0122 C   0  0  0  0  0  0  0  0  0  0  0  0
   18.5420  -55.8400   33.7376 N   0  0  0  0  0  0  0  0  0  0  0  0
   18.6813  -55.3054   32.3641 C   0  0  0  0  0  0  0  0  0  0  0  0
   19.7960  -54.3336   32.3996 C   0  0  0  0  0  0  0  0  0  0  0  0
   19.9088  -53.8673   33.8003 C   0  0  0  0  0  0  0  0  0  0  0  0
   19.2753  -55.0061   34.5974 C   0  0  0  0  0  0  0  0  0  0  0  0
   19.1178  -56.7825   33.5982 H   0  0  0  0  0  0  0  0  0  0  0  0
  1  2  1  0  0  0
  2  3  2  0  0  0
  2  7  1  0  0  0
  3  4  1  0  0  0
  3 12  1  0  0  0
  4  5  2  0  0  0
  4  9  1  0  0  0
  5  6  1  0  0  0
  6  7  2  0  0  0
  6  8  1  0  0  0
  9 10  1  0  0  0
  9 13  1  0  0  0
 10 11  1  0  0  0
 10 15  1  0  0  0
 10 22  1  0  0  0
 11 12  1  0  0  0
 15 16  1  0  0  0
 16 17  1  0  0  0
 16 20  1  0  0  0
 17 18  1  0  0  0
 18 19  1  0  0  0
 19 20  1  0  0  0
 22 23  1  0  0  0
 23 24  1  0  0  0
 23 27  1  0  0  0
 24 25  1  0  0  0
 25 26  1  0  0  0
 26 27  1  0  0  0
 16 21  1  0  0  0
 23 28  1  0  0  0
 13 14  1  0  0  0
M  CHG 1  16   1
M  CHG 1  23   1
M  END
> <minimizedAffinity>
-7.83245

$$$$
699


 32 35  0  0  0  0  0  0  0  0999 V2000
   12.7706  -59.6920   36.0139 C   0  0  0  0  0  0  0  0  0  0  0  0
   11.4272  -59.7903   36.2677 O   0  0  0  0  0  0  0  0  0  0  0  0
   10.8836  -59.0688   35.9026 H   0  0  0  0  0  0  0  0  0  0  0  0
   13.0823  -58.9056   34.7658 C   0  0  0  0  0  0  0  0  0  0  0  0
   14.2170  -59.4104   34.0884 O   0  0  0  0  0  0  0  0  0  0  0  0
   16.7095  -60.7467   32.9509 Br  0  0  0  0  0  0  0  0  0  0  0  0
   16.3304  -58.8837   33.0223 C   0  0  0  0  0  0  0  0  0  0  0  0
   17.2503  -57.9865   32.5168 C   0  0  0  0  0  0  0  0  0  0  0  0
   17.0017  -56.6304   32.5548 C   0  0  0  0  0  0  0  0  0  0  0  0
   15.8070  -56.2255   33.1143 C   0  0  0  0  0  0  0  0  0  0  0  0
   14.8923  -57.1292   33.6171 C   0  0  0  0  0  0  0  0  0  0  0  0
   15.1320  -58.4882   33.5838 C   0  0  0  0  0  0  0  0  0  0  0  0
   17.9247  -55.7309   32.0477 C   0  0  0  0  0  0  0  0  0  0  0  0
   19.1194  -56.1345   31.4876 C   0  0  0  0  0  0  0  0  0  0  0  0
   19.3693  -57.4921   31.4498 C   0  0  0  0  0  0  0  0  0  0  0  0
   18.4494  -58.3893   31.9553 C   0  0  0  0  0  0  0  0  0  0  0  0
   13.5315  -59.1615   37.1793 C   0  0  0  0  0  0  0  0  0  0  0  0
   14.1292  -57.8652   36.9482 N   0  0  0  0  0  0  0  0  0  0  0  0
   15.5455  -57.9961   37.2412 C   0  0  0  0  0  0  0  0  0  0  0  0
   16.2522  -56.6335   37.2808 C   0  0  0  0  0  0  0  0  0  0  0  0
   15.6151  -55.8160   38.2501 N   0  0  0  0  0  0  0  0  0  0  0  0
   14.4407  -56.4308   38.9032 C   0  0  0  0  0  0  0  0  0  0  0  0
   13.5037  -56.9006   37.8407 C   0  0  0  0  0  0  0  0  0  0  0  0
   16.0157  -54.5238   38.6077 C   0  0  0  0  0  0  0  0  0  0  0  0
   15.2483  -53.9789   39.5379 O   0  0  0  0  0  0  0  0  0  0  0  0
   14.0399  -57.5301   35.9658 H   0  0  0  0  0  0  0  0  0  0  0  0
   17.0849  -53.6907   38.1610 C   0  0  0  0  0  0  0  0  0  0  0  0
   18.3402  -54.0915   37.8023 C   0  0  0  0  0  0  0  0  0  0  0  0
   19.3378  -53.2259   37.3755 C   0  0  0  0  0  0  0  0  0  0  0  0
   19.0939  -51.8925   37.2941 C   0  0  0  0  0  0  0  0  0  0  0  0
   17.8346  -51.4551   37.6497 C   0  0  0  0  0  0  0  0  0  0  0  0
   16.8487  -52.3106   38.0724 C   0  0  0  0  0  0  0  0  0  0  0  0
  6  7  1  0  0  0
  7  8  2  0  0  0
  7 12  1  0  0  0
  8  9  1  0  0  0
  8 16  1  0  0  0
  9 10  2  0  0  0
  9 13  1  0  0  0
 10 11  1  0  0  0
 11 12  2  0  0  0
 12  5  1  0  0  0
  5  4  1  0  0  0
  4  1  1  0  0  0
  1  2  1  0  0  0
  1 17  1  0  0  0
 17 18  1  0  0  0
 18 19  1  0  0  0
 18 23  1  0  0  0
 19 20  1  0  0  0
 20 21  1  0  0  0
 21 22  1  0  0  0
 21 24  1  0  0  0
 22 23  1  0  0  0
 24 25  2  0  0  0
 24 27  1  0  0  0
 27 28  2  0  0  0
 27 32  1  0  0  0
 28 29  1  0  0  0
 29 30  2  0  0  0
 30 31  1  0  0  0
 31 32  2  0  0  0
 13 14  2  0  0  0
 14 15  1  0  0  0
 15 16  2  0  0  0
  2  3  1  0  0  0
 18 26  1  0  0  0
M  CHG 1  18   1
M  END
> <minimizedAffinity>
-9.99787

$$$$
706


 30 33  0  0  0  0  0  0  0  0999 V2000
   18.2394  -56.1817   34.6326 C   0  0  0  0  0  0  0  0  0  0  0  0
   16.7237  -59.1161   34.5585 Br  0  0  0  0  0  0  0  0  0  0  0  0
   16.5619  -57.5787   35.7119 C   0  0  0  0  0  0  0  0  0  0  0  0
   17.2554  -56.4277   35.6320 N   0  0  0  0  0  0  0  0  0  0  0  0
   16.8594  -55.5983   36.6104 C   0  0  0  0  0  0  0  0  0  0  0  0
   15.8804  -56.2533   37.3320 C   0  0  0  0  0  0  0  0  0  0  0  0
   15.7264  -57.4537   36.7579 N   0  0  0  0  0  0  0  0  0  0  0  0
   15.3140  -55.6200   38.3791 N   0  0  0  0  0  0  0  0  0  0  0  0
   15.6628  -54.3689   38.7527 C   0  0  0  0  0  0  0  0  0  0  0  0
   15.1052  -53.8097   39.7437 O   0  0  0  0  0  0  0  0  0  0  0  0
   16.6121  -53.7015   38.0719 N   0  0  0  0  0  0  0  0  0  0  0  0
   17.1830  -54.3236   37.0259 C   0  0  0  0  0  0  0  0  0  0  0  0
   18.0632  -53.7127   36.3862 O   0  0  0  0  0  0  0  0  0  0  0  0
   16.9683  -52.3596   38.4913 C   0  0  0  0  0  0  0  0  0  0  0  0
   14.2891  -56.3151   39.1306 C   0  0  0  0  0  0  0  0  0  0  0  0
   17.7718  -55.6183   33.3405 C   0  0  0  0  0  0  0  0  0  0  0  0
   18.7055  -55.5741   32.2657 N   0  0  0  0  0  0  0  0  0  0  0  0
   18.6570  -56.3418   31.1485 C   0  0  0  0  0  0  0  0  0  0  0  0
   19.7213  -56.0328   30.3378 C   0  0  0  0  0  0  0  0  0  0  0  0
   20.3946  -55.0724   30.9930 N   0  0  0  0  0  0  0  0  0  0  0  0
   19.7851  -54.7953   32.1541 C   0  0  0  0  0  0  0  0  0  0  0  0
   20.3269  -53.5069   33.4819 Br  0  0  0  0  0  0  0  0  0  0  0  0
   19.9458  -56.6369   29.1404 N   0  0  0  0  0  0  0  0  0  0  0  0
   19.0629  -57.5790   28.7631 C   0  0  0  0  0  0  0  0  0  0  0  0
   19.2598  -58.1470   27.6544 O   0  0  0  0  0  0  0  0  0  0  0  0
   18.0031  -57.9228   29.5156 N   0  0  0  0  0  0  0  0  0  0  0  0
   17.7914  -57.3254   30.6873 C   0  0  0  0  0  0  0  0  0  0  0  0
   16.8187  -57.6009   31.4399 O   0  0  0  0  0  0  0  0  0  0  0  0
   17.0816  -58.9437   29.0635 C   0  0  0  0  0  0  0  0  0  0  0  0
   21.0860  -56.2825   28.3056 C   0  0  0  0  0  0  0  0  0  0  0  0
  2  3  1  0  0  0
  3  4  1  0  0  0
  3  7  2  0  0  0
  4  5  1  0  0  0
  4  1  1  0  0  0
  5  6  2  0  0  0
  5 12  1  0  0  0
  6  7  1  0  0  0
  6  8  1  0  0  0
  8  9  1  0  0  0
  8 15  1  0  0  0
  9 10  2  0  0  0
  9 11  1  0  0  0
 11 12  1  0  0  0
 11 14  1  0  0  0
 12 13  2  0  0  0
  1 16  1  0  0  0
 16 17  1  0  0  0
 17 18  1  0  0  0
 17 21  1  0  0  0
 18 19  2  0  0  0
 18 27  1  0  0  0
 19 20  1  0  0  0
 19 23  1  0  0  0
 20 21  2  0  0  0
 21 22  1  0  0  0
 23 24  1  0  0  0
 23 30  1  0  0  0
 24 25  2  0  0  0
 24 26  1  0  0  0
 26 27  1  0  0  0
 26 29  1  0  0  0
 27 28  2  0  0  0
M  END
> <minimizedAffinity>
-9.29608

$$$$
708


 31 34  0  0  0  0  0  0  0  0999 V2000
   15.7251  -57.9863   35.0732 C   0  0  0  0  0  0  0  0  0  0  0  0
   16.9036  -57.5467   35.8918 C   0  0  0  0  0  0  0  0  0  0  0  0
   14.4936  -57.8561   38.0560 Br  0  0  0  0  0  0  0  0  0  0  0  0
   15.6481  -56.3824   37.7087 C   0  0  0  0  0  0  0  0  0  0  0  0
   16.6291  -56.4169   36.7557 N   0  0  0  0  0  0  0  0  0  0  0  0
   17.2112  -55.2029   36.8203 C   0  0  0  0  0  0  0  0  0  0  0  0
   16.6129  -54.4188   37.7933 C   0  0  0  0  0  0  0  0  0  0  0  0
   15.6412  -55.1914   38.3250 N   0  0  0  0  0  0  0  0  0  0  0  0
   16.9797  -53.1576   38.0791 N   0  0  0  0  0  0  0  0  0  0  0  0
   17.9944  -52.6487   37.3575 C   0  0  0  0  0  0  0  0  0  0  0  0
   18.3812  -51.4546   37.5918 O   0  0  0  0  0  0  0  0  0  0  0  0
   18.6032  -53.3749   36.4020 N   0  0  0  0  0  0  0  0  0  0  0  0
   18.2338  -54.6531   36.1099 C   0  0  0  0  0  0  0  0  0  0  0  0
   18.8077  -55.3127   35.2189 O   0  0  0  0  0  0  0  0  0  0  0  0
   16.3498  -52.3460   39.0986 C   0  0  0  0  0  0  0  0  0  0  0  0
   19.3908  -52.9956   35.8344 H   0  0  0  0  0  0  0  0  0  0  0  0
   15.5631  -57.2604   33.7686 C   0  0  0  0  0  0  0  0  0  0  0  0
   16.5409  -57.7442   32.8038 N   0  0  0  0  0  0  0  0  0  0  0  0
   17.4400  -57.0301   32.0888 C   0  0  0  0  0  0  0  0  0  0  0  0
   18.1835  -57.8652   31.2876 C   0  0  0  0  0  0  0  0  0  0  0  0
   17.7187  -59.1054   31.5282 N   0  0  0  0  0  0  0  0  0  0  0  0
   16.7285  -59.0238   32.4428 C   0  0  0  0  0  0  0  0  0  0  0  0
   15.7110  -60.4728   33.1582 Br  0  0  0  0  0  0  0  0  0  0  0  0
   19.1567  -57.4362   30.4625 N   0  0  0  0  0  0  0  0  0  0  0  0
   19.3901  -56.1009   30.4457 C   0  0  0  0  0  0  0  0  0  0  0  0
   20.3077  -55.6927   29.6700 O   0  0  0  0  0  0  0  0  0  0  0  0
   18.6839  -55.2469   31.2158 N   0  0  0  0  0  0  0  0  0  0  0  0
   17.7110  -55.6881   32.0393 C   0  0  0  0  0  0  0  0  0  0  0  0
   17.0365  -54.9204   32.7679 O   0  0  0  0  0  0  0  0  0  0  0  0
   19.9207  -58.3610   29.6287 C   0  0  0  0  0  0  0  0  0  0  0  0
   18.9079  -54.2334   31.1616 H   0  0  0  0  0  0  0  0  0  0  0  0
  3  4  1  0  0  0
  4  5  1  0  0  0
  4  8  2  0  0  0
  5  6  1  0  0  0
  5  2  1  0  0  0
  6  7  2  0  0  0
  6 13  1  0  0  0
  7  8  1  0  0  0
  7  9  1  0  0  0
  9 10  1  0  0  0
  9 15  1  0  0  0
 10 11  2  0  0  0
 10 12  1  0  0  0
 12 13  1  0  0  0
 13 14  2  0  0  0
  2  1  1  0  0  0
  1 17  1  0  0  0
 17 18  1  0  0  0
 18 19  1  0  0  0
 18 22  1  0  0  0
 19 20  2  0  0  0
 19 28  1  0  0  0
 20 21  1  0  0  0
 20 24  1  0  0  0
 21 22  2  0  0  0
 22 23  1  0  0  0
 24 25  1  0  0  0
 24 30  1  0  0  0
 25 26  2  0  0  0
 25 27  1  0  0  0
 27 28  1  0  0  0
 28 29  2  0  0  0
 12 16  1  0  0  0
 27 31  1  0  0  0
M  END
> <minimizedAffinity>
-8.74146

$$$$
709


 30 33  0  0  0  0  0  0  0  0999 V2000
   17.7704  -56.0248   33.5211 C   0  0  0  0  0  0  0  0  0  0  0  0
   16.9456  -59.1447   33.1896 Br  0  0  0  0  0  0  0  0  0  0  0  0
   18.1519  -58.0600   32.1823 C   0  0  0  0  0  0  0  0  0  0  0  0
   18.3755  -56.7535   32.4591 N   0  0  0  0  0  0  0  0  0  0  0  0
   19.2775  -56.3257   31.5452 C   0  0  0  0  0  0  0  0  0  0  0  0
   19.6220  -57.3685   30.6900 C   0  0  0  0  0  0  0  0  0  0  0  0
   18.8967  -58.4230   31.1264 N   0  0  0  0  0  0  0  0  0  0  0  0
   20.5117  -57.1881   29.6975 N   0  0  0  0  0  0  0  0  0  0  0  0
   21.0924  -55.9901   29.5091 C   0  0  0  0  0  0  0  0  0  0  0  0
   21.9345  -55.8106   28.5728 O   0  0  0  0  0  0  0  0  0  0  0  0
   20.7992  -54.9469   30.3063 N   0  0  0  0  0  0  0  0  0  0  0  0
   19.9011  -55.1238   31.3095 C   0  0  0  0  0  0  0  0  0  0  0  0
   19.6009  -54.1672   32.0825 O   0  0  0  0  0  0  0  0  0  0  0  0
   20.8736  -58.2657   28.8054 C   0  0  0  0  0  0  0  0  0  0  0  0
   21.2377  -54.0097   30.1782 H   0  0  0  0  0  0  0  0  0  0  0  0
   18.4780  -56.0213   34.8291 C   0  0  0  0  0  0  0  0  0  0  0  0
   17.9766  -55.1894   35.8653 N   0  0  0  0  0  0  0  0  0  0  0  0
   17.0062  -55.4719   36.7500 C   0  0  0  0  0  0  0  0  0  0  0  0
   16.8221  -54.3845   37.5783 C   0  0  0  0  0  0  0  0  0  0  0  0
   17.7142  -53.4691   37.1481 N   0  0  0  0  0  0  0  0  0  0  0  0
   18.4225  -53.9240   36.1210 C   0  0  0  0  0  0  0  0  0  0  0  0
   19.8139  -53.0052   35.1554 Br  0  0  0  0  0  0  0  0  0  0  0  0
   15.9102  -54.4267   38.5489 N   0  0  0  0  0  0  0  0  0  0  0  0
   15.1639  -55.5189   38.7319 C   0  0  0  0  0  0  0  0  0  0  0  0
   14.2820  -55.5882   39.6510 O   0  0  0  0  0  0  0  0  0  0  0  0
   15.2830  -56.6188   37.9674 N   0  0  0  0  0  0  0  0  0  0  0  0
   16.2013  -56.5738   36.9935 C   0  0  0  0  0  0  0  0  0  0  0  0
   16.3215  -57.5937   36.2789 O   0  0  0  0  0  0  0  0  0  0  0  0
   15.7059  -53.2949   39.4227 C   0  0  0  0  0  0  0  0  0  0  0  0
   14.6793  -57.4632   38.1387 H   0  0  0  0  0  0  0  0  0  0  0  0
  2  3  1  0  0  0
  3  4  1  0  0  0
  3  7  2  0  0  0
  4  5  1  0  0  0
  4  1  1  0  0  0
  5  6  2  0  0  0
  5 12  1  0  0  0
  6  7  1  0  0  0
  6  8  1  0  0  0
  8  9  1  0  0  0
  8 14  1  0  0  0
  9 10  2  0  0  0
  9 11  1  0  0  0
 11 12  1  0  0  0
 12 13  2  0  0  0
  1 16  1  0  0  0
 16 17  1  0  0  0
 17 18  1  0  0  0
 17 21  1  0  0  0
 18 19  2  0  0  0
 18 27  1  0  0  0
 19 20  1  0  0  0
 19 23  1  0  0  0
 20 21  2  0  0  0
 21 22  1  0  0  0
 23 24  1  0  0  0
 23 29  1  0  0  0
 24 25  2  0  0  0
 24 26  1  0  0  0
 26 27  1  0  0  0
 27 28  2  0  0  0
 11 15  1  0  0  0
 26 30  1  0  0  0
M  END
> <minimizedAffinity>
-9.01256

$$$$
716


 31 35  0  0  0  0  0  0  0  0999 V2000
   16.4894  -54.8771   37.9766 C   0  0  0  0  0  0  0  0  0  0  0  0
   17.3291  -55.3421   36.8084 C   0  0  0  0  0  0  0  0  0  0  0  0
   18.2384  -54.2303   36.3735 C   0  0  0  0  0  0  0  0  0  0  0  0
   19.2189  -54.0032   37.5325 C   0  0  0  0  0  0  0  0  0  0  0  0
   18.4319  -53.6417   38.7665 C   0  0  0  0  0  0  0  0  0  0  0  0
   17.4261  -54.6957   39.1514 C   0  0  0  0  0  0  0  0  0  0  0  0
   17.7449  -52.3348   38.5289 C   0  0  0  0  0  0  0  0  0  0  0  0
   16.7898  -52.4975   37.3675 C   0  0  0  0  0  0  0  0  0  0  0  0
   15.8114  -53.5683   37.7163 C   0  0  0  0  0  0  0  0  0  0  0  0
   17.5489  -52.9290   36.1320 C   0  0  0  0  0  0  0  0  0  0  0  0
   13.2137  -59.1550   37.4003 Br  0  0  0  0  0  0  0  0  0  0  0  0
   14.1108  -57.6032   38.0820 C   0  0  0  0  0  0  0  0  0  0  0  0
   15.0834  -56.8880   37.4881 N   0  0  0  0  0  0  0  0  0  0  0  0
   15.4631  -55.8787   38.2615 N   0  0  0  0  0  0  0  0  0  0  0  0
   14.7041  -55.9703   39.3688 C   0  0  0  0  0  0  0  0  0  0  0  0
   13.8709  -57.0177   39.2774 N   0  0  0  0  0  0  0  0  0  0  0  0
   19.0084  -54.5996   35.1665 C   0  0  0  0  0  0  0  0  0  0  0  0
   20.2622  -54.6296   35.2520 O   0  0  0  0  0  0  0  0  0  0  0  0
   18.3484  -54.9119   33.9431 N   0  0  0  0  0  0  0  0  0  0  0  0
   17.3125  -54.8638   33.9536 H   0  0  0  0  0  0  0  0  0  0  0  0
   19.0020  -55.2755   32.7362 C   0  0  0  0  0  0  0  0  0  0  0  0
   18.8188  -56.4621   32.0846 C   0  0  0  0  0  0  0  0  0  0  0  0
   19.6073  -56.4395   30.9839 N   0  0  0  0  0  0  0  0  0  0  0  0
   20.2535  -55.2937   30.9492 N   0  0  0  0  0  0  0  0  0  0  0  0
   19.9159  -54.5453   32.0045 C   0  0  0  0  0  0  0  0  0  0  0  0
   19.7561  -57.4749   29.9764 C   0  0  0  0  0  0  0  0  0  0  0  0
   17.9799  -57.6017   32.3969 C   0  0  0  0  0  0  0  0  0  0  0  0
   16.7909  -57.6654   31.9964 O   0  0  0  0  0  0  0  0  0  0  0  0
   18.4239  -58.7131   33.1635 N   0  0  0  0  0  0  0  0  0  0  0  0
   18.7009  -59.5943   32.6410 H   0  0  0  0  0  0  0  0  0  0  0  0
   18.4978  -58.7327   34.1986 H   0  0  0  0  0  0  0  0  0  0  0  0
 11 12  1  0  0  0
 12 13  2  0  0  0
 12 16  1  0  0  0
 13 14  1  0  0  0
 14 15  1  0  0  0
 14  1  1  0  0  0
 15 16  2  0  0  0
  1  2  1  0  0  0
  1  6  1  0  0  0
  1  9  1  0  0  0
  2  3  1  0  0  0
  3  4  1  0  0  0
  3 10  1  0  0  0
  3 17  1  0  0  0
  4  5  1  0  0  0
  5  6  1  0  0  0
  5  7  1  0  0  0
  7  8  1  0  0  0
  8  9  1  0  0  0
  8 10  1  0  0  0
 17 18  2  0  0  0
 17 19  1  0  0  0
 19 21  1  0  0  0
 21 22  2  0  0  0
 21 25  1  0  0  0
 22 23  1  0  0  0
 22 27  1  0  0  0
 23 24  1  0  0  0
 23 26  1  0  0  0
 24 25  2  0  0  0
 27 28  2  0  0  0
 27 29  1  0  0  0
 19 20  1  0  0  0
 29 30  1  0  0  0
 29 31  1  0  0  0
M  END
> <minimizedAffinity>
-9.59339

$$$$
723


 23 26  0  0  0  0  0  0  0  0999 V2000
   16.5514  -56.3181   34.7467 N   0  0  0  0  0  0  0  0  0  0  0  0
   16.9600  -56.2879   36.1160 C   0  0  0  0  0  0  0  0  0  0  0  0
   17.1754  -54.9188   36.6358 C   0  0  0  0  0  0  0  0  0  0  0  0
   17.1633  -53.8939   35.7294 O   0  0  0  0  0  0  0  0  0  0  0  0
   17.7381  -54.2379   34.5109 C   0  0  0  0  0  0  0  0  0  0  0  0
   16.9852  -55.3246   33.8132 C   0  0  0  0  0  0  0  0  0  0  0  0
   19.0270  -58.3402   34.2245 Br  0  0  0  0  0  0  0  0  0  0  0  0
   17.4022  -59.1225   33.6154 C   0  0  0  0  0  0  0  0  0  0  0  0
   17.2430  -60.3332   33.0357 N   0  0  0  0  0  0  0  0  0  0  0  0
   15.9809  -60.5739   32.7649 N   0  0  0  0  0  0  0  0  0  0  0  0
   15.2961  -59.4918   33.1772 C   0  0  0  0  0  0  0  0  0  0  0  0
   13.9899  -59.2068   33.1608 N   0  0  0  0  0  0  0  0  0  0  0  0
   13.5176  -58.0471   33.6522 C   0  0  0  0  0  0  0  0  0  0  0  0
   14.3530  -57.1335   34.1774 N   0  0  0  0  0  0  0  0  0  0  0  0
   15.7029  -57.3537   34.2286 C   0  0  0  0  0  0  0  0  0  0  0  0
   16.1631  -58.5386   33.7260 C   0  0  0  0  0  0  0  0  0  0  0  0
   15.4525  -61.7739   32.1435 C   0  0  0  0  0  0  0  0  0  0  0  0
   16.0766  -57.1143   36.9691 C   0  0  0  0  0  0  0  0  0  0  0  0
   14.9440  -56.7116   37.5468 N   0  0  0  0  0  0  0  0  0  0  0  0
   14.4604  -57.7855   38.2343 C   0  0  0  0  0  0  0  0  0  0  0  0
   15.3327  -58.7901   38.0360 N   0  0  0  0  0  0  0  0  0  0  0  0
   16.2949  -58.3609   37.2724 O   0  0  0  0  0  0  0  0  0  0  0  0
   13.2217  -57.8488   39.0434 C   0  0  0  0  0  0  0  0  0  0  0  0
  7  8  1  0  0  0
  8  9  2  0  0  0
  8 16  1  0  0  0
  9 10  1  0  0  0
 10 11  1  0  0  0
 10 17  1  0  0  0
 11 12  1  0  0  0
 11 16  2  0  0  0
 12 13  2  0  0  0
 13 14  1  0  0  0
 14 15  2  0  0  0
 15 16  1  0  0  0
 15  1  1  0  0  0
  1  2  1  0  0  0
  1  6  1  0  0  0
  2  3  1  0  0  0
  2 18  1  0  0  0
  3  4  1  0  0  0
  4  5  1  0  0  0
  5  6  1  0  0  0
 18 19  2  0  0  0
 18 22  1  0  0  0
 19 20  1  0  0  0
 20 21  2  0  0  0
 20 23  1  0  0  0
 21 22  1  0  0  0
M  END
> <minimizedAffinity>
-6.88870

$$$$
727


 21 24  0  0  0  0  0  0  0  0999 V2000
   19.7971  -54.5509   32.3656 Br  0  0  0  0  0  0  0  0  0  0  0  0
   19.6532  -53.5489   33.9778 C   0  0  0  0  0  0  0  0  0  0  0  0
   20.3416  -52.4081   34.2760 N   0  0  0  0  0  0  0  0  0  0  0  0
   19.9671  -51.9890   35.4612 N   0  0  0  0  0  0  0  0  0  0  0  0
   19.0434  -52.8207   35.9700 C   0  0  0  0  0  0  0  0  0  0  0  0
   18.3435  -52.8437   37.1156 N   0  0  0  0  0  0  0  0  0  0  0  0
   17.4556  -53.7989   37.3779 C   0  0  0  0  0  0  0  0  0  0  0  0
   17.2452  -54.7660   36.4899 N   0  0  0  0  0  0  0  0  0  0  0  0
   17.9068  -54.8383   35.2875 C   0  0  0  0  0  0  0  0  0  0  0  0
   18.8172  -53.8432   35.0337 C   0  0  0  0  0  0  0  0  0  0  0  0
   20.4364  -50.8032   36.1930 C   0  0  0  0  0  0  0  0  0  0  0  0
   17.6809  -55.8952   34.4058 N   0  0  0  0  0  0  0  0  0  0  0  0
   18.3908  -57.1484   34.5382 C   0  0  0  0  0  0  0  0  0  0  0  0
   17.3806  -58.1919   35.0594 C   0  0  0  0  0  0  0  0  0  0  0  0
   16.0627  -57.9494   34.4338 C   0  0  0  0  0  0  0  0  0  0  0  0
   14.9607  -58.7282   34.5334 N   0  0  0  0  0  0  0  0  0  0  0  0
   13.9835  -58.1499   33.8150 C   0  0  0  0  0  0  0  0  0  0  0  0
   14.4261  -57.0244   33.2577 N   0  0  0  0  0  0  0  0  0  0  0  0
   15.7160  -56.8977   33.6397 C   0  0  0  0  0  0  0  0  0  0  0  0
   16.7195  -55.8492   33.3339 C   0  0  0  0  0  0  0  0  0  0  0  0
   14.8028  -59.9610   35.2616 C   0  0  0  0  0  0  0  0  0  0  0  0
  1  2  1  0  0  0
  2  3  2  0  0  0
  2 10  1  0  0  0
  3  4  1  0  0  0
  4  5  1  0  0  0
  4 11  1  0  0  0
  5  6  1  0  0  0
  5 10  2  0  0  0
  6  7  2  0  0  0
  7  8  1  0  0  0
  8  9  2  0  0  0
  9 10  1  0  0  0
  9 12  1  0  0  0
 12 13  1  0  0  0
 12 20  1  0  0  0
 13 14  1  0  0  0
 14 15  1  0  0  0
 15 16  1  0  0  0
 15 19  2  0  0  0
 16 17  1  0  0  0
 16 21  1  0  0  0
 17 18  2  0  0  0
 18 19  1  0  0  0
 19 20  1  0  0  0
M  END
> <minimizedAffinity>
-8.06817

$$$$
729


 27 30  0  0  0  0  0  0  0  0999 V2000
   15.4960  -57.7595   35.1409 N   0  0  0  0  0  0  0  0  0  0  0  0
   16.8081  -58.3302   35.0261 C   0  0  0  0  0  0  0  0  0  0  0  0
   17.7457  -57.1349   34.8350 C   0  0  0  0  0  0  0  0  0  0  0  0
   17.0042  -55.9588   34.3659 N   0  0  0  0  0  0  0  0  0  0  0  0
   16.0538  -56.3629   33.3266 C   0  0  0  0  0  0  0  0  0  0  0  0
   14.9402  -57.1951   33.9351 C   0  0  0  0  0  0  0  0  0  0  0  0
   13.7992  -60.3200   34.2540 Br  0  0  0  0  0  0  0  0  0  0  0  0
   13.3303  -59.7758   36.0087 C   0  0  0  0  0  0  0  0  0  0  0  0
   12.4294  -60.3257   36.8426 N   0  0  0  0  0  0  0  0  0  0  0  0
   12.3533  -59.6750   37.9723 N   0  0  0  0  0  0  0  0  0  0  0  0
   13.2272  -58.6523   37.9080 C   0  0  0  0  0  0  0  0  0  0  0  0
   13.5574  -57.6704   38.7644 N   0  0  0  0  0  0  0  0  0  0  0  0
   14.4682  -56.7385   38.4701 C   0  0  0  0  0  0  0  0  0  0  0  0
   15.0760  -56.7775   37.2904 N   0  0  0  0  0  0  0  0  0  0  0  0
   14.8122  -57.7265   36.3612 C   0  0  0  0  0  0  0  0  0  0  0  0
   13.8630  -58.6938   36.6707 C   0  0  0  0  0  0  0  0  0  0  0  0
   11.5165  -59.9277   39.1368 C   0  0  0  0  0  0  0  0  0  0  0  0
   17.9849  -55.0684   33.7649 C   0  0  0  0  0  0  0  0  0  0  0  0
   18.9191  -55.9535   32.8952 C   0  0  0  0  0  0  0  0  0  0  0  0
   18.8010  -54.4008   34.7944 C   0  0  0  0  0  0  0  0  0  0  0  0
   20.0562  -54.2937   34.4691 O   0  0  0  0  0  0  0  0  0  0  0  0
   18.4006  -53.8909   36.0397 N   0  0  0  0  0  0  0  0  0  0  0  0
   17.1008  -53.9165   36.6395 C   0  0  0  0  0  0  0  0  0  0  0  0
   16.6745  -52.6032   37.2618 C   0  0  0  0  0  0  0  0  0  0  0  0
   17.7819  -51.8279   37.8877 C   0  0  0  0  0  0  0  0  0  0  0  0
   19.0291  -51.8087   37.0297 C   0  0  0  0  0  0  0  0  0  0  0  0
   19.4476  -53.2466   36.8651 C   0  0  0  0  0  0  0  0  0  0  0  0
  7  8  1  0  0  0
  8  9  2  0  0  0
  8 16  1  0  0  0
  9 10  1  0  0  0
 10 11  1  0  0  0
 10 17  1  0  0  0
 11 12  1  0  0  0
 11 16  2  0  0  0
 12 13  2  0  0  0
 13 14  1  0  0  0
 14 15  2  0  0  0
 15 16  1  0  0  0
 15  1  1  0  0  0
  1  2  1  0  0  0
  1  6  1  0  0  0
  2  3  1  0  0  0
  3  4  1  0  0  0
  4  5  1  0  0  0
  4 18  1  0  0  0
  5  6  1  0  0  0
 18 19  1  0  0  0
 18 20  1  0  0  0
 20 21  2  0  0  0
 20 22  1  0  0  0
 22 23  1  0  0  0
 22 27  1  0  0  0
 23 24  1  0  0  0
 24 25  1  0  0  0
 25 26  1  0  0  0
 26 27  1  0  0  0
M  END
> <minimizedAffinity>
-9.19502

$$$$
737


 21 24  0  0  0  0  0  0  0  0999 V2000
   13.9876  -58.0483   37.3831 C   0  0  0  0  0  0  0  0  0  0  0  0
   13.4969  -58.7248   38.3966 C   0  0  0  0  0  0  0  0  0  0  0  0
   12.5217  -59.8091   38.2039 C   0  0  0  0  0  0  0  0  0  0  0  0
   12.0198  -60.4975   39.2137 C   0  0  0  0  0  0  0  0  0  0  0  0
   12.1572  -60.0648   36.8560 N   0  0  0  0  0  0  0  0  0  0  0  0
   12.7041  -59.3156   35.7625 C   0  0  0  0  0  0  0  0  0  0  0  0
   13.5990  -58.3340   36.0543 N   0  0  0  0  0  0  0  0  0  0  0  0
   13.9463  -57.8014   34.8771 N   0  0  0  0  0  0  0  0  0  0  0  0
   13.3077  -58.4075   33.8656 C   0  0  0  0  0  0  0  0  0  0  0  0
   12.5353  -59.3508   34.4292 N   0  0  0  0  0  0  0  0  0  0  0  0
   11.4695  -60.8214   36.6529 H   0  0  0  0  0  0  0  0  0  0  0  0
   17.2149  -51.9743   38.1588 Br  0  0  0  0  0  0  0  0  0  0  0  0
   17.2386  -53.7074   37.3391 C   0  0  0  0  0  0  0  0  0  0  0  0
   16.5591  -54.8027   37.6977 N   0  0  0  0  0  0  0  0  0  0  0  0
   16.8547  -55.8016   36.8679 C   0  0  0  0  0  0  0  0  0  0  0  0
   17.7452  -55.3177   35.9627 N   0  0  0  0  0  0  0  0  0  0  0  0
   17.9981  -54.0245   36.2319 C   0  0  0  0  0  0  0  0  0  0  0  0
   16.2319  -57.1471   37.0433 C   0  0  0  0  0  0  0  0  0  0  0  0
   14.9188  -57.0200   37.6254 N   0  0  0  0  0  0  0  0  0  0  0  0
   14.5035  -55.9041   38.4427 C   0  0  0  0  0  0  0  0  0  0  0  0
   15.6293  -54.9772   38.7955 C   0  0  0  0  0  0  0  0  0  0  0  0
 12 13  1  0  0  0
 13 14  1  0  0  0
 13 17  2  0  0  0
 14 15  1  0  0  0
 14 21  1  0  0  0
 15 16  2  0  0  0
 15 18  1  0  0  0
 16 17  1  0  0  0
 18 19  1  0  0  0
 19 20  1  0  0  0
 19  1  1  0  0  0
 20 21  1  0  0  0
  1  2  2  0  0  0
  1  7  1  0  0  0
  2  3  1  0  0  0
  3  4  2  0  0  0
  3  5  1  0  0  0
  5  6  1  0  0  0
  6  7  1  0  0  0
  6 10  2  0  0  0
  7  8  1  0  0  0
  8  9  2  0  0  0
  9 10  1  0  0  0
  5 11  1  0  0  0
M  END
> <minimizedAffinity>
-7.96230

$$$$
743


 30 33  0  0  0  0  0  0  0  0999 V2000
   14.4106  -57.7960   36.9242 C   0  0  0  0  0  0  0  0  0  0  0  0
   13.2304  -57.3453   37.1046 O   0  0  0  0  0  0  0  0  0  0  0  0
   14.8928  -58.0388   35.6098 N   0  0  0  0  0  0  0  0  0  0  0  0
   14.0436  -57.7735   34.4815 C   0  0  0  0  0  0  0  0  0  0  0  0
   14.7774  -57.3109   33.2601 C   0  0  0  0  0  0  0  0  0  0  0  0
   16.2137  -57.7434   33.2225 C   0  0  0  0  0  0  0  0  0  0  0  0
   16.6640  -57.8945   31.8722 N   0  0  0  0  0  0  0  0  0  0  0  0
   18.0080  -58.3458   31.7457 C   0  0  0  0  0  0  0  0  0  0  0  0
   18.9922  -57.6913   32.6578 C   0  0  0  0  0  0  0  0  0  0  0  0
   18.3765  -56.6749   33.5487 C   0  0  0  0  0  0  0  0  0  0  0  0
   18.9001  -55.6393   34.2063 N   0  0  0  0  0  0  0  0  0  0  0  0
   17.9312  -55.0100   34.8855 C   0  0  0  0  0  0  0  0  0  0  0  0
   16.7699  -55.6416   34.6677 N   0  0  0  0  0  0  0  0  0  0  0  0
   17.0359  -56.6658   33.8472 C   0  0  0  0  0  0  0  0  0  0  0  0
   16.4043  -58.9999   34.0569 C   0  0  0  0  0  0  0  0  0  0  0  0
   16.2536  -58.5544   35.4964 C   0  0  0  0  0  0  0  0  0  0  0  0
   16.0344  -58.5766   31.3952 H   0  0  0  0  0  0  0  0  0  0  0  0
   15.8124  -55.3813   35.0694 H   0  0  0  0  0  0  0  0  0  0  0  0
   15.2136  -58.0411   38.1327 C   0  0  0  0  0  0  0  0  0  0  0  0
   15.2812  -56.8555   39.0452 C   0  0  0  0  0  0  0  0  0  0  0  0
   15.9029  -54.4392   38.8922 C   0  0  0  0  0  0  0  0  0  0  0  0
   14.9350  -54.1669   39.6624 O   0  0  0  0  0  0  0  0  0  0  0  0
   16.1137  -55.8029   38.5523 N   0  0  0  0  0  0  0  0  0  0  0  0
   16.9058  -56.0293   37.9212 H   0  0  0  0  0  0  0  0  0  0  0  0
   19.8607  -51.9180   36.3206 Br  0  0  0  0  0  0  0  0  0  0  0  0
   18.3077  -52.3106   37.3869 C   0  0  0  0  0  0  0  0  0  0  0  0
   17.7730  -53.4638   37.6557 O   0  0  0  0  0  0  0  0  0  0  0  0
   16.7288  -53.3615   38.4089 C   0  0  0  0  0  0  0  0  0  0  0  0
   16.5281  -52.0037   38.6850 C   0  0  0  0  0  0  0  0  0  0  0  0
   17.5477  -51.3545   38.0215 C   0  0  0  0  0  0  0  0  0  0  0  0
 25 26  1  0  0  0
 26 27  1  0  0  0
 26 30  2  0  0  0
 27 28  1  0  0  0
 28 29  2  0  0  0
 28 21  1  0  0  0
 29 30  1  0  0  0
 21 22  2  0  0  0
 21 23  1  0  0  0
 23 20  1  0  0  0
 20 19  1  0  0  0
 19  1  1  0  0  0
  1  2  2  0  0  0
  1  3  1  0  0  0
  3  4  1  0  0  0
  3 16  1  0  0  0
  4  5  1  0  0  0
  5  6  1  0  0  0
  6  7  1  0  0  0
  6 14  1  0  0  0
  6 15  1  0  0  0
  7  8  1  0  0  0
  8  9  1  0  0  0
  9 10  1  0  0  0
 10 11  1  0  0  0
 10 14  2  0  0  0
 11 12  2  0  0  0
 12 13  1  0  0  0
 13 14  1  0  0  0
 15 16  1  0  0  0
 23 24  1  0  0  0
  7 17  1  0  0  0
 13 18  1  0  0  0
M  END
> <minimizedAffinity>
-9.06668

$$$$
746


 30 33  0  0  0  0  0  0  0  0999 V2000
   15.7795  -58.0389   36.1467 C   0  0  0  0  0  0  0  0  0  0  0  0
   16.3576  -58.3333   37.2507 O   0  0  0  0  0  0  0  0  0  0  0  0
   16.5769  -58.0255   34.9967 N   0  0  0  0  0  0  0  0  0  0  0  0
   16.0549  -57.7146   33.6817 C   0  0  0  0  0  0  0  0  0  0  0  0
   16.7500  -56.4828   33.1899 C   0  0  0  0  0  0  0  0  0  0  0  0
   18.2387  -56.6041   33.2696 C   0  0  0  0  0  0  0  0  0  0  0  0
   18.7897  -56.3771   31.9450 N   0  0  0  0  0  0  0  0  0  0  0  0
   18.5156  -55.0001   31.5777 C   0  0  0  0  0  0  0  0  0  0  0  0
   19.5975  -54.1547   32.2594 C   0  0  0  0  0  0  0  0  0  0  0  0
   19.4871  -54.4534   33.7074 C   0  0  0  0  0  0  0  0  0  0  0  0
   19.9341  -53.7481   34.7643 N   0  0  0  0  0  0  0  0  0  0  0  0
   19.5911  -54.4269   35.8702 C   0  0  0  0  0  0  0  0  0  0  0  0
   18.9384  -55.5407   35.4919 N   0  0  0  0  0  0  0  0  0  0  0  0
   18.8554  -55.5887   34.1520 C   0  0  0  0  0  0  0  0  0  0  0  0
   18.6169  -58.0151   33.7199 C   0  0  0  0  0  0  0  0  0  0  0  0
   17.9951  -58.3320   35.0406 C   0  0  0  0  0  0  0  0  0  0  0  0
   18.3011  -56.9740   31.2208 H   0  0  0  0  0  0  0  0  0  0  0  0
   20.4565  -52.8360   34.7820 H   0  0  0  0  0  0  0  0  0  0  0  0
   14.3375  -57.7518   36.2333 C   0  0  0  0  0  0  0  0  0  0  0  0
   13.9079  -57.0082   37.4455 C   0  0  0  0  0  0  0  0  0  0  0  0
   12.7547  -59.2447   34.9738 C   0  0  0  0  0  0  0  0  0  0  0  0
   12.7414  -58.4493   34.0122 O   0  0  0  0  0  0  0  0  0  0  0  0
   13.5316  -58.9495   36.1084 N   0  0  0  0  0  0  0  0  0  0  0  0
   13.5354  -59.6193   36.9047 H   0  0  0  0  0  0  0  0  0  0  0  0
    9.5669  -62.9861   32.8618 Br  0  0  0  0  0  0  0  0  0  0  0  0
   10.6742  -62.0072   34.0955 C   0  0  0  0  0  0  0  0  0  0  0  0
   11.2804  -60.8760   33.8433 O   0  0  0  0  0  0  0  0  0  0  0  0
   11.9666  -60.4654   34.9106 C   0  0  0  0  0  0  0  0  0  0  0  0
   11.7707  -61.4103   35.8932 C   0  0  0  0  0  0  0  0  0  0  0  0
   10.9553  -62.3950   35.3959 C   0  0  0  0  0  0  0  0  0  0  0  0
 25 26  1  0  0  0
 26 27  1  0  0  0
 26 30  2  0  0  0
 27 28  1  0  0  0
 28 29  2  0  0  0
 28 21  1  0  0  0
 29 30  1  0  0  0
 21 22  2  0  0  0
 21 23  1  0  0  0
 23 19  1  0  0  0
 19 20  1  0  0  0
 19  1  1  0  0  0
  1  2  2  0  0  0
  1  3  1  0  0  0
  3  4  1  0  0  0
  3 16  1  0  0  0
  4  5  1  0  0  0
  5  6  1  0  0  0
  6  7  1  0  0  0
  6 14  1  0  0  0
  6 15  1  0  0  0
  7  8  1  0  0  0
  8  9  1  0  0  0
  9 10  1  0  0  0
 10 11  1  0  0  0
 10 14  2  0  0  0
 11 12  1  0  0  0
 12 13  2  0  0  0
 13 14  1  0  0  0
 15 16  1  0  0  0
 23 24  1  0  0  0
  7 17  1  0  0  0
 11 18  1  0  0  0
M  END
> <minimizedAffinity>
-8.51768

$$$$
754


 27 30  0  0  0  0  0  0  0  0999 V2000
   15.6052  -58.1330   37.1675 C   0  0  0  0  0  0  0  0  0  0  0  0
   16.2158  -59.0805   37.6826 O   0  0  0  0  0  0  0  0  0  0  0  0
   15.1687  -58.2237   35.8230 N   0  0  0  0  0  0  0  0  0  0  0  0
   15.4364  -59.4246   35.0582 C   0  0  0  0  0  0  0  0  0  0  0  0
   16.2785  -59.1471   33.8368 C   0  0  0  0  0  0  0  0  0  0  0  0
   15.9713  -57.7673   33.4250 N   0  0  0  0  0  0  0  0  0  0  0  0
   14.6248  -57.3448   33.6064 C   0  0  0  0  0  0  0  0  0  0  0  0
   14.4505  -57.1734   35.1269 C   0  0  0  0  0  0  0  0  0  0  0  0
   17.0405  -57.0066   32.8931 C   0  0  0  0  0  0  0  0  0  0  0  0
   17.8285  -56.2315   33.6890 N   0  0  0  0  0  0  0  0  0  0  0  0
   18.8436  -55.5039   33.1979 C   0  0  0  0  0  0  0  0  0  0  0  0
   19.1130  -55.5232   31.8746 N   0  0  0  0  0  0  0  0  0  0  0  0
   18.3894  -56.2589   31.0128 C   0  0  0  0  0  0  0  0  0  0  0  0
   17.3360  -57.0060   31.5605 C   0  0  0  0  0  0  0  0  0  0  0  0
   18.6686  -56.2955   29.5517 C   0  0  0  0  0  0  0  0  0  0  0  0
   19.6354  -54.7137   34.0686 N   0  0  0  0  0  0  0  0  0  0  0  0
   20.4617  -53.6216   33.6146 C   0  0  0  0  0  0  0  0  0  0  0  0
   20.1497  -52.3809   34.3966 C   0  0  0  0  0  0  0  0  0  0  0  0
   19.3353  -52.6226   35.5014 O   0  0  0  0  0  0  0  0  0  0  0  0
   19.8113  -53.7045   36.2368 C   0  0  0  0  0  0  0  0  0  0  0  0
   19.6270  -55.0011   35.4868 C   0  0  0  0  0  0  0  0  0  0  0  0
   16.0462  -53.1324   39.1272 Br  0  0  0  0  0  0  0  0  0  0  0  0
   15.4856  -54.9527   38.7924 C   0  0  0  0  0  0  0  0  0  0  0  0
   15.9648  -55.7867   37.9420 O   0  0  0  0  0  0  0  0  0  0  0  0
   15.3501  -56.9302   37.9801 C   0  0  0  0  0  0  0  0  0  0  0  0
   14.3769  -56.8342   38.9482 C   0  0  0  0  0  0  0  0  0  0  0  0
   14.4616  -55.5684   39.4692 C   0  0  0  0  0  0  0  0  0  0  0  0
 22 23  1  0  0  0
 23 24  1  0  0  0
 23 27  2  0  0  0
 24 25  1  0  0  0
 25 26  2  0  0  0
 25  1  1  0  0  0
 26 27  1  0  0  0
  1  2  2  0  0  0
  1  3  1  0  0  0
  3  4  1  0  0  0
  3  8  1  0  0  0
  4  5  1  0  0  0
  5  6  1  0  0  0
  6  7  1  0  0  0
  6  9  1  0  0  0
  7  8  1  0  0  0
  9 10  2  0  0  0
  9 14  1  0  0  0
 10 11  1  0  0  0
 11 12  2  0  0  0
 11 16  1  0  0  0
 12 13  1  0  0  0
 13 14  2  0  0  0
 13 15  1  0  0  0
 16 17  1  0  0  0
 16 21  1  0  0  0
 17 18  1  0  0  0
 18 19  1  0  0  0
 19 20  1  0  0  0
 20 21  1  0  0  0
M  END
> <minimizedAffinity>
-8.36165

$$$$
755


 28 31  0  0  0  0  0  0  0  0999 V2000
   19.5373  -53.9589   34.8905 C   0  0  0  0  0  0  0  0  0  0  0  0
   20.7661  -53.9663   34.7240 O   0  0  0  0  0  0  0  0  0  0  0  0
   18.6823  -54.7281   34.0578 N   0  0  0  0  0  0  0  0  0  0  0  0
   17.2360  -54.7132   34.2606 C   0  0  0  0  0  0  0  0  0  0  0  0
   16.5625  -55.6713   33.2803 C   0  0  0  0  0  0  0  0  0  0  0  0
   17.2594  -56.9393   33.3716 N   0  0  0  0  0  0  0  0  0  0  0  0
   18.6742  -56.9679   33.1187 C   0  0  0  0  0  0  0  0  0  0  0  0
   19.1856  -55.5568   32.9807 C   0  0  0  0  0  0  0  0  0  0  0  0
   16.5679  -58.1496   33.7055 C   0  0  0  0  0  0  0  0  0  0  0  0
   16.9191  -59.3297   33.1758 N   0  0  0  0  0  0  0  0  0  0  0  0
   16.2541  -60.4428   33.5053 C   0  0  0  0  0  0  0  0  0  0  0  0
   15.2199  -60.4222   34.3687 N   0  0  0  0  0  0  0  0  0  0  0  0
   14.8165  -59.2713   34.9358 C   0  0  0  0  0  0  0  0  0  0  0  0
   15.5149  -58.1356   34.5837 C   0  0  0  0  0  0  0  0  0  0  0  0
   16.6515  -61.7448   32.9140 C   0  0  0  0  0  0  0  0  0  0  0  0
   13.7359  -59.1980   35.8488 N   0  0  0  0  0  0  0  0  0  0  0  0
   13.9729  -58.8645   37.2383 C   0  0  0  0  0  0  0  0  0  0  0  0
   12.6272  -58.5631   37.8643 C   0  0  0  0  0  0  0  0  0  0  0  0
   11.8065  -59.7412   37.7862 N   0  0  0  0  0  0  0  0  0  0  0  0
   11.7790  -60.3749   36.5055 C   0  0  0  0  0  0  0  0  0  0  0  0
   12.3606  -59.4462   35.4611 C   0  0  0  0  0  0  0  0  0  0  0  0
   12.1052  -60.6239   38.8851 C   0  0  0  0  0  0  0  0  0  0  0  0
   16.3624  -52.6482   39.0143 Br  0  0  0  0  0  0  0  0  0  0  0  0
   17.6923  -52.5440   37.6462 C   0  0  0  0  0  0  0  0  0  0  0  0
   17.9960  -53.4935   36.7979 O   0  0  0  0  0  0  0  0  0  0  0  0
   18.9488  -53.1369   35.9729 C   0  0  0  0  0  0  0  0  0  0  0  0
   19.2916  -51.8502   36.3124 C   0  0  0  0  0  0  0  0  0  0  0  0
   18.5046  -51.4658   37.3674 C   0  0  0  0  0  0  0  0  0  0  0  0
 23 24  1  0  0  0
 24 25  1  0  0  0
 24 28  2  0  0  0
 25 26  1  0  0  0
 26 27  2  0  0  0
 26  1  1  0  0  0
 27 28  1  0  0  0
  1  2  2  0  0  0
  1  3  1  0  0  0
  3  4  1  0  0  0
  3  8  1  0  0  0
  4  5  1  0  0  0
  5  6  1  0  0  0
  6  7  1  0  0  0
  6  9  1  0  0  0
  7  8  1  0  0  0
  9 10  2  0  0  0
  9 14  1  0  0  0
 10 11  1  0  0  0
 11 12  2  0  0  0
 11 15  1  0  0  0
 12 13  1  0  0  0
 13 14  2  0  0  0
 13 16  1  0  0  0
 16 17  1  0  0  0
 16 21  1  0  0  0
 17 18  1  0  0  0
 18 19  1  0  0  0
 19 20  1  0  0  0
 19 22  1  0  0  0
 20 21  1  0  0  0
M  END
> <minimizedAffinity>
-9.11434

$$$$
767


 32 35  0  0  0  0  0  0  0  0999 V2000
   12.9734  -58.8177   36.5881 C   0  0  0  0  0  0  0  0  0  0  0  0
   13.9526  -58.3520   34.3492 C   0  0  0  0  0  0  0  0  0  0  0  0
   12.7698  -58.2530   33.8761 O   0  0  0  0  0  0  0  0  0  0  0  0
   14.0986  -58.6406   35.7346 N   0  0  0  0  0  0  0  0  0  0  0  0
   15.0556  -58.7219   36.1258 H   0  0  0  0  0  0  0  0  0  0  0  0
   16.9140  -57.4283   32.4486 C   0  0  0  0  0  0  0  0  0  0  0  0
   16.4974  -58.5925   31.9016 N   0  0  0  0  0  0  0  0  0  0  0  0
   15.4299  -59.0078   32.5215 O   0  0  0  0  0  0  0  0  0  0  0  0
   15.1024  -58.1699   33.4719 C   0  0  0  0  0  0  0  0  0  0  0  0
   16.0192  -57.1962   33.4247 N   0  0  0  0  0  0  0  0  0  0  0  0
   21.3410  -55.8542   29.8637 Br  0  0  0  0  0  0  0  0  0  0  0  0
   19.8556  -55.9554   31.0392 C   0  0  0  0  0  0  0  0  0  0  0  0
   18.9502  -56.8811   31.1320 O   0  0  0  0  0  0  0  0  0  0  0  0
   18.0659  -56.6228   32.0617 C   0  0  0  0  0  0  0  0  0  0  0  0
   18.4316  -55.4145   32.6262 C   0  0  0  0  0  0  0  0  0  0  0  0
   19.5772  -54.9672   31.9855 C   0  0  0  0  0  0  0  0  0  0  0  0
   13.1960  -58.2668   37.9805 C   0  0  0  0  0  0  0  0  0  0  0  0
   13.7173  -56.9080   37.9347 N   0  0  0  0  0  0  0  0  0  0  0  0
   15.1047  -56.7059   38.0313 C   0  0  0  0  0  0  0  0  0  0  0  0
   15.8062  -57.7728   38.1540 O   0  0  0  0  0  0  0  0  0  0  0  0
   13.0918  -56.0888   37.8295 H   0  0  0  0  0  0  0  0  0  0  0  0
   15.8230  -55.4573   38.0082 C   0  0  0  0  0  0  0  0  0  0  0  0
   16.8491  -55.2957   37.0782 C   0  0  0  0  0  0  0  0  0  0  0  0
   17.5429  -54.1129   37.0280 C   0  0  0  0  0  0  0  0  0  0  0  0
   17.2346  -53.0995   37.8816 C   0  0  0  0  0  0  0  0  0  0  0  0
   17.9441  -51.8972   37.8264 C   0  0  0  0  0  0  0  0  0  0  0  0
   18.9604  -51.6990   36.9237 C   0  0  0  0  0  0  0  0  0  0  0  0
   19.2670  -52.7248   36.0665 C   0  0  0  0  0  0  0  0  0  0  0  0
   18.5773  -53.9160   36.1081 C   0  0  0  0  0  0  0  0  0  0  0  0
   16.2712  -53.2807   38.7382 O   0  0  0  0  0  0  0  0  0  0  0  0
   15.5605  -54.3981   38.8403 C   0  0  0  0  0  0  0  0  0  0  0  0
   14.6595  -54.4425   39.7105 O   0  0  0  0  0  0  0  0  0  0  0  0
 11 12  1  0  0  0
 12 13  1  0  0  0
 12 16  2  0  0  0
 13 14  1  0  0  0
 14 15  2  0  0  0
 14  6  1  0  0  0
 15 16  1  0  0  0
  6  7  2  0  0  0
  6 10  1  0  0  0
  7  8  1  0  0  0
  8  9  1  0  0  0
  9 10  2  0  0  0
  9  2  1  0  0  0
  2  3  2  0  0  0
  2  4  1  0  0  0
  4  1  1  0  0  0
  1 17  1  0  0  0
 17 18  1  0  0  0
 18 19  1  0  0  0
 19 20  2  0  0  0
 19 22  1  0  0  0
 22 23  2  0  0  0
 22 31  1  0  0  0
 23 24  1  0  0  0
 24 25  2  0  0  0
 24 29  1  0  0  0
 25 26  1  0  0  0
 25 30  1  0  0  0
 26 27  2  0  0  0
 27 28  1  0  0  0
 28 29  2  0  0  0
 30 31  1  0  0  0
 31 32  2  0  0  0
  4  5  1  0  0  0
 18 21  1  0  0  0
M  END
> <minimizedAffinity>
-10.45001

$$$$
769


 26 29  0  0  0  0  0  0  0  0999 V2000
   13.7275  -58.5855   34.4216 C   0  0  0  0  0  0  0  0  0  0  0  0
   13.0641  -58.1063   33.3862 O   0  0  0  0  0  0  0  0  0  0  0  0
   15.0868  -58.3107   34.4396 N   0  0  0  0  0  0  0  0  0  0  0  0
   15.6732  -57.5216   33.3264 C   0  0  0  0  0  0  0  0  0  0  0  0
   16.3771  -56.3174   33.9053 C   0  0  0  0  0  0  0  0  0  0  0  0
   17.3613  -56.7381   34.8221 N   0  0  0  0  0  0  0  0  0  0  0  0
   17.3979  -58.1535   34.9638 C   0  0  0  0  0  0  0  0  0  0  0  0
   16.0243  -58.7001   35.4219 C   0  0  0  0  0  0  0  0  0  0  0  0
   11.8125  -59.5284   39.3375 Br  0  0  0  0  0  0  0  0  0  0  0  0
   11.9410  -59.8156   37.4799 C   0  0  0  0  0  0  0  0  0  0  0  0
   12.8069  -59.0639   36.6799 C   0  0  0  0  0  0  0  0  0  0  0  0
   12.8645  -59.3101   35.3348 C   0  0  0  0  0  0  0  0  0  0  0  0
   12.0338  -60.3199   34.8400 C   0  0  0  0  0  0  0  0  0  0  0  0
   11.2480  -60.9897   35.6212 O   0  0  0  0  0  0  0  0  0  0  0  0
   11.1687  -60.7853   36.8888 C   0  0  0  0  0  0  0  0  0  0  0  0
   10.3730  -61.4883   37.5643 O   0  0  0  0  0  0  0  0  0  0  0  0
   18.6619  -56.1710   34.6589 C   0  0  0  0  0  0  0  0  0  0  0  0
   18.8398  -54.8153   35.2094 C   0  0  0  0  0  0  0  0  0  0  0  0
   19.6442  -53.8618   34.6765 C   0  0  0  0  0  0  0  0  0  0  0  0
   19.7473  -52.6257   35.2647 C   0  0  0  0  0  0  0  0  0  0  0  0
   19.0323  -52.3550   36.3998 C   0  0  0  0  0  0  0  0  0  0  0  0
   18.2094  -53.3067   36.9589 C   0  0  0  0  0  0  0  0  0  0  0  0
   18.1260  -54.5197   36.3564 C   0  0  0  0  0  0  0  0  0  0  0  0
   19.2915  -51.0590   36.8123 O   0  0  0  0  0  0  0  0  0  0  0  0
   20.4646  -50.6521   36.1223 C   0  0  0  0  0  0  0  0  0  0  0  0
   20.4729  -51.4627   34.9627 O   0  0  0  0  0  0  0  0  0  0  0  0
  9 10  1  0  0  0
 10 11  2  0  0  0
 10 15  1  0  0  0
 11 12  1  0  0  0
 12 13  2  0  0  0
 12  1  1  0  0  0
 13 14  1  0  0  0
 14 15  1  0  0  0
 15 16  2  0  0  0
  1  2  2  0  0  0
  1  3  1  0  0  0
  3  4  1  0  0  0
  3  8  1  0  0  0
  4  5  1  0  0  0
  5  6  1  0  0  0
  6  7  1  0  0  0
  6 17  1  0  0  0
  7  8  1  0  0  0
 17 18  1  0  0  0
 18 19  2  0  0  0
 18 23  1  0  0  0
 19 20  1  0  0  0
 20 21  2  0  0  0
 20 26  1  0  0  0
 21 22  1  0  0  0
 21 24  1  0  0  0
 22 23  2  0  0  0
 24 25  1  0  0  0
 25 26  1  0  0  0
M  END
> <minimizedAffinity>
-9.36857

$$$$
776


 38 41  0  0  0  0  0  0  0  0999 V2000
   17.3208  -57.3099   30.6301 C   0  0  0  0  0  0  0  0  0  0  0  0
   18.6808  -56.6379   30.4013 C   0  0  0  0  0  0  0  0  0  0  0  0
   19.4496  -56.6437   31.6778 C   0  0  0  0  0  0  0  0  0  0  0  0
   18.6989  -55.8167   32.6972 C   0  0  0  0  0  0  0  0  0  0  0  0
   17.3675  -55.6449   32.3677 O   0  0  0  0  0  0  0  0  0  0  0  0
   16.7524  -56.8035   31.9138 C   0  0  0  0  0  0  0  0  0  0  0  0
   18.9193  -56.4324   34.0308 C   0  0  0  0  0  0  0  0  0  0  0  0
   18.1932  -55.5800   35.0831 C   0  0  0  0  0  0  0  0  0  0  0  0
   18.8551  -54.3192   35.1506 N   0  0  0  0  0  0  0  0  0  0  0  0
   19.8797  -54.0953   34.0760 C   0  0  0  0  0  0  0  0  0  0  0  0
   19.3370  -54.4442   32.7296 C   0  0  0  0  0  0  0  0  0  0  0  0
   18.6352  -53.3252   36.0841 C   0  0  0  0  0  0  0  0  0  0  0  0
   19.3888  -52.2534   35.9525 O   0  0  0  0  0  0  0  0  0  0  0  0
   18.4100  -55.3075   30.0718 O   0  0  0  0  0  0  0  0  0  0  0  0
   19.4042  -57.2567   29.2492 C   0  0  0  0  0  0  0  0  0  0  0  0
   17.4767  -55.1675   29.7721 H   0  0  0  0  0  0  0  0  0  0  0  0
   17.5831  -61.5255   27.4865 Br  0  0  0  0  0  0  0  0  0  0  0  0
   17.5013  -60.7445   29.2199 C   0  0  0  0  0  0  0  0  0  0  0  0
   17.4432  -59.3773   29.3173 C   0  0  0  0  0  0  0  0  0  0  0  0
   17.3829  -58.7298   30.4948 N   0  0  0  0  0  0  0  0  0  0  0  0
   17.3834  -59.5383   31.5974 C   0  0  0  0  0  0  0  0  0  0  0  0
   17.3287  -59.0037   32.7431 O   0  0  0  0  0  0  0  0  0  0  0  0
   17.4394  -60.8594   31.5385 N   0  0  0  0  0  0  0  0  0  0  0  0
   17.4993  -61.5063   30.3622 C   0  0  0  0  0  0  0  0  0  0  0  0
   17.5520  -62.7568   30.2638 O   0  0  0  0  0  0  0  0  0  0  0  0
   17.4382  -61.4502   32.3961 H   0  0  0  0  0  0  0  0  0  0  0  0
   17.7270  -53.2560   37.1734 C   0  0  0  0  0  0  0  0  0  0  0  0
   17.0984  -54.4227   37.6448 C   0  0  0  0  0  0  0  0  0  0  0  0
   16.2278  -54.4890   38.6856 C   0  0  0  0  0  0  0  0  0  0  0  0
   15.9400  -53.2746   39.3423 C   0  0  0  0  0  0  0  0  0  0  0  0
   16.5326  -52.1388   38.9074 C   0  0  0  0  0  0  0  0  0  0  0  0
   17.4290  -52.1036   37.8257 C   0  0  0  0  0  0  0  0  0  0  0  0
   15.6349  -55.6405   39.1103 O   0  0  0  0  0  0  0  0  0  0  0  0
   14.3448  -56.0778   39.0611 C   0  0  0  0  0  0  0  0  0  0  0  0
   14.0745  -56.9667   37.8958 C   0  0  0  0  0  0  0  0  0  0  0  0
   12.7932  -57.6478   38.0865 N   0  0  0  0  0  0  0  0  0  0  0  0
   11.9941  -57.0551   37.8186 H   0  0  0  0  0  0  0  0  0  0  0  0
   12.7147  -58.1016   39.0018 H   0  0  0  0  0  0  0  0  0  0  0  0
 17 18  1  0  0  0
 18 19  2  0  0  0
 18 24  1  0  0  0
 19 20  1  0  0  0
 20 21  1  0  0  0
 20  1  1  0  0  0
 21 22  2  0  0  0
 21 23  1  0  0  0
 23 24  1  0  0  0
 24 25  2  0  0  0
  1  2  1  0  0  0
  1  6  1  0  0  0
  2  3  1  0  0  0
  2 14  1  0  0  0
  2 15  1  0  0  0
  3  4  1  0  0  0
  4  5  1  0  0  0
  4  7  1  0  0  0
  4 11  1  0  0  0
  5  6  1  0  0  0
  7  8  1  0  0  0
  8  9  1  0  0  0
  9 10  1  0  0  0
  9 12  1  0  0  0
 10 11  1  0  0  0
 12 13  2  0  0  0
 12 27  1  0  0  0
 27 28  2  0  0  0
 27 32  1  0  0  0
 28 29  1  0  0  0
 29 30  2  0  0  0
 29 33  1  0  0  0
 30 31  1  0  0  0
 31 32  2  0  0  0
 33 34  1  0  0  0
 34 35  1  0  0  0
 35 36  1  0  0  0
 23 26  1  0  0  0
 36 37  1  0  0  0
 36 38  1  0  0  0
 14 16  1  0  0  0
M  END
> <minimizedAffinity>
-10.83462

$$$$
783


 39 42  0  0  0  0  0  0  0  0999 V2000
   14.0926  -59.9102   33.3452 C   0  0  0  0  0  0  0  0  0  0  0  0
   14.5007  -58.7982   34.2264 C   0  0  0  0  0  0  0  0  0  0  0  0
   15.6249  -57.9265   33.6540 C   0  0  0  0  0  0  0  0  0  0  0  0
   16.8116  -58.7754   33.2711 C   0  0  0  0  0  0  0  0  0  0  0  0
   16.4534  -60.0936   33.0610 O   0  0  0  0  0  0  0  0  0  0  0  0
   15.2484  -60.2878   32.4599 C   0  0  0  0  0  0  0  0  0  0  0  0
   17.8411  -58.6442   34.3791 C   0  0  0  0  0  0  0  0  0  0  0  0
   18.8573  -57.5897   34.0319 C   0  0  0  0  0  0  0  0  0  0  0  0
   18.1798  -56.4830   33.4060 N   0  0  0  0  0  0  0  0  0  0  0  0
   17.6309  -56.7431   32.0835 C   0  0  0  0  0  0  0  0  0  0  0  0
   17.3795  -58.2302   31.9825 C   0  0  0  0  0  0  0  0  0  0  0  0
   18.0862  -55.2411   34.0391 C   0  0  0  0  0  0  0  0  0  0  0  0
   17.4546  -54.3351   33.3826 O   0  0  0  0  0  0  0  0  0  0  0  0
   13.3988  -57.9084   34.3085 O   0  0  0  0  0  0  0  0  0  0  0  0
   14.8220  -59.1740   35.6363 C   0  0  0  0  0  0  0  0  0  0  0  0
   13.0204  -57.7150   33.4194 H   0  0  0  0  0  0  0  0  0  0  0  0
   14.9678  -64.7979   35.0858 Br  0  0  0  0  0  0  0  0  0  0  0  0
   13.8453  -63.2561   34.8533 C   0  0  0  0  0  0  0  0  0  0  0  0
   14.3244  -62.1406   34.2063 C   0  0  0  0  0  0  0  0  0  0  0  0
   13.5606  -61.0664   34.0379 N   0  0  0  0  0  0  0  0  0  0  0  0
   12.3106  -61.0466   34.4931 C   0  0  0  0  0  0  0  0  0  0  0  0
   11.5467  -60.0353   34.3511 O   0  0  0  0  0  0  0  0  0  0  0  0
   11.8257  -62.1251   35.1278 N   0  0  0  0  0  0  0  0  0  0  0  0
   12.5505  -63.2412   35.3283 C   0  0  0  0  0  0  0  0  0  0  0  0
   12.0640  -64.2427   35.9309 O   0  0  0  0  0  0  0  0  0  0  0  0
   10.8254  -62.1087   35.4921 H   0  0  0  0  0  0  0  0  0  0  0  0
   18.6049  -54.8212   35.3367 C   0  0  0  0  0  0  0  0  0  0  0  0
   20.0394  -54.5354   35.2863 N   0  0  0  0  0  0  0  0  0  0  0  0
   20.5360  -55.2142   34.6695 H   0  0  0  0  0  0  0  0  0  0  0  0
   20.4376  -54.6686   36.2488 H   0  0  0  0  0  0  0  0  0  0  0  0
   17.9576  -53.5862   35.9221 C   0  0  0  0  0  0  0  0  0  0  0  0
   17.0067  -54.0821   36.9855 C   0  0  0  0  0  0  0  0  0  0  0  0
   16.7338  -55.4202   37.0977 C   0  0  0  0  0  0  0  0  0  0  0  0
   15.8512  -55.8341   38.0915 C   0  0  0  0  0  0  0  0  0  0  0  0
   15.2567  -54.9395   38.9517 C   0  0  0  0  0  0  0  0  0  0  0  0
   15.5572  -53.5997   38.8072 C   0  0  0  0  0  0  0  0  0  0  0  0
   16.4271  -53.1584   37.8309 C   0  0  0  0  0  0  0  0  0  0  0  0
   14.3889  -55.4076   39.9198 O   0  0  0  0  0  0  0  0  0  0  0  0
   13.3841  -55.5145   39.7817 H   0  0  0  0  0  0  0  0  0  0  0  0
 17 18  1  0  0  0
 18 19  2  0  0  0
 18 24  1  0  0  0
 19 20  1  0  0  0
 20 21  1  0  0  0
 20  1  1  0  0  0
 21 22  2  0  0  0
 21 23  1  0  0  0
 23 24  1  0  0  0
 24 25  2  0  0  0
  1  2  1  0  0  0
  1  6  1  0  0  0
  2  3  1  0  0  0
  2 14  1  0  0  0
  2 15  1  0  0  0
  3  4  1  0  0  0
  4  5  1  0  0  0
  4  7  1  0  0  0
  4 11  1  0  0  0
  5  6  1  0  0  0
  7  8  1  0  0  0
  8  9  1  0  0  0
  9 10  1  0  0  0
  9 12  1  0  0  0
 10 11  1  0  0  0
 12 13  2  0  0  0
 12 27  1  0  0  0
 27 28  1  0  0  0
 27 31  1  0  0  0
 31 32  1  0  0  0
 32 33  2  0  0  0
 32 37  1  0  0  0
 33 34  1  0  0  0
 34 35  2  0  0  0
 35 36  1  0  0  0
 35 38  1  0  0  0
 36 37  2  0  0  0
 23 26  1  0  0  0
 28 29  1  0  0  0
 28 30  1  0  0  0
 38 39  1  0  0  0
 14 16  1  0  0  0
M  END
> <minimizedAffinity>
-9.70211

$$$$
784


 39 42  0  0  0  0  0  0  0  0999 V2000
   15.4025  -59.3555   34.3821 C   0  0  0  0  0  0  0  0  0  0  0  0
   14.7670  -57.9608   34.2611 C   0  0  0  0  0  0  0  0  0  0  0  0
   14.9098  -57.3670   35.6694 C   0  0  0  0  0  0  0  0  0  0  0  0
   14.3570  -58.3104   36.7013 C   0  0  0  0  0  0  0  0  0  0  0  0
   13.7158  -59.3475   36.0680 O   0  0  0  0  0  0  0  0  0  0  0  0
   14.5349  -60.1453   35.2732 C   0  0  0  0  0  0  0  0  0  0  0  0
   13.2899  -57.5321   37.4591 C   0  0  0  0  0  0  0  0  0  0  0  0
   13.9324  -56.7297   38.5622 C   0  0  0  0  0  0  0  0  0  0  0  0
   15.3586  -56.5080   38.2699 N   0  0  0  0  0  0  0  0  0  0  0  0
   16.1811  -57.6807   38.3094 C   0  0  0  0  0  0  0  0  0  0  0  0
   15.3487  -58.8028   37.6942 C   0  0  0  0  0  0  0  0  0  0  0  0
   15.8684  -55.2528   37.9397 C   0  0  0  0  0  0  0  0  0  0  0  0
   15.0887  -54.2288   37.8259 O   0  0  0  0  0  0  0  0  0  0  0  0
   15.4462  -57.1558   33.3729 O   0  0  0  0  0  0  0  0  0  0  0  0
   13.3370  -58.0491   33.8312 C   0  0  0  0  0  0  0  0  0  0  0  0
   14.8271  -56.4676   33.0196 H   0  0  0  0  0  0  0  0  0  0  0  0
   14.3859  -62.2380   30.0855 Br  0  0  0  0  0  0  0  0  0  0  0  0
   15.5261  -61.1441   31.1297 C   0  0  0  0  0  0  0  0  0  0  0  0
   15.0558  -60.6598   32.3503 C   0  0  0  0  0  0  0  0  0  0  0  0
   15.8010  -59.8843   33.1411 N   0  0  0  0  0  0  0  0  0  0  0  0
   17.0571  -59.5881   32.6893 C   0  0  0  0  0  0  0  0  0  0  0  0
   17.8008  -58.8592   33.4003 O   0  0  0  0  0  0  0  0  0  0  0  0
   17.5376  -60.0408   31.5190 N   0  0  0  0  0  0  0  0  0  0  0  0
   16.7984  -60.8223   30.7119 C   0  0  0  0  0  0  0  0  0  0  0  0
   17.2533  -61.2519   29.6022 O   0  0  0  0  0  0  0  0  0  0  0  0
   18.5178  -59.7659   31.2440 H   0  0  0  0  0  0  0  0  0  0  0  0
   17.2815  -55.0022   37.7024 C   0  0  0  0  0  0  0  0  0  0  0  0
   17.5157  -54.6116   36.3334 N   0  0  0  0  0  0  0  0  0  0  0  0
   17.8638  -55.4080   35.2491 C   0  0  0  0  0  0  0  0  0  0  0  0
   18.0522  -56.6416   35.2846 O   0  0  0  0  0  0  0  0  0  0  0  0
   18.0491  -54.8004   33.8708 C   0  0  0  0  0  0  0  0  0  0  0  0
   17.4045  -53.5667   36.1501 H   0  0  0  0  0  0  0  0  0  0  0  0
   17.8331  -53.8844   38.6421 C   0  0  0  0  0  0  0  0  0  0  0  0
   18.5023  -52.8423   37.8433 C   0  0  0  0  0  0  0  0  0  0  0  0
   19.6372  -52.8928   37.1640 N   0  0  0  0  0  0  0  0  0  0  0  0
   19.9076  -51.7050   36.5560 C   0  0  0  0  0  0  0  0  0  0  0  0
   18.8912  -50.8814   36.8747 N   0  0  0  0  0  0  0  0  0  0  0  0
   18.0244  -51.5557   37.6595 C   0  0  0  0  0  0  0  0  0  0  0  0
   18.8314  -49.8882   36.5431 H   0  0  0  0  0  0  0  0  0  0  0  0
 17 18  1  0  0  0
 18 19  2  0  0  0
 18 24  1  0  0  0
 19 20  1  0  0  0
 20 21  1  0  0  0
 20  1  1  0  0  0
 21 22  2  0  0  0
 21 23  1  0  0  0
 23 24  1  0  0  0
 24 25  2  0  0  0
  1  2  1  0  0  0
  1  6  1  0  0  0
  2  3  1  0  0  0
  2 14  1  0  0  0
  2 15  1  0  0  0
  3  4  1  0  0  0
  4  5  1  0  0  0
  4  7  1  0  0  0
  4 11  1  0  0  0
  5  6  1  0  0  0
  7  8  1  0  0  0
  8  9  1  0  0  0
  9 10  1  0  0  0
  9 12  1  0  0  0
 10 11  1  0  0  0
 12 13  2  0  0  0
 12 27  1  0  0  0
 27 28  1  0  0  0
 27 33  1  0  0  0
 28 29  1  0  0  0
 29 30  2  0  0  0
 29 31  1  0  0  0
 33 34  1  0  0  0
 34 35  1  0  0  0
 34 38  2  0  0  0
 35 36  2  0  0  0
 36 37  1  0  0  0
 37 38  1  0  0  0
 23 26  1  0  0  0
 28 32  1  0  0  0
 37 39  1  0  0  0
 14 16  1  0  0  0
M  END
> <minimizedAffinity>
-8.50019

$$$$
786


 25 28  0  0  0  0  0  0  0  0999 V2000
   14.4212  -57.2982   36.5532 N   0  0  0  0  0  0  0  0  0  0  0  0
   13.8200  -58.5507   36.3529 C   0  0  0  0  0  0  0  0  0  0  0  0
   13.9354  -59.4442   37.2174 O   0  0  0  0  0  0  0  0  0  0  0  0
   14.3188  -56.5631   35.8279 H   0  0  0  0  0  0  0  0  0  0  0  0
   13.0486  -58.8241   35.1261 C   0  0  0  0  0  0  0  0  0  0  0  0
   13.5871  -58.0172   33.9716 C   0  0  0  0  0  0  0  0  0  0  0  0
   14.9691  -58.4162   33.7857 N   0  0  0  0  0  0  0  0  0  0  0  0
   15.3317  -59.6956   33.9732 C   0  0  0  0  0  0  0  0  0  0  0  0
   16.6564  -59.7656   33.7321 N   0  0  0  0  0  0  0  0  0  0  0  0
   17.1019  -58.5876   33.4087 N   0  0  0  0  0  0  0  0  0  0  0  0
   16.0648  -57.7408   33.4378 C   0  0  0  0  0  0  0  0  0  0  0  0
   16.2025  -56.2859   33.1189 C   0  0  0  0  0  0  0  0  0  0  0  0
   14.4157  -60.7772   34.3669 C   0  0  0  0  0  0  0  0  0  0  0  0
   13.0841  -60.3005   34.8271 C   0  0  0  0  0  0  0  0  0  0  0  0
   15.1723  -57.0509   37.7640 C   0  0  0  0  0  0  0  0  0  0  0  0
   20.0610  -51.1585   36.1030 Br  0  0  0  0  0  0  0  0  0  0  0  0
   18.6723  -52.2245   36.8799 C   0  0  0  0  0  0  0  0  0  0  0  0
   18.4225  -53.5146   36.4671 C   0  0  0  0  0  0  0  0  0  0  0  0
   17.4356  -54.2764   37.0182 N   0  0  0  0  0  0  0  0  0  0  0  0
   16.6824  -53.7453   37.9983 C   0  0  0  0  0  0  0  0  0  0  0  0
   15.7827  -54.6645   38.3885 N   0  0  0  0  0  0  0  0  0  0  0  0
   15.9479  -55.7884   37.6668 C   0  0  0  0  0  0  0  0  0  0  0  0
   16.9940  -55.5299   36.8062 C   0  0  0  0  0  0  0  0  0  0  0  0
   16.9099  -52.4444   38.4382 C   0  0  0  0  0  0  0  0  0  0  0  0
   17.9029  -51.6761   37.8839 C   0  0  0  0  0  0  0  0  0  0  0  0
 16 17  1  0  0  0
 17 18  2  0  0  0
 17 25  1  0  0  0
 18 19  1  0  0  0
 19 20  1  0  0  0
 19 23  1  0  0  0
 20 21  2  0  0  0
 20 24  1  0  0  0
 21 22  1  0  0  0
 22 23  2  0  0  0
 22 15  1  0  0  0
 15  1  1  0  0  0
  1  2  1  0  0  0
  2  3  2  0  0  0
  2  5  1  0  0  0
  5  6  1  0  0  0
  5 14  1  0  0  0
  6  7  1  0  0  0
  7  8  1  0  0  0
  7 11  1  0  0  0
  8  9  2  0  0  0
  8 13  1  0  0  0
  9 10  1  0  0  0
 10 11  2  0  0  0
 11 12  1  0  0  0
 13 14  1  0  0  0
 24 25  2  0  0  0
  1  4  1  0  0  0
M  END
> <minimizedAffinity>
-8.70395

$$$$
789


 21 24  0  0  0  0  0  0  0  0999 V2000
   19.7630  -53.7390   34.0861 C   0  0  0  0  0  0  0  0  0  0  0  0
   20.7405  -52.9497   33.9831 O   0  0  0  0  0  0  0  0  0  0  0  0
   18.8998  -53.5913   35.2014 N   0  0  0  0  0  0  0  0  0  0  0  0
   19.1425  -52.5753   36.1590 C   0  0  0  0  0  0  0  0  0  0  0  0
   18.6299  -52.8906   37.5144 C   0  0  0  0  0  0  0  0  0  0  0  0
   17.9492  -54.1462   37.6523 N   0  0  0  0  0  0  0  0  0  0  0  0
   16.9896  -54.3508   36.5832 C   0  0  0  0  0  0  0  0  0  0  0  0
   17.7939  -54.5041   35.3064 C   0  0  0  0  0  0  0  0  0  0  0  0
   17.3723  -54.0764   38.9603 C   0  0  0  0  0  0  0  0  0  0  0  0
   16.9318  -52.6437   39.1287 C   0  0  0  0  0  0  0  0  0  0  0  0
   17.5820  -51.8967   37.9856 C   0  0  0  0  0  0  0  0  0  0  0  0
   18.1451  -60.0180   29.7276 Br  0  0  0  0  0  0  0  0  0  0  0  0
   18.7255  -58.2704   30.2765 C   0  0  0  0  0  0  0  0  0  0  0  0
   18.6307  -57.8586   31.5875 C   0  0  0  0  0  0  0  0  0  0  0  0
   19.0367  -56.6265   31.9908 N   0  0  0  0  0  0  0  0  0  0  0  0
   19.0530  -56.0030   33.1584 N   0  0  0  0  0  0  0  0  0  0  0  0
   19.5600  -54.7666   33.0552 C   0  0  0  0  0  0  0  0  0  0  0  0
   19.8757  -54.6434   31.7019 C   0  0  0  0  0  0  0  0  0  0  0  0
   19.5433  -55.8121   31.0470 C   0  0  0  0  0  0  0  0  0  0  0  0
   19.6427  -56.2083   29.7507 N   0  0  0  0  0  0  0  0  0  0  0  0
   19.2485  -57.4193   29.3287 C   0  0  0  0  0  0  0  0  0  0  0  0
 12 13  1  0  0  0
 13 14  2  0  0  0
 13 21  1  0  0  0
 14 15  1  0  0  0
 15 16  1  0  0  0
 15 19  1  0  0  0
 16 17  2  0  0  0
 17 18  1  0  0  0
 17  1  1  0  0  0
 18 19  2  0  0  0
 19 20  1  0  0  0
 20 21  2  0  0  0
  1  2  2  0  0  0
  1  3  1  0  0  0
  3  4  1  0  0  0
  3  8  1  0  0  0
  4  5  1  0  0  0
  5  6  1  0  0  0
  5 11  1  0  0  0
  6  7  1  0  0  0
  6  9  1  0  0  0
  7  8  1  0  0  0
  9 10  1  0  0  0
 10 11  1  0  0  0
M  END
> <minimizedAffinity>
-8.26143

$$$$
790


 25 28  0  0  0  0  0  0  0  0999 V2000
   14.7719  -57.4434   34.0913 C   0  0  0  0  0  0  0  0  0  0  0  0
   13.6295  -57.3095   33.5658 O   0  0  0  0  0  0  0  0  0  0  0  0
   14.9237  -58.0650   35.3573 N   0  0  0  0  0  0  0  0  0  0  0  0
   16.2880  -58.1798   35.8952 C   0  0  0  0  0  0  0  0  0  0  0  0
   16.0835  -58.2371   37.4092 C   0  0  0  0  0  0  0  0  0  0  0  0
   15.0188  -57.3220   37.6948 N   0  0  0  0  0  0  0  0  0  0  0  0
   13.6744  -57.9385   37.4956 C   0  0  0  0  0  0  0  0  0  0  0  0
   13.7844  -58.5738   36.1069 C   0  0  0  0  0  0  0  0  0  0  0  0
   15.0999  -55.9912   38.0704 C   0  0  0  0  0  0  0  0  0  0  0  0
   13.9798  -55.3785   38.3174 O   0  0  0  0  0  0  0  0  0  0  0  0
   19.5486  -59.2642   29.2575 Br  0  0  0  0  0  0  0  0  0  0  0  0
   18.3430  -58.5977   30.5721 C   0  0  0  0  0  0  0  0  0  0  0  0
   18.4650  -57.3315   31.0514 C   0  0  0  0  0  0  0  0  0  0  0  0
   17.6278  -56.8614   31.9677 N   0  0  0  0  0  0  0  0  0  0  0  0
   17.5512  -55.6762   32.5755 N   0  0  0  0  0  0  0  0  0  0  0  0
   16.5137  -55.7105   33.4278 C   0  0  0  0  0  0  0  0  0  0  0  0
   15.9132  -56.9462   33.3635 C   0  0  0  0  0  0  0  0  0  0  0  0
   16.6469  -57.6600   32.4224 C   0  0  0  0  0  0  0  0  0  0  0  0
   16.5131  -58.9128   31.9593 N   0  0  0  0  0  0  0  0  0  0  0  0
   17.3431  -59.4067   31.0379 C   0  0  0  0  0  0  0  0  0  0  0  0
   16.2669  -55.1413   38.2368 C   0  0  0  0  0  0  0  0  0  0  0  0
   17.3659  -55.2017   37.4717 O   0  0  0  0  0  0  0  0  0  0  0  0
   18.2543  -54.3402   37.8323 C   0  0  0  0  0  0  0  0  0  0  0  0
   17.7853  -53.6218   38.9035 C   0  0  0  0  0  0  0  0  0  0  0  0
   16.5251  -54.1438   39.1457 C   0  0  0  0  0  0  0  0  0  0  0  0
 11 12  1  0  0  0
 12 13  2  0  0  0
 12 20  1  0  0  0
 13 14  1  0  0  0
 14 15  1  0  0  0
 14 18  1  0  0  0
 15 16  2  0  0  0
 16 17  1  0  0  0
 17 18  2  0  0  0
 17  1  1  0  0  0
 18 19  1  0  0  0
 19 20  2  0  0  0
  1  2  2  0  0  0
  1  3  1  0  0  0
  3  4  1  0  0  0
  3  8  1  0  0  0
  4  5  1  0  0  0
  5  6  1  0  0  0
  6  7  1  0  0  0
  6  9  1  0  0  0
  7  8  1  0  0  0
  9 10  2  0  0  0
  9 21  1  0  0  0
 21 22  1  0  0  0
 21 25  2  0  0  0
 22 23  1  0  0  0
 23 24  2  0  0  0
 24 25  1  0  0  0
M  END
> <minimizedAffinity>
-8.73779

$$$$
797


 28 31  0  0  0  0  0  0  0  0999 V2000
   13.9596  -56.7816   37.7702 O   0  0  0  0  0  0  0  0  0  0  0  0
   13.3717  -58.0235   37.6515 C   0  0  0  0  0  0  0  0  0  0  0  0
   12.7519  -58.5073   38.6203 O   0  0  0  0  0  0  0  0  0  0  0  0
   13.4957  -58.7487   36.3663 C   0  0  0  0  0  0  0  0  0  0  0  0
   14.5569  -58.2056   35.5679 N   0  0  0  0  0  0  0  0  0  0  0  0
   15.9335  -58.2476   35.8723 C   0  0  0  0  0  0  0  0  0  0  0  0
   16.5154  -58.7479   36.8696 O   0  0  0  0  0  0  0  0  0  0  0  0
   16.6684  -57.5716   34.7814 C   0  0  0  0  0  0  0  0  0  0  0  0
   15.7468  -57.1467   33.8631 C   0  0  0  0  0  0  0  0  0  0  0  0
   16.1188  -56.4820   32.7302 C   0  0  0  0  0  0  0  0  0  0  0  0
   17.4546  -56.2402   32.5199 C   0  0  0  0  0  0  0  0  0  0  0  0
   18.3854  -56.6694   33.4461 C   0  0  0  0  0  0  0  0  0  0  0  0
   18.0204  -57.3409   34.5927 C   0  0  0  0  0  0  0  0  0  0  0  0
   14.4162  -57.5344   34.3370 C   0  0  0  0  0  0  0  0  0  0  0  0
   13.3367  -57.2901   33.7162 O   0  0  0  0  0  0  0  0  0  0  0  0
   14.7612  -56.3577   38.8414 C   0  0  0  0  0  0  0  0  0  0  0  0
   20.2499  -50.6292   36.1804 Br  0  0  0  0  0  0  0  0  0  0  0  0
   19.1268  -52.1231   36.6113 C   0  0  0  0  0  0  0  0  0  0  0  0
   18.1015  -52.0169   37.5251 C   0  0  0  0  0  0  0  0  0  0  0  0
   17.2907  -53.0453   37.8550 N   0  0  0  0  0  0  0  0  0  0  0  0
   17.4378  -54.2617   37.3002 C   0  0  0  0  0  0  0  0  0  0  0  0
   16.6402  -55.2963   37.6168 N   0  0  0  0  0  0  0  0  0  0  0  0
   15.6301  -55.1977   38.5137 C   0  0  0  0  0  0  0  0  0  0  0  0
   15.4614  -53.9593   39.0960 C   0  0  0  0  0  0  0  0  0  0  0  0
   16.2967  -52.8992   38.7557 C   0  0  0  0  0  0  0  0  0  0  0  0
   16.1536  -51.7805   39.2734 O   0  0  0  0  0  0  0  0  0  0  0  0
   18.4702  -54.3999   36.3688 C   0  0  0  0  0  0  0  0  0  0  0  0
   19.3034  -53.3581   36.0249 C   0  0  0  0  0  0  0  0  0  0  0  0
 17 18  1  0  0  0
 18 19  2  0  0  0
 18 28  1  0  0  0
 19 20  1  0  0  0
 20 21  1  0  0  0
 20 25  1  0  0  0
 21 22  2  0  0  0
 21 27  1  0  0  0
 22 23  1  0  0  0
 23 24  2  0  0  0
 23 16  1  0  0  0
 24 25  1  0  0  0
 25 26  2  0  0  0
 16  1  1  0  0  0
  1  2  1  0  0  0
  2  3  2  0  0  0
  2  4  1  0  0  0
  4  5  1  0  0  0
  5  6  1  0  0  0
  5 14  1  0  0  0
  6  7  2  0  0  0
  6  8  1  0  0  0
  8  9  2  0  0  0
  8 13  1  0  0  0
  9 10  1  0  0  0
  9 14  1  0  0  0
 10 11  2  0  0  0
 11 12  1  0  0  0
 12 13  2  0  0  0
 14 15  2  0  0  0
 27 28  2  0  0  0
M  END
> <minimizedAffinity>
-9.97756

$$$$
800


 29 32  0  0  0  0  0  0  0  0999 V2000
   19.2287  -54.3613   33.4016 C   0  0  0  0  0  0  0  0  0  0  0  0
   19.8084  -53.9375   32.3684 O   0  0  0  0  0  0  0  0  0  0  0  0
   17.9480  -54.8442   33.2769 O   0  0  0  0  0  0  0  0  0  0  0  0
   17.6569  -56.1305   32.7636 C   0  0  0  0  0  0  0  0  0  0  0  0
   12.6223  -59.6473   38.2932 Br  0  0  0  0  0  0  0  0  0  0  0  0
   13.9895  -58.8500   37.2235 C   0  0  0  0  0  0  0  0  0  0  0  0
   13.6913  -58.4676   35.9335 C   0  0  0  0  0  0  0  0  0  0  0  0
   14.6508  -57.9069   35.1782 N   0  0  0  0  0  0  0  0  0  0  0  0
   15.8986  -57.7063   35.6492 C   0  0  0  0  0  0  0  0  0  0  0  0
   16.8509  -57.1390   34.8705 N   0  0  0  0  0  0  0  0  0  0  0  0
   16.6049  -56.7515   33.6068 C   0  0  0  0  0  0  0  0  0  0  0  0
   15.3375  -56.9473   33.1094 C   0  0  0  0  0  0  0  0  0  0  0  0
   14.3545  -57.5333   33.9133 C   0  0  0  0  0  0  0  0  0  0  0  0
   13.2071  -57.7146   33.4738 O   0  0  0  0  0  0  0  0  0  0  0  0
   16.2039  -58.0873   36.9411 C   0  0  0  0  0  0  0  0  0  0  0  0
   15.2570  -58.6670   37.7552 C   0  0  0  0  0  0  0  0  0  0  0  0
   19.9859  -54.3029   34.6792 C   0  0  0  0  0  0  0  0  0  0  0  0
   19.3741  -53.4358   35.6420 N   0  0  0  0  0  0  0  0  0  0  0  0
   19.7043  -52.0691   35.8851 C   0  0  0  0  0  0  0  0  0  0  0  0
   20.6002  -51.4196   35.2726 O   0  0  0  0  0  0  0  0  0  0  0  0
   18.8557  -51.5878   36.9210 N   0  0  0  0  0  0  0  0  0  0  0  0
   18.0944  -52.6912   37.4494 C   0  0  0  0  0  0  0  0  0  0  0  0
   18.5317  -53.0964   38.8321 C   0  0  0  0  0  0  0  0  0  0  0  0
   17.3563  -53.8622   39.3530 C   0  0  0  0  0  0  0  0  0  0  0  0
   16.1800  -53.5608   38.4712 C   0  0  0  0  0  0  0  0  0  0  0  0
   16.6448  -52.3923   37.6293 C   0  0  0  0  0  0  0  0  0  0  0  0
   18.3170  -53.8056   36.5300 C   0  0  0  0  0  0  0  0  0  0  0  0
   17.7213  -54.9071   36.4808 O   0  0  0  0  0  0  0  0  0  0  0  0
   18.8170  -50.5983   37.2204 H   0  0  0  0  0  0  0  0  0  0  0  0
  5  6  1  0  0  0
  6  7  2  0  0  0
  6 16  1  0  0  0
  7  8  1  0  0  0
  8  9  1  0  0  0
  8 13  1  0  0  0
  9 10  2  0  0  0
  9 15  1  0  0  0
 10 11  1  0  0  0
 11 12  2  0  0  0
 11  4  1  0  0  0
 12 13  1  0  0  0
 13 14  2  0  0  0
  4  3  1  0  0  0
  3  1  1  0  0  0
  1  2  2  0  0  0
  1 17  1  0  0  0
 17 18  1  0  0  0
 18 19  1  0  0  0
 18 27  1  0  0  0
 19 20  2  0  0  0
 19 21  1  0  0  0
 21 22  1  0  0  0
 22 23  1  0  0  0
 22 26  1  0  0  0
 22 27  1  0  0  0
 23 24  1  0  0  0
 24 25  1  0  0  0
 25 26  1  0  0  0
 27 28  2  0  0  0
 15 16  2  0  0  0
 21 29  1  0  0  0
M  END
> <minimizedAffinity>
-10.07843

$$$$
803


 31 34  0  0  0  0  0  0  0  0999 V2000
   17.4710  -55.3041   32.5791 Br  0  0  0  0  0  0  0  0  0  0  0  0
   16.4352  -56.1761   33.9119 C   0  0  0  0  0  0  0  0  0  0  0  0
   15.4781  -57.0879   33.6322 C   0  0  0  0  0  0  0  0  0  0  0  0
   14.8069  -57.7677   34.5664 N   0  0  0  0  0  0  0  0  0  0  0  0
   15.0948  -57.5367   35.8467 C   0  0  0  0  0  0  0  0  0  0  0  0
   14.4177  -58.2125   36.8173 N   0  0  0  0  0  0  0  0  0  0  0  0
   13.4706  -59.1020   36.5540 C   0  0  0  0  0  0  0  0  0  0  0  0
   13.1550  -59.3589   35.2391 C   0  0  0  0  0  0  0  0  0  0  0  0
   12.1730  -60.2689   34.9013 C   0  0  0  0  0  0  0  0  0  0  0  0
   11.4508  -60.9752   35.8639 C   0  0  0  0  0  0  0  0  0  0  0  0
   11.7752  -60.7100   37.1767 C   0  0  0  0  0  0  0  0  0  0  0  0
   12.7589  -59.7988   37.5199 C   0  0  0  0  0  0  0  0  0  0  0  0
   13.8576  -58.6604   34.2646 C   0  0  0  0  0  0  0  0  0  0  0  0
   13.5798  -58.8837   33.0654 O   0  0  0  0  0  0  0  0  0  0  0  0
   16.0488  -56.6272   36.1536 N   0  0  0  0  0  0  0  0  0  0  0  0
   16.7543  -55.9141   35.2862 C   0  0  0  0  0  0  0  0  0  0  0  0
   16.1844  -56.5360   37.2125 H   0  0  0  0  0  0  0  0  0  0  0  0
   17.6458  -54.9156   35.5199 N   0  0  0  0  0  0  0  0  0  0  0  0
   16.9131  -54.4434   36.5729 H   0  0  0  0  0  0  0  0  0  0  0  0
   18.5240  -53.9314   35.7507 C   0  0  0  0  0  0  0  0  0  0  0  0
   18.3744  -53.1257   36.8870 C   0  0  0  0  0  0  0  0  0  0  0  0
   19.0936  -51.9845   37.0278 C   0  0  0  0  0  0  0  0  0  0  0  0
   19.9880  -51.6004   36.0587 C   0  0  0  0  0  0  0  0  0  0  0  0
   20.1867  -52.3515   34.9216 C   0  0  0  0  0  0  0  0  0  0  0  0
   19.4438  -53.5026   34.8007 C   0  0  0  0  0  0  0  0  0  0  0  0
   17.5573  -53.5470   38.0318 C   0  0  0  0  0  0  0  0  0  0  0  0
   18.0353  -54.4206   38.7991 O   0  0  0  0  0  0  0  0  0  0  0  0
   16.3133  -53.0750   38.3353 O   0  0  0  0  0  0  0  0  0  0  0  0
   15.4539  -53.7150   39.2589 C   0  0  0  0  0  0  0  0  0  0  0  0
   14.7591  -54.9084   38.5968 C   0  0  0  0  0  0  0  0  0  0  0  0
   14.6740  -56.0345   39.5994 C   0  0  0  0  0  0  0  0  0  0  0  0
  1  2  1  0  0  0
  2  3  2  0  0  0
  2 16  1  0  0  0
  3  4  1  0  0  0
  4  5  1  0  0  0
  4 13  1  0  0  0
  5  6  2  0  0  0
  5 15  1  0  0  0
  6  7  1  0  0  0
  7  8  2  0  0  0
  7 12  1  0  0  0
  8  9  1  0  0  0
  8 13  1  0  0  0
  9 10  2  0  0  0
 10 11  1  0  0  0
 11 12  2  0  0  0
 13 14  2  0  0  0
 15 16  2  0  0  0
 16 18  1  0  0  0
 18 20  1  0  0  0
 20 21  2  0  0  0
 20 25  1  0  0  0
 21 22  1  0  0  0
 21 26  1  0  0  0
 22 23  2  0  0  0
 23 24  1  0  0  0
 24 25  2  0  0  0
 26 27  2  0  0  0
 26 28  1  0  0  0
 28 29  1  0  0  0
 29 30  1  0  0  0
 30 31  1  0  0  0
 15 17  1  0  0  0
 18 19  1  0  0  0
M  END
> <minimizedAffinity>
-9.51850

$$$$
814


 31 34  0  0  0  0  0  0  0  0999 V2000
   14.0341  -57.9188   35.6362 N   0  0  0  0  0  0  0  0  0  0  0  0
   14.3846  -56.9298   36.4265 N   0  0  0  0  0  0  0  0  0  0  0  0
   13.9812  -57.1652   37.6839 C   0  0  0  0  0  0  0  0  0  0  0  0
   13.3530  -58.3499   37.6769 N   0  0  0  0  0  0  0  0  0  0  0  0
   13.3899  -58.8136   36.3929 C   0  0  0  0  0  0  0  0  0  0  0  0
   12.8254  -60.0754   35.9173 C   0  0  0  0  0  0  0  0  0  0  0  0
   11.3415  -60.1927   36.1736 C   0  0  0  0  0  0  0  0  0  0  0  0
   11.0363  -60.4112   37.6391 C   0  0  0  0  0  0  0  0  0  0  0  0
   11.2765  -59.1952   38.4793 C   0  0  0  0  0  0  0  0  0  0  0  0
   12.7489  -59.0093   38.8177 C   0  0  0  0  0  0  0  0  0  0  0  0
   14.2882  -58.0263   34.2306 C   0  0  0  0  0  0  0  0  0  0  0  0
   15.7268  -58.2726   33.9455 C   0  0  0  0  0  0  0  0  0  0  0  0
   16.0739  -59.4543   33.6809 O   0  0  0  0  0  0  0  0  0  0  0  0
   19.9510  -53.7707   33.9678 Br  0  0  0  0  0  0  0  0  0  0  0  0
   18.6293  -55.1694   33.9556 C   0  0  0  0  0  0  0  0  0  0  0  0
   18.8448  -56.3272   34.6831 C   0  0  0  0  0  0  0  0  0  0  0  0
   17.8931  -57.3425   34.6781 C   0  0  0  0  0  0  0  0  0  0  0  0
   16.7256  -57.2259   33.9600 C   0  0  0  0  0  0  0  0  0  0  0  0
   16.5438  -56.0616   33.2476 C   0  0  0  0  0  0  0  0  0  0  0  0
   17.4659  -55.0439   33.2344 C   0  0  0  0  0  0  0  0  0  0  0  0
   14.1722  -56.3142   38.8665 C   0  0  0  0  0  0  0  0  0  0  0  0
   15.5504  -56.0254   39.1200 N   0  0  0  0  0  0  0  0  0  0  0  0
   16.1430  -56.7159   39.6036 H   0  0  0  0  0  0  0  0  0  0  0  0
   16.1707  -54.8031   38.7331 C   0  0  0  0  0  0  0  0  0  0  0  0
   15.8418  -53.5970   39.3091 C   0  0  0  0  0  0  0  0  0  0  0  0
   16.4495  -52.4273   38.9317 C   0  0  0  0  0  0  0  0  0  0  0  0
   17.4034  -52.4482   37.9633 C   0  0  0  0  0  0  0  0  0  0  0  0
   17.7349  -53.6531   37.3840 C   0  0  0  0  0  0  0  0  0  0  0  0
   17.1309  -54.8362   37.7562 C   0  0  0  0  0  0  0  0  0  0  0  0
   18.0288  -51.2912   37.5641 O   0  0  0  0  0  0  0  0  0  0  0  0
   19.1891  -51.2838   36.7699 C   0  0  0  0  0  0  0  0  0  0  0  0
 14 15  1  0  0  0
 15 16  2  0  0  0
 15 20  1  0  0  0
 16 17  1  0  0  0
 17 18  2  0  0  0
 18 19  1  0  0  0
 18 12  1  0  0  0
 19 20  2  0  0  0
 12 13  2  0  0  0
 12 11  1  0  0  0
 11  1  1  0  0  0
  1  2  1  0  0  0
  1  5  2  0  0  0
  2  3  2  0  0  0
  3  4  1  0  0  0
  3 21  1  0  0  0
  4  5  1  0  0  0
  4 10  1  0  0  0
  5  6  1  0  0  0
  6  7  1  0  0  0
  7  8  1  0  0  0
  8  9  1  0  0  0
  9 10  1  0  0  0
 21 22  1  0  0  0
 22 24  1  0  0  0
 24 25  2  0  0  0
 24 29  1  0  0  0
 25 26  1  0  0  0
 26 27  2  0  0  0
 27 28  1  0  0  0
 27 30  1  0  0  0
 28 29  2  0  0  0
 30 31  1  0  0  0
 22 23  1  0  0  0
M  END
> <minimizedAffinity>
-9.39242

$$$$
827


 29 32  0  0  0  0  0  0  0  0999 V2000
   13.4394  -58.8737   34.2180 C   0  0  0  0  0  0  0  0  0  0  0  0
   14.0575  -58.0630   35.2647 N   0  0  0  0  0  0  0  0  0  0  0  0
   13.5177  -58.3914   36.4844 C   0  0  0  0  0  0  0  0  0  0  0  0
   13.5317  -57.7288   37.6141 C   0  0  0  0  0  0  0  0  0  0  0  0
   12.9929  -57.9876   38.9807 C   0  0  0  0  0  0  0  0  0  0  0  0
   12.1089  -59.1912   39.0734 C   0  0  0  0  0  0  0  0  0  0  0  0
   12.8193  -60.4416   38.6115 C   0  0  0  0  0  0  0  0  0  0  0  0
   12.4809  -60.7221   37.1606 C   0  0  0  0  0  0  0  0  0  0  0  0
   12.7700  -59.6166   36.3053 N   0  0  0  0  0  0  0  0  0  0  0  0
   12.2415  -59.5750   34.9352 C   0  0  0  0  0  0  0  0  0  0  0  0
   12.9345  -58.1531   33.2063 O   0  0  0  0  0  0  0  0  0  0  0  0
   13.5162  -57.0836   35.0482 H   0  0  0  0  0  0  0  0  0  0  0  0
   12.7050  -58.5719   32.3639 H   0  0  0  0  0  0  0  0  0  0  0  0
   17.1074  -63.5640   32.6298 Br  0  0  0  0  0  0  0  0  0  0  0  0
   15.9808  -62.1196   33.1093 C   0  0  0  0  0  0  0  0  0  0  0  0
   15.0282  -62.2989   34.0946 C   0  0  0  0  0  0  0  0  0  0  0  0
   14.2030  -61.2576   34.4634 C   0  0  0  0  0  0  0  0  0  0  0  0
   14.3133  -60.0268   33.8592 C   0  0  0  0  0  0  0  0  0  0  0  0
   15.2530  -59.8534   32.8882 C   0  0  0  0  0  0  0  0  0  0  0  0
   16.1020  -60.8976   32.4977 C   0  0  0  0  0  0  0  0  0  0  0  0
   15.3617  -57.6994   35.0567 C   0  0  0  0  0  0  0  0  0  0  0  0
   16.4358  -58.1542   35.7605 C   0  0  0  0  0  0  0  0  0  0  0  0
   17.7264  -57.6163   35.6195 C   0  0  0  0  0  0  0  0  0  0  0  0
   17.9653  -56.5876   34.7467 C   0  0  0  0  0  0  0  0  0  0  0  0
   16.8771  -56.1203   34.0242 C   0  0  0  0  0  0  0  0  0  0  0  0
   15.6127  -56.6499   34.1668 C   0  0  0  0  0  0  0  0  0  0  0  0
   19.2279  -56.0369   34.6018 O   0  0  0  0  0  0  0  0  0  0  0  0
   19.5244  -54.6641   34.6473 C   0  0  0  0  0  0  0  0  0  0  0  0
   19.6031  -54.3071   36.1441 C   0  0  0  0  0  0  0  0  0  0  0  0
 14 15  1  0  0  0
 15 16  2  0  0  0
 15 20  1  0  0  0
 16 17  1  0  0  0
 17 18  2  0  0  0
 18 19  1  0  0  0
 18  1  1  0  0  0
 19 20  2  0  0  0
  1  2  1  0  0  0
  1 10  1  0  0  0
  1 11  1  0  0  0
  2  3  1  0  0  0
  2 21  1  0  0  0
  3  4  2  0  0  0
  3  9  1  0  0  0
  4  5  1  0  0  0
  5  6  1  0  0  0
  6  7  1  0  0  0
  7  8  1  0  0  0
  8  9  1  0  0  0
  9 10  1  0  0  0
 21 22  2  0  0  0
 21 26  1  0  0  0
 22 23  1  0  0  0
 23 24  2  0  0  0
 24 25  1  0  0  0
 24 27  1  0  0  0
 25 26  2  0  0  0
 27 28  1  0  0  0
 28 29  1  0  0  0
  2 12  1  0  0  0
 11 13  1  0  0  0
M  CHG 1   2   1
M  END
> <minimizedAffinity>
-7.09216

$$$$
833


 28 31  0  0  0  0  0  0  0  0999 V2000
   17.1085  -55.7388   32.6203 C   0  0  0  0  0  0  0  0  0  0  0  0
   17.2421  -56.8199   33.5871 N   0  0  0  0  0  0  0  0  0  0  0  0
   17.8724  -58.0938   33.2597 C   0  0  0  0  0  0  0  0  0  0  0  0
   17.6306  -59.1462   34.2784 C   0  0  0  0  0  0  0  0  0  0  0  0
   16.1795  -59.3329   34.6385 C   0  0  0  0  0  0  0  0  0  0  0  0
   15.9542  -58.5199   35.8997 C   0  0  0  0  0  0  0  0  0  0  0  0
   16.1144  -57.1018   35.7654 C   0  0  0  0  0  0  0  0  0  0  0  0
   16.6672  -56.3677   34.7725 C   0  0  0  0  0  0  0  0  0  0  0  0
   16.7297  -54.9633   34.8639 N   0  0  0  0  0  0  0  0  0  0  0  0
   17.1114  -54.5677   33.5395 C   0  0  0  0  0  0  0  0  0  0  0  0
   15.9262  -55.9291   31.9536 O   0  0  0  0  0  0  0  0  0  0  0  0
   15.8204  -54.5040   35.1016 H   0  0  0  0  0  0  0  0  0  0  0  0
   15.8888  -56.7554   31.4277 H   0  0  0  0  0  0  0  0  0  0  0  0
   21.8301  -55.9021   28.7237 Br  0  0  0  0  0  0  0  0  0  0  0  0
   20.3509  -55.8413   29.9377 C   0  0  0  0  0  0  0  0  0  0  0  0
   19.1853  -56.4968   29.6142 C   0  0  0  0  0  0  0  0  0  0  0  0
   18.0896  -56.4707   30.4779 C   0  0  0  0  0  0  0  0  0  0  0  0
   18.2369  -55.7525   31.6678 C   0  0  0  0  0  0  0  0  0  0  0  0
   19.3832  -55.1002   31.9961 C   0  0  0  0  0  0  0  0  0  0  0  0
   20.4593  -55.1381   31.1259 C   0  0  0  0  0  0  0  0  0  0  0  0
   17.7389  -54.6736   35.8315 C   0  0  0  0  0  0  0  0  0  0  0  0
   17.3999  -54.2240   37.0966 C   0  0  0  0  0  0  0  0  0  0  0  0
   18.4563  -53.8970   37.9368 C   0  0  0  0  0  0  0  0  0  0  0  0
   19.7892  -53.9946   37.5831 C   0  0  0  0  0  0  0  0  0  0  0  0
   20.0852  -54.4579   36.2835 C   0  0  0  0  0  0  0  0  0  0  0  0
   19.0508  -54.7736   35.4788 C   0  0  0  0  0  0  0  0  0  0  0  0
   16.0911  -54.1257   37.4580 O   0  0  0  0  0  0  0  0  0  0  0  0
   15.7063  -53.5743   38.6901 C   0  0  0  0  0  0  0  0  0  0  0  0
 14 15  1  0  0  0
 15 16  2  0  0  0
 15 20  1  0  0  0
 16 17  1  0  0  0
 17 18  2  0  0  0
 18 19  1  0  0  0
 18  1  1  0  0  0
 19 20  2  0  0  0
  1  2  1  0  0  0
  1 10  1  0  0  0
  1 11  1  0  0  0
  2  3  1  0  0  0
  2  8  1  0  0  0
  3  4  1  0  0  0
  4  5  1  0  0  0
  5  6  1  0  0  0
  6  7  1  0  0  0
  7  8  2  0  0  0
  8  9  1  0  0  0
  9 10  1  0  0  0
  9 21  1  0  0  0
 21 22  2  0  0  0
 21 26  1  0  0  0
 22 23  1  0  0  0
 22 27  1  0  0  0
 23 24  2  0  0  0
 24 25  1  0  0  0
 25 26  2  0  0  0
 27 28  1  0  0  0
  9 12  1  0  0  0
 11 13  1  0  0  0
M  CHG 1   9   1
M  END
> <minimizedAffinity>
-8.29115

$$$$
834


 28 31  0  0  0  0  0  0  0  0999 V2000
   17.3075  -56.4880   33.9832 C   0  0  0  0  0  0  0  0  0  0  0  0
   16.2465  -57.3749   33.6294 N   0  0  0  0  0  0  0  0  0  0  0  0
   14.8730  -57.0539   33.3916 C   0  0  0  0  0  0  0  0  0  0  0  0
   13.8513  -57.9189   34.0216 C   0  0  0  0  0  0  0  0  0  0  0  0
   14.3357  -59.0808   34.8110 C   0  0  0  0  0  0  0  0  0  0  0  0
   14.8884  -60.1944   33.9207 C   0  0  0  0  0  0  0  0  0  0  0  0
   16.3239  -59.8613   33.6638 C   0  0  0  0  0  0  0  0  0  0  0  0
   16.8926  -58.6737   33.5422 C   0  0  0  0  0  0  0  0  0  0  0  0
   18.2824  -58.4750   33.3138 N   0  0  0  0  0  0  0  0  0  0  0  0
   18.5362  -57.3779   34.1996 C   0  0  0  0  0  0  0  0  0  0  0  0
   17.5724  -55.5405   32.9753 O   0  0  0  0  0  0  0  0  0  0  0  0
   18.7836  -59.3521   33.6044 H   0  0  0  0  0  0  0  0  0  0  0  0
   18.5611  -55.4936   32.9225 H   0  0  0  0  0  0  0  0  0  0  0  0
   16.9475  -52.8228   38.9369 Br  0  0  0  0  0  0  0  0  0  0  0  0
   17.0387  -53.9984   37.4306 C   0  0  0  0  0  0  0  0  0  0  0  0
   16.7064  -55.3314   37.5463 C   0  0  0  0  0  0  0  0  0  0  0  0
   16.7829  -56.1695   36.4409 C   0  0  0  0  0  0  0  0  0  0  0  0
   17.1782  -55.7258   35.2231 C   0  0  0  0  0  0  0  0  0  0  0  0
   17.5204  -54.3625   35.0992 C   0  0  0  0  0  0  0  0  0  0  0  0
   17.4405  -53.5448   36.1968 C   0  0  0  0  0  0  0  0  0  0  0  0
   18.4868  -58.1651   31.9598 C   0  0  0  0  0  0  0  0  0  0  0  0
   19.6724  -57.5374   31.5355 C   0  0  0  0  0  0  0  0  0  0  0  0
   19.8999  -57.2186   30.2240 C   0  0  0  0  0  0  0  0  0  0  0  0
   18.9638  -57.5051   29.2533 C   0  0  0  0  0  0  0  0  0  0  0  0
   17.8003  -58.1172   29.6420 C   0  0  0  0  0  0  0  0  0  0  0  0
   17.5714  -58.4376   30.9645 C   0  0  0  0  0  0  0  0  0  0  0  0
   19.2071  -57.1739   27.9066 O   0  0  0  0  0  0  0  0  0  0  0  0
   20.5135  -57.2214   27.3973 C   0  0  0  0  0  0  0  0  0  0  0  0
 14 15  1  0  0  0
 15 16  2  0  0  0
 15 20  1  0  0  0
 16 17  1  0  0  0
 17 18  2  0  0  0
 18 19  1  0  0  0
 18  1  1  0  0  0
 19 20  2  0  0  0
  1  2  1  0  0  0
  1 10  1  0  0  0
  1 11  1  0  0  0
  2  3  1  0  0  0
  2  8  1  0  0  0
  3  4  1  0  0  0
  4  5  1  0  0  0
  5  6  1  0  0  0
  6  7  1  0  0  0
  7  8  2  0  0  0
  8  9  1  0  0  0
  9 10  1  0  0  0
  9 21  1  0  0  0
 21 22  2  0  0  0
 21 26  1  0  0  0
 22 23  1  0  0  0
 23 24  2  0  0  0
 24 25  1  0  0  0
 24 27  1  0  0  0
 25 26  2  0  0  0
 27 28  1  0  0  0
  9 12  1  0  0  0
 11 13  1  0  0  0
M  CHG 1   9   1
M  END
> <minimizedAffinity>
-8.74510

$$$$
835


 27 30  0  0  0  0  0  0  0  0999 V2000
   16.8076  -57.2516   34.3972 C   0  0  0  0  0  0  0  0  0  0  0  0
   17.6377  -57.1704   33.2145 N   0  0  0  0  0  0  0  0  0  0  0  0
   18.9054  -56.5842   32.8336 C   0  0  0  0  0  0  0  0  0  0  0  0
   19.6555  -57.4414   31.8348 C   0  0  0  0  0  0  0  0  0  0  0  0
   18.7894  -57.6276   30.6345 C   0  0  0  0  0  0  0  0  0  0  0  0
   17.4378  -58.0980   31.0049 C   0  0  0  0  0  0  0  0  0  0  0  0
   16.9104  -57.8784   32.2129 C   0  0  0  0  0  0  0  0  0  0  0  0
   15.6324  -58.2500   32.6784 N   0  0  0  0  0  0  0  0  0  0  0  0
   15.4272  -57.3230   33.8104 C   0  0  0  0  0  0  0  0  0  0  0  0
   17.0257  -58.4146   35.1285 O   0  0  0  0  0  0  0  0  0  0  0  0
   14.8689  -57.9367   31.9931 H   0  0  0  0  0  0  0  0  0  0  0  0
   16.2211  -58.5547   35.6838 H   0  0  0  0  0  0  0  0  0  0  0  0
   17.5071  -52.3021   38.0705 Br  0  0  0  0  0  0  0  0  0  0  0  0
   17.2824  -53.8476   36.9530 C   0  0  0  0  0  0  0  0  0  0  0  0
   17.4706  -53.7282   35.5944 C   0  0  0  0  0  0  0  0  0  0  0  0
   17.3109  -54.8582   34.7930 C   0  0  0  0  0  0  0  0  0  0  0  0
   16.9717  -56.0916   35.3065 C   0  0  0  0  0  0  0  0  0  0  0  0
   16.7893  -56.1854   36.6732 C   0  0  0  0  0  0  0  0  0  0  0  0
   16.9444  -55.0748   37.4811 C   0  0  0  0  0  0  0  0  0  0  0  0
   15.4590  -59.5722   33.0735 C   0  0  0  0  0  0  0  0  0  0  0  0
   14.3090  -60.0493   33.6512 C   0  0  0  0  0  0  0  0  0  0  0  0
   14.2106  -61.3867   34.0419 C   0  0  0  0  0  0  0  0  0  0  0  0
   15.2577  -62.2524   33.8574 C   0  0  0  0  0  0  0  0  0  0  0  0
   16.4156  -61.7830   33.2762 C   0  0  0  0  0  0  0  0  0  0  0  0
   16.5056  -60.4681   32.8942 C   0  0  0  0  0  0  0  0  0  0  0  0
   13.2062  -59.2491   33.8726 O   0  0  0  0  0  0  0  0  0  0  0  0
   12.4206  -59.4007   35.0079 C   0  0  0  0  0  0  0  0  0  0  0  0
 13 14  1  0  0  0
 14 15  2  0  0  0
 14 19  1  0  0  0
 15 16  1  0  0  0
 16 17  2  0  0  0
 17 18  1  0  0  0
 17  1  1  0  0  0
 18 19  2  0  0  0
  1  2  1  0  0  0
  1  9  1  0  0  0
  1 10  1  0  0  0
  2  3  1  0  0  0
  2  7  1  0  0  0
  3  4  1  0  0  0
  4  5  1  0  0  0
  5  6  1  0  0  0
  6  7  2  0  0  0
  7  8  1  0  0  0
  8  9  1  0  0  0
  8 20  1  0  0  0
 20 21  2  0  0  0
 20 25  1  0  0  0
 21 22  1  0  0  0
 21 26  1  0  0  0
 22 23  2  0  0  0
 23 24  1  0  0  0
 24 25  2  0  0  0
 26 27  1  0  0  0
  8 11  1  0  0  0
 10 12  1  0  0  0
M  CHG 1   8   1
M  END
> <minimizedAffinity>
-8.34290

$$$$
836


 27 30  0  0  0  0  0  0  0  0999 V2000
   17.2529  -58.3577   33.8946 C   0  0  0  0  0  0  0  0  0  0  0  0
   15.9092  -57.8956   34.1394 N   0  0  0  0  0  0  0  0  0  0  0  0
   14.8002  -57.4290   33.3181 C   0  0  0  0  0  0  0  0  0  0  0  0
   13.4562  -57.7042   33.8705 C   0  0  0  0  0  0  0  0  0  0  0  0
   13.4225  -58.5265   35.1344 C   0  0  0  0  0  0  0  0  0  0  0  0
   14.5411  -58.2516   36.0315 C   0  0  0  0  0  0  0  0  0  0  0  0
   15.7314  -57.9493   35.5468 C   0  0  0  0  0  0  0  0  0  0  0  0
   16.9791  -57.6379   36.1586 N   0  0  0  0  0  0  0  0  0  0  0  0
   17.9580  -58.0154   35.1867 C   0  0  0  0  0  0  0  0  0  0  0  0
   17.1820  -59.7545   33.7153 O   0  0  0  0  0  0  0  0  0  0  0  0
   17.0546  -58.2487   37.0165 H   0  0  0  0  0  0  0  0  0  0  0  0
   16.3248  -59.9229   33.2528 H   0  0  0  0  0  0  0  0  0  0  0  0
   19.9350  -56.0114   28.8125 Br  0  0  0  0  0  0  0  0  0  0  0  0
   19.1123  -56.7240   30.3798 C   0  0  0  0  0  0  0  0  0  0  0  0
   18.3426  -57.8711   30.3387 C   0  0  0  0  0  0  0  0  0  0  0  0
   17.7572  -58.3735   31.4825 C   0  0  0  0  0  0  0  0  0  0  0  0
   17.8972  -57.7779   32.7182 C   0  0  0  0  0  0  0  0  0  0  0  0
   18.6723  -56.6249   32.7490 C   0  0  0  0  0  0  0  0  0  0  0  0
   19.2627  -56.1152   31.6070 C   0  0  0  0  0  0  0  0  0  0  0  0
   16.9829  -56.2991   36.5265 C   0  0  0  0  0  0  0  0  0  0  0  0
   16.3324  -55.8807   37.6636 C   0  0  0  0  0  0  0  0  0  0  0  0
   16.3369  -54.5258   38.0334 C   0  0  0  0  0  0  0  0  0  0  0  0
   16.9813  -53.5804   37.2858 C   0  0  0  0  0  0  0  0  0  0  0  0
   17.6462  -54.0119   36.1229 C   0  0  0  0  0  0  0  0  0  0  0  0
   17.6232  -55.3498   35.7868 C   0  0  0  0  0  0  0  0  0  0  0  0
   17.0266  -52.2218   37.5929 O   0  0  0  0  0  0  0  0  0  0  0  0
   18.1520  -51.4057   37.5647 C   0  0  0  0  0  0  0  0  0  0  0  0
 13 14  1  0  0  0
 14 15  2  0  0  0
 14 19  1  0  0  0
 15 16  1  0  0  0
 16 17  2  0  0  0
 17 18  1  0  0  0
 17  1  1  0  0  0
 18 19  2  0  0  0
  1  2  1  0  0  0
  1  9  1  0  0  0
  1 10  1  0  0  0
  2  3  1  0  0  0
  2  7  1  0  0  0
  3  4  1  0  0  0
  4  5  1  0  0  0
  5  6  1  0  0  0
  6  7  2  0  0  0
  7  8  1  0  0  0
  8  9  1  0  0  0
  8 20  1  0  0  0
 20 21  2  0  0  0
 20 25  1  0  0  0
 21 22  1  0  0  0
 22 23  2  0  0  0
 23 24  1  0  0  0
 23 26  1  0  0  0
 24 25  2  0  0  0
 26 27  1  0  0  0
  8 11  1  0  0  0
 10 12  1  0  0  0
M  CHG 1   8   1
M  END
> <minimizedAffinity>
-8.30966

$$$$
847


 31 34  0  0  0  0  0  0  0  0999 V2000
   14.1964  -58.0776   35.4074 C   0  0  0  0  0  0  0  0  0  0  0  0
   13.2610  -58.7016   36.1419 N   0  0  0  0  0  0  0  0  0  0  0  0
   13.5277  -58.4684   37.4404 C   0  0  0  0  0  0  0  0  0  0  0  0
   14.6529  -57.6825   37.5120 N   0  0  0  0  0  0  0  0  0  0  0  0
   15.0265  -57.4682   36.2625 N   0  0  0  0  0  0  0  0  0  0  0  0
   12.8621  -58.8796   38.6802 C   0  0  0  0  0  0  0  0  0  0  0  0
   12.2145  -60.2377   38.6339 C   0  0  0  0  0  0  0  0  0  0  0  0
   11.1299  -60.3517   37.6130 C   0  0  0  0  0  0  0  0  0  0  0  0
   11.7920  -60.6898   36.2973 C   0  0  0  0  0  0  0  0  0  0  0  0
   12.2071  -59.4516   35.5418 C   0  0  0  0  0  0  0  0  0  0  0  0
   14.3650  -58.0171   33.9197 C   0  0  0  0  0  0  0  0  0  0  0  0
   15.7346  -58.2435   33.5046 N   0  0  0  0  0  0  0  0  0  0  0  0
   16.0453  -59.1795   33.1629 H   0  0  0  0  0  0  0  0  0  0  0  0
   19.9752  -53.8651   33.6144 Br  0  0  0  0  0  0  0  0  0  0  0  0
   18.6508  -55.2279   33.5810 C   0  0  0  0  0  0  0  0  0  0  0  0
   18.8215  -56.3885   34.3290 C   0  0  0  0  0  0  0  0  0  0  0  0
   17.8679  -57.3706   34.3040 C   0  0  0  0  0  0  0  0  0  0  0  0
   16.7335  -57.2164   33.5373 C   0  0  0  0  0  0  0  0  0  0  0  0
   16.5803  -56.0601   32.8022 C   0  0  0  0  0  0  0  0  0  0  0  0
   17.5188  -55.0541   32.8049 C   0  0  0  0  0  0  0  0  0  0  0  0
   15.2848  -57.1435   38.6499 C   0  0  0  0  0  0  0  0  0  0  0  0
   15.2705  -55.7162   38.8333 C   0  0  0  0  0  0  0  0  0  0  0  0
   14.2312  -55.3058   39.5615 O   0  0  0  0  0  0  0  0  0  0  0  0
   16.1198  -54.6384   38.4117 C   0  0  0  0  0  0  0  0  0  0  0  0
   16.0003  -53.3602   38.9996 C   0  0  0  0  0  0  0  0  0  0  0  0
   16.7801  -52.2957   38.6319 C   0  0  0  0  0  0  0  0  0  0  0  0
   17.7334  -52.4269   37.6537 C   0  0  0  0  0  0  0  0  0  0  0  0
   17.8824  -53.6491   37.0579 C   0  0  0  0  0  0  0  0  0  0  0  0
   17.0739  -54.7339   37.4456 C   0  0  0  0  0  0  0  0  0  0  0  0
   18.5265  -51.3432   37.2809 O   0  0  0  0  0  0  0  0  0  0  0  0
   19.6822  -51.4885   36.4927 C   0  0  0  0  0  0  0  0  0  0  0  0
 14 15  1  0  0  0
 15 16  2  0  0  0
 15 20  1  0  0  0
 16 17  1  0  0  0
 17 18  2  0  0  0
 18 19  1  0  0  0
 18 12  1  0  0  0
 19 20  2  0  0  0
 12 11  1  0  0  0
 11  1  1  0  0  0
  1  2  1  0  0  0
  1  5  2  0  0  0
  2  3  1  0  0  0
  2 10  1  0  0  0
  3  4  2  0  0  0
  3  6  1  0  0  0
  4  5  1  0  0  0
  4 21  1  0  0  0
 21 22  1  0  0  0
 22 23  2  0  0  0
 22 24  1  0  0  0
 24 25  2  0  0  0
 24 29  1  0  0  0
 25 26  1  0  0  0
 26 27  2  0  0  0
 27 28  1  0  0  0
 27 30  1  0  0  0
 28 29  2  0  0  0
 30 31  1  0  0  0
  6  7  1  0  0  0
  7  8  1  0  0  0
  8  9  1  0  0  0
  9 10  1  0  0  0
 12 13  1  0  0  0
M  END
> <minimizedAffinity>
-9.94543

$$$$
850


 29 32  0  0  0  0  0  0  0  0999 V2000
   16.8521  -55.6424   34.6339 N   0  0  0  0  0  0  0  0  0  0  0  0
   16.7119  -56.7797   35.4937 C   0  0  0  0  0  0  0  0  0  0  0  0
   18.0443  -57.4775   35.2230 C   0  0  0  0  0  0  0  0  0  0  0  0
   18.2267  -57.2866   33.7756 N   0  0  0  0  0  0  0  0  0  0  0  0
   19.1213  -58.1070   33.0384 C   0  0  0  0  0  0  0  0  0  0  0  0
   19.1587  -57.8372   31.5641 C   0  0  0  0  0  0  0  0  0  0  0  0
   17.7541  -57.8080   31.0270 C   0  0  0  0  0  0  0  0  0  0  0  0
   17.4037  -56.3175   30.9076 C   0  0  0  0  0  0  0  0  0  0  0  0
   16.9823  -55.8270   32.2351 C   0  0  0  0  0  0  0  0  0  0  0  0
   17.3455  -56.2173   33.4356 C   0  0  0  0  0  0  0  0  0  0  0  0
   16.4279  -56.5499   36.8023 O   0  0  0  0  0  0  0  0  0  0  0  0
   15.8774  -55.2220   34.5185 H   0  0  0  0  0  0  0  0  0  0  0  0
   16.5414  -57.3338   37.3705 H   0  0  0  0  0  0  0  0  0  0  0  0
   20.4615  -50.9831   36.3140 Br  0  0  0  0  0  0  0  0  0  0  0  0
   19.3391  -52.4524   35.8082 C   0  0  0  0  0  0  0  0  0  0  0  0
   19.6396  -53.2435   34.7222 C   0  0  0  0  0  0  0  0  0  0  0  0
   18.8101  -54.2944   34.3592 C   0  0  0  0  0  0  0  0  0  0  0  0
   17.6469  -54.6006   35.0629 C   0  0  0  0  0  0  0  0  0  0  0  0
   17.3961  -53.7884   36.1289 C   0  0  0  0  0  0  0  0  0  0  0  0
   18.2102  -52.7272   36.5159 C   0  0  0  0  0  0  0  0  0  0  0  0
   15.6721  -57.7270   34.9986 C   0  0  0  0  0  0  0  0  0  0  0  0
   14.4812  -57.3644   34.4441 C   0  0  0  0  0  0  0  0  0  0  0  0
   13.5420  -58.3132   33.9879 C   0  0  0  0  0  0  0  0  0  0  0  0
   13.7969  -59.6597   34.0871 C   0  0  0  0  0  0  0  0  0  0  0  0
   14.9942  -60.0372   34.6452 C   0  0  0  0  0  0  0  0  0  0  0  0
   15.9073  -59.1085   35.0898 C   0  0  0  0  0  0  0  0  0  0  0  0
   12.8705  -60.6127   33.6320 O   0  0  0  0  0  0  0  0  0  0  0  0
   12.3226  -61.5794   34.4965 C   0  0  0  0  0  0  0  0  0  0  0  0
   11.4800  -60.9743   35.5748 C   0  0  0  0  0  0  0  0  0  0  0  0
 14 15  1  0  0  0
 15 16  2  0  0  0
 15 20  1  0  0  0
 16 17  1  0  0  0
 17 18  2  0  0  0
 18 19  1  0  0  0
 18  1  1  0  0  0
 19 20  2  0  0  0
  1  2  1  0  0  0
  1 10  1  0  0  0
  2  3  1  0  0  0
  2 11  1  0  0  0
  2 21  1  0  0  0
  3  4  1  0  0  0
  4  5  1  0  0  0
  4 10  1  0  0  0
  5  6  1  0  0  0
  6  7  1  0  0  0
  7  8  1  0  0  0
  8  9  1  0  0  0
  9 10  2  0  0  0
 21 22  2  0  0  0
 21 26  1  0  0  0
 22 23  1  0  0  0
 23 24  2  0  0  0
 24 25  1  0  0  0
 24 27  1  0  0  0
 25 26  2  0  0  0
 27 28  1  0  0  0
 28 29  1  0  0  0
  1 12  1  0  0  0
 11 13  1  0  0  0
M  CHG 1   1   1
M  END
> <minimizedAffinity>
-7.80538

$$$$
860


 29 32  0  0  0  0  0  0  0  0999 V2000
   19.2512  -54.2337   39.1960 Br  0  0  0  0  0  0  0  0  0  0  0  0
   18.4793  -54.3176   37.4451 C   0  0  0  0  0  0  0  0  0  0  0  0
   18.8453  -55.2937   36.5392 C   0  0  0  0  0  0  0  0  0  0  0  0
   18.2875  -55.3499   35.2816 C   0  0  0  0  0  0  0  0  0  0  0  0
   17.3506  -54.3859   34.9727 C   0  0  0  0  0  0  0  0  0  0  0  0
   16.9808  -53.4080   35.8739 C   0  0  0  0  0  0  0  0  0  0  0  0
   17.5417  -53.3556   37.1320 C   0  0  0  0  0  0  0  0  0  0  0  0
   17.1347  -52.2950   38.0976 C   0  0  0  0  0  0  0  0  0  0  0  0
   16.8008  -54.4637   33.6945 O   0  0  0  0  0  0  0  0  0  0  0  0
   17.3401  -55.2144   32.6588 C   0  0  0  0  0  0  0  0  0  0  0  0
   18.0341  -56.4699   33.0663 C   0  0  0  0  0  0  0  0  0  0  0  0
   18.7314  -56.4175   34.3796 C   0  0  0  0  0  0  0  0  0  0  0  0
   18.5736  -57.6361   35.0836 O   0  0  0  0  0  0  0  0  0  0  0  0
   18.1087  -57.5133   35.9368 H   0  0  0  0  0  0  0  0  0  0  0  0
   19.0683  -56.6917   32.0499 N   0  0  0  0  0  0  0  0  0  0  0  0
   19.3323  -55.5428   31.2539 C   0  0  0  0  0  0  0  0  0  0  0  0
   20.6575  -55.8201   30.5274 C   0  0  0  0  0  0  0  0  0  0  0  0
   20.4224  -56.8964   29.6891 O   0  0  0  0  0  0  0  0  0  0  0  0
   20.0444  -58.0494   30.3671 C   0  0  0  0  0  0  0  0  0  0  0  0
   18.7767  -57.8042   31.1984 C   0  0  0  0  0  0  0  0  0  0  0  0
   19.9345  -56.9239   32.5864 H   0  0  0  0  0  0  0  0  0  0  0  0
   17.1257  -57.6816   33.0217 C   0  0  0  0  0  0  0  0  0  0  0  0
   16.0559  -57.6388   33.9706 N   0  0  0  0  0  0  0  0  0  0  0  0
   14.8345  -57.0848   33.4155 C   0  0  0  0  0  0  0  0  0  0  0  0
   13.6138  -57.9035   33.8074 C   0  0  0  0  0  0  0  0  0  0  0  0
   13.6600  -59.1928   33.3034 O   0  0  0  0  0  0  0  0  0  0  0  0
   14.9641  -59.6771   33.2697 C   0  0  0  0  0  0  0  0  0  0  0  0
   15.7110  -59.0034   34.4026 C   0  0  0  0  0  0  0  0  0  0  0  0
   16.2540  -57.1192   34.8391 H   0  0  0  0  0  0  0  0  0  0  0  0
  1  2  1  0  0  0
  2  3  2  0  0  0
  2  7  1  0  0  0
  3  4  1  0  0  0
  4  5  2  0  0  0
  4 12  1  0  0  0
  5  6  1  0  0  0
  5  9  1  0  0  0
  6  7  2  0  0  0
  7  8  1  0  0  0
  9 10  1  0  0  0
 10 11  1  0  0  0
 11 12  1  0  0  0
 11 15  1  0  0  0
 11 22  1  0  0  0
 12 13  1  0  0  0
 15 16  1  0  0  0
 15 20  1  0  0  0
 16 17  1  0  0  0
 17 18  1  0  0  0
 18 19  1  0  0  0
 19 20  1  0  0  0
 22 23  1  0  0  0
 23 24  1  0  0  0
 23 28  1  0  0  0
 24 25  1  0  0  0
 25 26  1  0  0  0
 26 27  1  0  0  0
 27 28  1  0  0  0
 13 14  1  0  0  0
 15 21  1  0  0  0
 23 29  1  0  0  0
M  CHG 1  15   1
M  CHG 1  23   1
M  END
> <minimizedAffinity>
-7.67111

$$$$
861


 32 35  0  0  0  0  0  0  0  0999 V2000
   17.3724  -62.6717   32.3621 Br  0  0  0  0  0  0  0  0  0  0  0  0
   17.2074  -60.9633   31.5093 C   0  0  0  0  0  0  0  0  0  0  0  0
   17.3966  -59.8136   32.2385 C   0  0  0  0  0  0  0  0  0  0  0  0
   17.2849  -58.5418   31.6523 C   0  0  0  0  0  0  0  0  0  0  0  0
   16.9764  -58.5096   30.3100 C   0  0  0  0  0  0  0  0  0  0  0  0
   16.7809  -59.6467   29.5560 C   0  0  0  0  0  0  0  0  0  0  0  0
   16.8963  -60.8813   30.1529 C   0  0  0  0  0  0  0  0  0  0  0  0
   16.7051  -62.1632   29.4263 C   0  0  0  0  0  0  0  0  0  0  0  0
   16.3549  -59.5710   27.6978 Br  0  0  0  0  0  0  0  0  0  0  0  0
   17.4895  -57.3566   32.4590 C   0  0  0  0  0  0  0  0  0  0  0  0
   17.4960  -56.2392   31.9319 O   0  0  0  0  0  0  0  0  0  0  0  0
   17.6898  -57.4948   33.9124 C   0  0  0  0  0  0  0  0  0  0  0  0
   18.4258  -58.7969   34.1402 C   0  0  0  0  0  0  0  0  0  0  0  0
   17.7078  -59.8873   33.5928 O   0  0  0  0  0  0  0  0  0  0  0  0
   18.4099  -56.3368   34.5340 C   0  0  0  0  0  0  0  0  0  0  0  0
   18.0676  -55.0575   34.0440 N   0  0  0  0  0  0  0  0  0  0  0  0
   17.3547  -54.3232   35.0470 C   0  0  0  0  0  0  0  0  0  0  0  0
   18.1719  -53.8740   36.2048 C   0  0  0  0  0  0  0  0  0  0  0  0
   19.6377  -54.0396   36.0902 C   0  0  0  0  0  0  0  0  0  0  0  0
   20.1921  -54.1303   34.7222 C   0  0  0  0  0  0  0  0  0  0  0  0
   19.1683  -54.2317   33.6301 C   0  0  0  0  0  0  0  0  0  0  0  0
   17.7100  -54.6667   37.4331 C   0  0  0  0  0  0  0  0  0  0  0  0
   17.4281  -55.1494   33.2145 H   0  0  0  0  0  0  0  0  0  0  0  0
   16.3055  -57.6270   34.5131 C   0  0  0  0  0  0  0  0  0  0  0  0
   16.1498  -58.6801   35.4577 N   0  0  0  0  0  0  0  0  0  0  0  0
   14.8945  -59.3906   35.2218 C   0  0  0  0  0  0  0  0  0  0  0  0
   13.8110  -58.9790   36.1749 C   0  0  0  0  0  0  0  0  0  0  0  0
   13.8454  -57.4793   36.3639 C   0  0  0  0  0  0  0  0  0  0  0  0
   15.1168  -57.1375   37.0769 C   0  0  0  0  0  0  0  0  0  0  0  0
   16.1163  -58.2416   36.8360 C   0  0  0  0  0  0  0  0  0  0  0  0
   12.4721  -59.2968   35.4955 C   0  0  0  0  0  0  0  0  0  0  0  0
   16.8972  -59.3717   35.3552 H   0  0  0  0  0  0  0  0  0  0  0  0
  1  2  1  0  0  0
  2  3  2  0  0  0
  2  7  1  0  0  0
  3  4  1  0  0  0
  3 14  1  0  0  0
  4  5  2  0  0  0
  4 10  1  0  0  0
  5  6  1  0  0  0
  6  7  2  0  0  0
  6  9  1  0  0  0
  7  8  1  0  0  0
 10 11  2  0  0  0
 10 12  1  0  0  0
 12 13  1  0  0  0
 12 15  1  0  0  0
 12 24  1  0  0  0
 13 14  1  0  0  0
 15 16  1  0  0  0
 16 17  1  0  0  0
 16 21  1  0  0  0
 17 18  1  0  0  0
 18 19  1  0  0  0
 18 22  1  0  0  0
 19 20  1  0  0  0
 20 21  1  0  0  0
 24 25  1  0  0  0
 25 26  1  0  0  0
 25 30  1  0  0  0
 26 27  1  0  0  0
 27 28  1  0  0  0
 27 31  1  0  0  0
 28 29  1  0  0  0
 29 30  1  0  0  0
 16 23  1  0  0  0
 25 32  1  0  0  0
M  CHG 1  16   1
M  CHG 1  25   1
M  END
> <minimizedAffinity>
-7.68690

$$$$
862


 30 33  0  0  0  0  0  0  0  0999 V2000
   16.9651  -61.1300   32.8340 Br  0  0  0  0  0  0  0  0  0  0  0  0
   15.8684  -60.0311   33.9073 C   0  0  0  0  0  0  0  0  0  0  0  0
   16.4452  -58.9403   34.5103 C   0  0  0  0  0  0  0  0  0  0  0  0
   15.7310  -58.0500   35.3301 C   0  0  0  0  0  0  0  0  0  0  0  0
   14.3674  -58.2862   35.5442 C   0  0  0  0  0  0  0  0  0  0  0  0
   13.8028  -59.3837   34.9336 C   0  0  0  0  0  0  0  0  0  0  0  0
   14.5244  -60.2475   34.1299 C   0  0  0  0  0  0  0  0  0  0  0  0
   13.8792  -61.4381   33.4781 C   0  0  0  0  0  0  0  0  0  0  0  0
   11.9464  -59.7028   35.2244 Br  0  0  0  0  0  0  0  0  0  0  0  0
   16.3955  -56.9180   35.9470 C   0  0  0  0  0  0  0  0  0  0  0  0
   15.9538  -56.5537   37.0652 O   0  0  0  0  0  0  0  0  0  0  0  0
   17.5175  -56.3078   35.2085 C   0  0  0  0  0  0  0  0  0  0  0  0
   18.4459  -57.5919   35.0268 C   0  0  0  0  0  0  0  0  0  0  0  0
   17.7810  -58.6110   34.3705 O   0  0  0  0  0  0  0  0  0  0  0  0
   18.3299  -55.3408   35.9194 C   0  0  0  0  0  0  0  0  0  0  0  0
   17.9588  -54.4675   36.9294 N   0  0  0  0  0  0  0  0  0  0  0  0
   16.9957  -53.4523   36.7534 C   0  0  0  0  0  0  0  0  0  0  0  0
   17.2016  -52.2473   37.6620 C   0  0  0  0  0  0  0  0  0  0  0  0
   18.4651  -51.5156   37.3386 C   0  0  0  0  0  0  0  0  0  0  0  0
   19.4871  -52.5164   36.8944 C   0  0  0  0  0  0  0  0  0  0  0  0
   19.1748  -53.8458   37.4993 C   0  0  0  0  0  0  0  0  0  0  0  0
   17.6217  -55.0198   37.8247 H   0  0  0  0  0  0  0  0  0  0  0  0
   17.0709  -55.8993   33.8568 C   0  0  0  0  0  0  0  0  0  0  0  0
   17.8414  -56.1929   32.7221 N   0  0  0  0  0  0  0  0  0  0  0  0
   16.9456  -56.7146   31.6810 C   0  0  0  0  0  0  0  0  0  0  0  0
   17.7100  -57.3335   30.5291 C   0  0  0  0  0  0  0  0  0  0  0  0
   18.4786  -56.1745   29.8745 C   0  0  0  0  0  0  0  0  0  0  0  0
   19.3948  -55.6717   30.9663 C   0  0  0  0  0  0  0  0  0  0  0  0
   18.5104  -55.0764   32.0752 C   0  0  0  0  0  0  0  0  0  0  0  0
   18.5762  -56.9258   32.7976 H   0  0  0  0  0  0  0  0  0  0  0  0
  1  2  1  0  0  0
  2  3  2  0  0  0
  2  7  1  0  0  0
  3  4  1  0  0  0
  3 14  1  0  0  0
  4  5  2  0  0  0
  4 10  1  0  0  0
  5  6  1  0  0  0
  6  7  2  0  0  0
  6  9  1  0  0  0
  7  8  1  0  0  0
 10 11  2  0  0  0
 10 12  1  0  0  0
 12 13  1  0  0  0
 12 15  1  0  0  0
 12 23  1  0  0  0
 13 14  1  0  0  0
 15 16  1  0  0  0
 16 17  1  0  0  0
 16 21  1  0  0  0
 17 18  1  0  0  0
 18 19  1  0  0  0
 19 20  1  0  0  0
 20 21  1  0  0  0
 23 24  1  0  0  0
 24 25  1  0  0  0
 24 29  1  0  0  0
 25 26  1  0  0  0
 26 27  1  0  0  0
 27 28  1  0  0  0
 28 29  1  0  0  0
 16 22  1  0  0  0
 24 30  1  0  0  0
M  CHG 1  16   1
M  CHG 1  24   1
M  END
> <minimizedAffinity>
-8.68928

$$$$
865


 30 33  0  0  0  0  0  0  0  0999 V2000
   14.0876  -57.2073   38.5489 C   0  0  0  0  0  0  0  0  0  0  0  0
   14.6348  -57.6000   37.3776 N   0  0  0  0  0  0  0  0  0  0  0  0
   14.1738  -58.6616   36.6708 C   0  0  0  0  0  0  0  0  0  0  0  0
   13.1356  -59.3179   37.1926 N   0  0  0  0  0  0  0  0  0  0  0  0
   12.5414  -58.9847   38.3516 C   0  0  0  0  0  0  0  0  0  0  0  0
   13.0444  -57.9223   39.0047 N   0  0  0  0  0  0  0  0  0  0  0  0
   11.4381  -59.7319   38.8459 N   0  0  0  0  0  0  0  0  0  0  0  0
   11.5696  -60.4203   40.1156 C   0  0  0  0  0  0  0  0  0  0  0  0
   10.2945  -61.1769   40.4128 C   0  0  0  0  0  0  0  0  0  0  0  0
    9.1538  -60.4397   40.2687 O   0  0  0  0  0  0  0  0  0  0  0  0
    9.0915  -59.6043   39.1861 C   0  0  0  0  0  0  0  0  0  0  0  0
   10.1853  -59.8533   38.1614 C   0  0  0  0  0  0  0  0  0  0  0  0
   14.7879  -59.0312   35.4416 N   0  0  0  0  0  0  0  0  0  0  0  0
   16.0354  -58.4836   34.9617 C   0  0  0  0  0  0  0  0  0  0  0  0
   15.6958  -57.9653   33.5654 C   0  0  0  0  0  0  0  0  0  0  0  0
   15.4261  -59.0112   32.7626 O   0  0  0  0  0  0  0  0  0  0  0  0
   14.6149  -59.9917   33.1790 C   0  0  0  0  0  0  0  0  0  0  0  0
   14.1628  -60.0117   34.5851 C   0  0  0  0  0  0  0  0  0  0  0  0
   14.6194  -56.0901   39.2330 N   0  0  0  0  0  0  0  0  0  0  0  0
   14.2156  -55.8156   40.1437 H   0  0  0  0  0  0  0  0  0  0  0  0
   15.6243  -54.0994   38.4642 C   0  0  0  0  0  0  0  0  0  0  0  0
   15.6713  -55.3629   38.6936 N   0  0  0  0  0  0  0  0  0  0  0  0
   20.0482  -51.3641   36.2882 F   0  0  0  0  0  0  0  0  0  0  0  0
   18.9844  -52.0382   36.8061 C   0  0  0  0  0  0  0  0  0  0  0  0
   18.7282  -53.3535   36.4784 C   0  0  0  0  0  0  0  0  0  0  0  0
   17.6442  -54.0173   37.0141 C   0  0  0  0  0  0  0  0  0  0  0  0
   16.7706  -53.4026   37.8956 C   0  0  0  0  0  0  0  0  0  0  0  0
   17.0347  -52.0881   38.2173 C   0  0  0  0  0  0  0  0  0  0  0  0
   18.1239  -51.4159   37.6802 C   0  0  0  0  0  0  0  0  0  0  0  0
   19.9171  -54.2263   35.2648 Br  0  0  0  0  0  0  0  0  0  0  0  0
 23 24  1  0  0  0
 24 25  2  0  0  0
 24 29  1  0  0  0
 25 26  1  0  0  0
 25 30  1  0  0  0
 26 27  2  0  0  0
 27 28  1  0  0  0
 27 21  1  0  0  0
 28 29  2  0  0  0
 21 22  2  0  0  0
 22 19  1  0  0  0
 19  1  1  0  0  0
  1  2  2  0  0  0
  1  6  1  0  0  0
  2  3  1  0  0  0
  3  4  2  0  0  0
  3 13  1  0  0  0
  4  5  1  0  0  0
  5  6  2  0  0  0
  5  7  1  0  0  0
  7  8  1  0  0  0
  7 12  1  0  0  0
  8  9  1  0  0  0
  9 10  1  0  0  0
 10 11  1  0  0  0
 11 12  1  0  0  0
 13 14  1  0  0  0
 13 18  1  0  0  0
 14 15  1  0  0  0
 15 16  1  0  0  0
 16 17  1  0  0  0
 17 18  1  0  0  0
 19 20  1  0  0  0
M  END
> <minimizedAffinity>
-9.49925

$$$$
872


 32 35  0  0  0  0  0  0  0  0999 V2000
   14.2119  -57.7931   37.5299 N   0  0  0  0  0  0  0  0  0  0  0  0
   12.9491  -58.1796   37.5581 N   0  0  0  0  0  0  0  0  0  0  0  0
   12.6388  -58.4944   36.3127 N   0  0  0  0  0  0  0  0  0  0  0  0
   13.6908  -58.3117   35.4886 C   0  0  0  0  0  0  0  0  0  0  0  0
   14.6849  -57.8658   36.2742 C   0  0  0  0  0  0  0  0  0  0  0  0
   15.7476  -57.6845   35.4202 C   0  0  0  0  0  0  0  0  0  0  0  0
   16.8845  -57.2691   35.7707 O   0  0  0  0  0  0  0  0  0  0  0  0
   15.4298  -58.0045   34.1495 N   0  0  0  0  0  0  0  0  0  0  0  0
   14.1460  -58.3975   34.1846 C   0  0  0  0  0  0  0  0  0  0  0  0
   13.4763  -58.7799   33.1895 O   0  0  0  0  0  0  0  0  0  0  0  0
   12.3045  -58.2331   38.3986 H   0  0  0  0  0  0  0  0  0  0  0  0
   11.6815  -58.8392   36.0381 H   0  0  0  0  0  0  0  0  0  0  0  0
   16.3153  -57.9267   33.0187 C   0  0  0  0  0  0  0  0  0  0  0  0
   16.6386  -56.7063   32.4585 C   0  0  0  0  0  0  0  0  0  0  0  0
   17.4827  -56.5839   31.3743 C   0  0  0  0  0  0  0  0  0  0  0  0
   18.0090  -57.7489   30.8510 C   0  0  0  0  0  0  0  0  0  0  0  0
   17.7207  -58.9999   31.3710 C   0  0  0  0  0  0  0  0  0  0  0  0
   16.8686  -59.0518   32.4556 C   0  0  0  0  0  0  0  0  0  0  0  0
   19.1818  -57.5540   29.3417 Br  0  0  0  0  0  0  0  0  0  0  0  0
   14.9390  -57.3673   38.7058 C   0  0  0  0  0  0  0  0  0  0  0  0
   16.5742  -55.5389   38.1753 N   0  0  0  0  0  0  0  0  0  0  0  0
   15.2875  -55.8991   38.5660 C   0  0  0  0  0  0  0  0  0  0  0  0
   14.3877  -55.0902   38.8144 O   0  0  0  0  0  0  0  0  0  0  0  0
   17.2527  -56.3551   37.9911 H   0  0  0  0  0  0  0  0  0  0  0  0
   18.6200  -55.0639   36.4736 F   0  0  0  0  0  0  0  0  0  0  0  0
   18.0937  -53.9886   37.1227 C   0  0  0  0  0  0  0  0  0  0  0  0
   17.0295  -54.2217   38.0093 C   0  0  0  0  0  0  0  0  0  0  0  0
   16.5001  -53.1506   38.6592 C   0  0  0  0  0  0  0  0  0  0  0  0
   16.9718  -51.8326   38.4801 C   0  0  0  0  0  0  0  0  0  0  0  0
   18.0153  -51.6463   37.6030 C   0  0  0  0  0  0  0  0  0  0  0  0
   18.5683  -52.7166   36.9316 C   0  0  0  0  0  0  0  0  0  0  0  0
   18.5132  -50.4068   37.3866 F   0  0  0  0  0  0  0  0  0  0  0  0
 25 26  1  0  0  0
 26 27  2  0  0  0
 26 31  1  0  0  0
 27 28  1  0  0  0
 27 21  1  0  0  0
 28 29  2  0  0  0
 29 30  1  0  0  0
 30 31  2  0  0  0
 30 32  1  0  0  0
 21 22  1  0  0  0
 22 23  2  0  0  0
 22 20  1  0  0  0
 20  1  1  0  0  0
  1  2  1  0  0  0
  1  5  1  0  0  0
  2  3  1  0  0  0
  3  4  1  0  0  0
  4  5  2  0  0  0
  4  9  1  0  0  0
  5  6  1  0  0  0
  6  7  2  0  0  0
  6  8  1  0  0  0
  8  9  1  0  0  0
  8 13  1  0  0  0
  9 10  2  0  0  0
 13 14  2  0  0  0
 13 18  1  0  0  0
 14 15  1  0  0  0
 15 16  2  0  0  0
 16 17  1  0  0  0
 16 19  1  0  0  0
 17 18  2  0  0  0
 21 24  1  0  0  0
  2 11  1  0  0  0
  3 12  1  0  0  0
M  END
> <minimizedAffinity>
-10.34953

$$$$
873


 32 35  0  0  0  0  0  0  0  0999 V2000
   16.7734  -55.7388   34.5112 C   0  0  0  0  0  0  0  0  0  0  0  0
   16.0716  -56.9541   34.8932 N   0  0  0  0  0  0  0  0  0  0  0  0
   17.1661  -57.8831   35.0413 C   0  0  0  0  0  0  0  0  0  0  0  0
   17.2613  -58.8676   35.8208 O   0  0  0  0  0  0  0  0  0  0  0  0
   18.2460  -57.5015   34.0878 C   0  0  0  0  0  0  0  0  0  0  0  0
   19.3514  -57.9858   33.8513 O   0  0  0  0  0  0  0  0  0  0  0  0
   17.6556  -56.3051   33.4190 C   0  0  0  0  0  0  0  0  0  0  0  0
   17.8844  -55.8914   32.1967 C   0  0  0  0  0  0  0  0  0  0  0  0
   17.2414  -54.7255   31.7338 O   0  0  0  0  0  0  0  0  0  0  0  0
   16.0601  -55.4388   37.2907 F   0  0  0  0  0  0  0  0  0  0  0  0
   17.2521  -55.0427   36.8717 C   0  0  0  0  0  0  0  0  0  0  0  0
   17.6454  -55.1777   35.5560 C   0  0  0  0  0  0  0  0  0  0  0  0
   18.9090  -54.7206   35.2750 C   0  0  0  0  0  0  0  0  0  0  0  0
   19.7664  -54.1585   36.2079 C   0  0  0  0  0  0  0  0  0  0  0  0
   19.3413  -54.0421   37.5002 C   0  0  0  0  0  0  0  0  0  0  0  0
   18.0993  -54.4774   37.8290 C   0  0  0  0  0  0  0  0  0  0  0  0
   18.7822  -56.6026   31.2987 C   0  0  0  0  0  0  0  0  0  0  0  0
   20.0293  -56.0750   31.0447 C   0  0  0  0  0  0  0  0  0  0  0  0
   20.9226  -56.6847   30.1796 C   0  0  0  0  0  0  0  0  0  0  0  0
   20.5709  -57.8566   29.5455 C   0  0  0  0  0  0  0  0  0  0  0  0
   19.3434  -58.3955   29.7814 C   0  0  0  0  0  0  0  0  0  0  0  0
   18.4448  -57.7671   30.6613 C   0  0  0  0  0  0  0  0  0  0  0  0
   21.7942  -58.7280   28.3360 Br  0  0  0  0  0  0  0  0  0  0  0  0
   14.7287  -57.2905   35.0996 C   0  0  0  0  0  0  0  0  0  0  0  0
   13.8308  -57.5583   33.9455 C   0  0  0  0  0  0  0  0  0  0  0  0
   13.2833  -58.8850   33.9195 N   0  0  0  0  0  0  0  0  0  0  0  0
   12.6427  -59.1524   35.1907 C   0  0  0  0  0  0  0  0  0  0  0  0
   11.9454  -60.5007   35.1680 C   0  0  0  0  0  0  0  0  0  0  0  0
   12.8773  -61.4858   34.9027 O   0  0  0  0  0  0  0  0  0  0  0  0
   13.5352  -61.2269   33.7037 C   0  0  0  0  0  0  0  0  0  0  0  0
   14.3324  -59.9196   33.8135 C   0  0  0  0  0  0  0  0  0  0  0  0
   12.6759  -59.0805   33.0975 H   0  0  0  0  0  0  0  0  0  0  0  0
 10 11  1  0  0  0
 11 12  2  0  0  0
 11 16  1  0  0  0
 12 13  1  0  0  0
 12  1  1  0  0  0
 13 14  2  0  0  0
 14 15  1  0  0  0
 15 16  2  0  0  0
  1  2  1  0  0  0
  1  7  1  0  0  0
  2  3  1  0  0  0
  2 24  1  0  0  0
  3  4  2  0  0  0
  3  5  1  0  0  0
  5  6  2  0  0  0
  5  7  1  0  0  0
  7  8  2  0  0  0
  8  9  1  0  0  0
  8 17  1  0  0  0
 17 18  2  0  0  0
 17 22  1  0  0  0
 18 19  1  0  0  0
 19 20  2  0  0  0
 20 21  1  0  0  0
 20 23  1  0  0  0
 21 22  2  0  0  0
 24 25  1  0  0  0
 25 26  1  0  0  0
 26 27  1  0  0  0
 26 31  1  0  0  0
 27 28  1  0  0  0
 28 29  1  0  0  0
 29 30  1  0  0  0
 30 31  1  0  0  0
 26 32  1  0  0  0
M  CHG 1   9  -1
M  CHG 1  26   1
M  END
> <minimizedAffinity>
-8.52677

$$$$
874


 31 34  0  0  0  0  0  0  0  0999 V2000
   14.3122  -57.7021   37.5672 N   0  0  0  0  0  0  0  0  0  0  0  0
   13.0635  -58.1142   37.5382 N   0  0  0  0  0  0  0  0  0  0  0  0
   12.7098  -58.4242   36.2995 N   0  0  0  0  0  0  0  0  0  0  0  0
   13.7712  -58.2036   35.4932 C   0  0  0  0  0  0  0  0  0  0  0  0
   14.7358  -57.7659   36.2762 C   0  0  0  0  0  0  0  0  0  0  0  0
   15.8259  -57.5382   35.4511 C   0  0  0  0  0  0  0  0  0  0  0  0
   16.9325  -57.1148   35.8489 O   0  0  0  0  0  0  0  0  0  0  0  0
   15.5316  -57.8352   34.1726 N   0  0  0  0  0  0  0  0  0  0  0  0
   14.2517  -58.2499   34.1977 C   0  0  0  0  0  0  0  0  0  0  0  0
   13.5853  -58.6229   33.2075 O   0  0  0  0  0  0  0  0  0  0  0  0
   12.4572  -58.1787   38.3964 H   0  0  0  0  0  0  0  0  0  0  0  0
   11.7709  -58.7792   35.9946 H   0  0  0  0  0  0  0  0  0  0  0  0
   16.4046  -57.7264   33.0483 C   0  0  0  0  0  0  0  0  0  0  0  0
   16.7291  -56.4960   32.5113 C   0  0  0  0  0  0  0  0  0  0  0  0
   17.5723  -56.3728   31.4247 C   0  0  0  0  0  0  0  0  0  0  0  0
   18.1279  -57.4844   30.8262 C   0  0  0  0  0  0  0  0  0  0  0  0
   17.8172  -58.7236   31.3455 C   0  0  0  0  0  0  0  0  0  0  0  0
   16.9721  -58.8250   32.4326 C   0  0  0  0  0  0  0  0  0  0  0  0
   19.2987  -57.3440   29.3204 Br  0  0  0  0  0  0  0  0  0  0  0  0
   15.0990  -57.2658   38.7057 C   0  0  0  0  0  0  0  0  0  0  0  0
   16.6626  -55.3687   38.1863 N   0  0  0  0  0  0  0  0  0  0  0  0
   15.4028  -55.8129   38.5758 C   0  0  0  0  0  0  0  0  0  0  0  0
   14.4709  -55.0338   38.8341 O   0  0  0  0  0  0  0  0  0  0  0  0
   17.3840  -56.1390   37.9905 H   0  0  0  0  0  0  0  0  0  0  0  0
   18.9053  -54.8307   36.6924 F   0  0  0  0  0  0  0  0  0  0  0  0
   18.2532  -53.7701   37.2507 C   0  0  0  0  0  0  0  0  0  0  0  0
   17.1048  -54.0259   38.0168 C   0  0  0  0  0  0  0  0  0  0  0  0
   16.4845  -52.9283   38.5568 C   0  0  0  0  0  0  0  0  0  0  0  0
   16.9822  -51.6532   38.3439 C   0  0  0  0  0  0  0  0  0  0  0  0
   18.0982  -51.4097   37.5982 C   0  0  0  0  0  0  0  0  0  0  0  0
   18.7316  -52.5004   37.0497 C   0  0  0  0  0  0  0  0  0  0  0  0
 25 26  1  0  0  0
 26 27  2  0  0  0
 26 31  1  0  0  0
 27 28  1  0  0  0
 27 21  1  0  0  0
 28 29  2  0  0  0
 29 30  1  0  0  0
 30 31  2  0  0  0
 21 22  1  0  0  0
 22 23  2  0  0  0
 22 20  1  0  0  0
 20  1  1  0  0  0
  1  2  1  0  0  0
  1  5  1  0  0  0
  2  3  1  0  0  0
  3  4  1  0  0  0
  4  5  2  0  0  0
  4  9  1  0  0  0
  5  6  1  0  0  0
  6  7  2  0  0  0
  6  8  1  0  0  0
  8  9  1  0  0  0
  8 13  1  0  0  0
  9 10  2  0  0  0
 13 14  2  0  0  0
 13 18  1  0  0  0
 14 15  1  0  0  0
 15 16  2  0  0  0
 16 17  1  0  0  0
 16 19  1  0  0  0
 17 18  2  0  0  0
 21 24  1  0  0  0
  2 11  1  0  0  0
  3 12  1  0  0  0
M  END
> <minimizedAffinity>
-10.13130

$$$$
886


 31 34  0  0  0  0  0  0  0  0999 V2000
   19.0709  -54.4604   34.6933 N   0  0  0  0  0  0  0  0  0  0  0  0
   18.8233  -55.5959   34.0188 C   0  0  0  0  0  0  0  0  0  0  0  0
   18.2190  -56.5632   34.5569 O   0  0  0  0  0  0  0  0  0  0  0  0
   19.3018  -55.5488   32.7230 C   0  0  0  0  0  0  0  0  0  0  0  0
   19.8579  -54.3458   32.6092 C   0  0  0  0  0  0  0  0  0  0  0  0
   20.3394  -54.2574   31.3660 N   0  0  0  0  0  0  0  0  0  0  0  0
   20.0805  -55.3883   30.7364 N   0  0  0  0  0  0  0  0  0  0  0  0
   19.4349  -56.2175   31.5507 N   0  0  0  0  0  0  0  0  0  0  0  0
   19.7241  -53.6705   33.8036 C   0  0  0  0  0  0  0  0  0  0  0  0
   20.1141  -52.5072   34.1074 O   0  0  0  0  0  0  0  0  0  0  0  0
   20.8379  -53.4048   30.9891 H   0  0  0  0  0  0  0  0  0  0  0  0
   20.3307  -55.6145   29.7636 H   0  0  0  0  0  0  0  0  0  0  0  0
   17.6045  -53.1673   39.9435 F   0  0  0  0  0  0  0  0  0  0  0  0
   17.9669  -53.4813   38.6640 C   0  0  0  0  0  0  0  0  0  0  0  0
   19.2345  -53.9195   38.4047 C   0  0  0  0  0  0  0  0  0  0  0  0
   19.6147  -54.2446   37.1003 C   0  0  0  0  0  0  0  0  0  0  0  0
   18.7405  -54.1364   36.0425 C   0  0  0  0  0  0  0  0  0  0  0  0
   17.4625  -53.6887   36.3397 C   0  0  0  0  0  0  0  0  0  0  0  0
   17.0770  -53.3657   37.6212 C   0  0  0  0  0  0  0  0  0  0  0  0
   18.9529  -57.5446   31.2989 C   0  0  0  0  0  0  0  0  0  0  0  0
   17.5570  -57.7940   31.6739 C   0  0  0  0  0  0  0  0  0  0  0  0
   16.6749  -57.2810   30.9687 O   0  0  0  0  0  0  0  0  0  0  0  0
   17.2472  -58.5839   32.7849 N   0  0  0  0  0  0  0  0  0  0  0  0
   18.0700  -59.0015   33.3534 H   0  0  0  0  0  0  0  0  0  0  0  0
   15.9800  -58.9375   33.3042 C   0  0  0  0  0  0  0  0  0  0  0  0
   15.1080  -57.9996   33.8032 C   0  0  0  0  0  0  0  0  0  0  0  0
   13.8490  -58.3110   34.3255 C   0  0  0  0  0  0  0  0  0  0  0  0
   13.4968  -59.6369   34.3237 C   0  0  0  0  0  0  0  0  0  0  0  0
   14.3487  -60.5938   33.8309 C   0  0  0  0  0  0  0  0  0  0  0  0
   15.5784  -60.2619   33.3245 C   0  0  0  0  0  0  0  0  0  0  0  0
   11.7736  -60.1389   35.0276 Br  0  0  0  0  0  0  0  0  0  0  0  0
 13 14  1  0  0  0
 14 15  2  0  0  0
 14 19  1  0  0  0
 15 16  1  0  0  0
 16 17  2  0  0  0
 17 18  1  0  0  0
 17  1  1  0  0  0
 18 19  2  0  0  0
  1  2  1  0  0  0
  1  9  1  0  0  0
  2  3  2  0  0  0
  2  4  1  0  0  0
  4  5  2  0  0  0
  4  8  1  0  0  0
  5  6  1  0  0  0
  5  9  1  0  0  0
  6  7  1  0  0  0
  7  8  1  0  0  0
  8 20  1  0  0  0
 20 21  1  0  0  0
 21 22  2  0  0  0
 21 23  1  0  0  0
 23 25  1  0  0  0
 25 26  2  0  0  0
 25 30  1  0  0  0
 26 27  1  0  0  0
 27 28  2  0  0  0
 28 29  1  0  0  0
 28 31  1  0  0  0
 29 30  2  0  0  0
  9 10  2  0  0  0
  6 11  1  0  0  0
  7 12  1  0  0  0
 23 24  1  0  0  0
M  END
> <minimizedAffinity>
-9.70600

$$$$
892


 27 30  0  0  0  0  0  0  0  0999 V2000
   16.8387  -56.1720   33.3358 C   0  0  0  0  0  0  0  0  0  0  0  0
   15.4429  -56.4374   33.0695 N   0  0  0  0  0  0  0  0  0  0  0  0
   14.8683  -57.6802   33.4870 C   0  0  0  0  0  0  0  0  0  0  0  0
   13.2454  -58.1716   33.8713 S   0  0  0  0  0  0  0  0  0  0  0  0
   13.5322  -59.8033   34.2521 C   0  0  0  0  0  0  0  0  0  0  0  0
   14.8667  -59.9239   34.0748 C   0  0  0  0  0  0  0  0  0  0  0  0
   15.5588  -58.8412   33.6829 C   0  0  0  0  0  0  0  0  0  0  0  0
   17.0122  -58.6600   33.4053 C   0  0  0  0  0  0  0  0  0  0  0  0
   17.8184  -59.6127   33.5239 O   0  0  0  0  0  0  0  0  0  0  0  0
   17.5242  -57.4082   32.9983 N   0  0  0  0  0  0  0  0  0  0  0  0
   15.4158  -61.3186   34.3508 C   0  0  0  0  0  0  0  0  0  0  0  0
   14.2957  -62.2977   34.2138 C   0  0  0  0  0  0  0  0  0  0  0  0
   13.3261  -61.9381   35.2606 N   0  0  0  0  0  0  0  0  0  0  0  0
   12.5727  -60.8494   34.6747 C   0  0  0  0  0  0  0  0  0  0  0  0
   12.4916  -63.0624   35.6120 C   0  0  0  0  0  0  0  0  0  0  0  0
   14.8161  -55.7623   32.5783 H   0  0  0  0  0  0  0  0  0  0  0  0
   18.4144  -57.3447   32.4417 H   0  0  0  0  0  0  0  0  0  0  0  0
   13.8442  -61.5539   36.0787 H   0  0  0  0  0  0  0  0  0  0  0  0
   19.1820  -53.3039   37.4894 I   0  0  0  0  0  0  0  0  0  0  0  0
   17.8655  -54.7510   36.7167 C   0  0  0  0  0  0  0  0  0  0  0  0
   17.7928  -54.9622   35.3390 C   0  0  0  0  0  0  0  0  0  0  0  0
   16.9470  -55.8976   34.7926 C   0  0  0  0  0  0  0  0  0  0  0  0
   16.1644  -56.6232   35.7021 C   0  0  0  0  0  0  0  0  0  0  0  0
   16.2416  -56.4086   37.0536 C   0  0  0  0  0  0  0  0  0  0  0  0
   17.0953  -55.4676   37.5795 C   0  0  0  0  0  0  0  0  0  0  0  0
   15.1620  -57.4137   38.2573 Br  0  0  0  0  0  0  0  0  0  0  0  0
   18.5928  -54.2082   34.5094 O   0  0  0  0  0  0  0  0  0  0  0  0
 19 20  1  0  0  0
 20 21  2  0  0  0
 20 25  1  0  0  0
 21 22  1  0  0  0
 21 27  1  0  0  0
 22 23  2  0  0  0
 22  1  1  0  0  0
 23 24  1  0  0  0
 24 25  2  0  0  0
 24 26  1  0  0  0
  1  2  1  0  0  0
  1 10  1  0  0  0
  2  3  1  0  0  0
  3  4  1  0  0  0
  3  7  2  0  0  0
  4  5  1  0  0  0
  5  6  2  0  0  0
  5 14  1  0  0  0
  6  7  1  0  0  0
  6 11  1  0  0  0
  7  8  1  0  0  0
  8  9  2  0  0  0
  8 10  1  0  0  0
 11 12  1  0  0  0
 12 13  1  0  0  0
 13 14  1  0  0  0
 13 15  1  0  0  0
  2 16  1  0  0  0
 10 17  1  0  0  0
 13 18  1  0  0  0
M  CHG 1  13   1
M  CHG 1  27  -1
M  END
> <minimizedAffinity>
-7.91443

$$$$
895


 28 31  0  0  0  0  0  0  0  0999 V2000
   17.4397  -55.1831   32.5016 C   0  0  0  0  0  0  0  0  0  0  0  0
   16.9829  -56.4436   31.9160 N   0  0  0  0  0  0  0  0  0  0  0  0
   17.6853  -57.0449   30.7996 C   0  0  0  0  0  0  0  0  0  0  0  0
   17.2728  -58.3005   29.7007 S   0  0  0  0  0  0  0  0  0  0  0  0
   18.6860  -58.3104   28.7635 C   0  0  0  0  0  0  0  0  0  0  0  0
   19.4530  -57.3291   29.3317 C   0  0  0  0  0  0  0  0  0  0  0  0
   18.9263  -56.6759   30.3901 C   0  0  0  0  0  0  0  0  0  0  0  0
   19.5537  -55.5764   31.1783 C   0  0  0  0  0  0  0  0  0  0  0  0
   20.7102  -55.1369   30.8998 O   0  0  0  0  0  0  0  0  0  0  0  0
   18.8457  -55.0129   32.2579 N   0  0  0  0  0  0  0  0  0  0  0  0
   20.7934  -57.1751   28.6214 C   0  0  0  0  0  0  0  0  0  0  0  0
   21.4420  -58.5273   28.4859 C   0  0  0  0  0  0  0  0  0  0  0  0
   20.5560  -59.5575   28.0581 N   0  0  0  0  0  0  0  0  0  0  0  0
   19.2788  -59.0375   27.5817 C   0  0  0  0  0  0  0  0  0  0  0  0
   20.2285  -60.3673   29.2420 C   0  0  0  0  0  0  0  0  0  0  0  0
   16.1501  -56.9440   32.2768 H   0  0  0  0  0  0  0  0  0  0  0  0
   19.3701  -54.4171   32.9504 H   0  0  0  0  0  0  0  0  0  0  0  0
   20.9684  -60.1980   27.3302 H   0  0  0  0  0  0  0  0  0  0  0  0
   15.7645  -58.2182   36.8444 I   0  0  0  0  0  0  0  0  0  0  0  0
   16.5890  -56.4999   35.9409 C   0  0  0  0  0  0  0  0  0  0  0  0
   16.9912  -55.4399   36.7281 C   0  0  0  0  0  0  0  0  0  0  0  0
   17.5374  -54.2977   36.1449 C   0  0  0  0  0  0  0  0  0  0  0  0
   17.6546  -54.2771   34.7878 C   0  0  0  0  0  0  0  0  0  0  0  0
   17.2587  -55.3293   33.9720 C   0  0  0  0  0  0  0  0  0  0  0  0
   16.7249  -56.4412   34.5629 C   0  0  0  0  0  0  0  0  0  0  0  0
   16.8556  -55.4987   38.1025 O   0  0  0  0  0  0  0  0  0  0  0  0
   17.9237  -53.2630   36.9862 O   0  0  0  0  0  0  0  0  0  0  0  0
   19.3031  -53.0837   37.2471 C   0  0  0  0  0  0  0  0  0  0  0  0
 19 20  1  0  0  0
 20 21  2  0  0  0
 20 25  1  0  0  0
 21 22  1  0  0  0
 21 26  1  0  0  0
 22 23  2  0  0  0
 22 27  1  0  0  0
 23 24  1  0  0  0
 24 25  2  0  0  0
 24  1  1  0  0  0
  1  2  1  0  0  0
  1 10  1  0  0  0
  2  3  1  0  0  0
  3  4  1  0  0  0
  3  7  2  0  0  0
  4  5  1  0  0  0
  5  6  2  0  0  0
  5 14  1  0  0  0
  6  7  1  0  0  0
  6 11  1  0  0  0
  7  8  1  0  0  0
  8  9  2  0  0  0
  8 10  1  0  0  0
 11 12  1  0  0  0
 12 13  1  0  0  0
 13 14  1  0  0  0
 13 15  1  0  0  0
 27 28  1  0  0  0
  2 16  1  0  0  0
 10 17  1  0  0  0
 13 18  1  0  0  0
M  CHG 1  13   1
M  CHG 1  26  -1
M  END
> <minimizedAffinity>
-7.78036

$$$$
906


 27 30  0  0  0  0  0  0  0  0999 V2000
   17.3939  -55.8634   35.7289 C   0  0  0  0  0  0  0  0  0  0  0  0
   17.6618  -55.6144   34.4524 N   0  0  0  0  0  0  0  0  0  0  0  0
   17.1940  -56.3092   33.4019 C   0  0  0  0  0  0  0  0  0  0  0  0
   17.2930  -56.2893   32.0671 N   0  0  0  0  0  0  0  0  0  0  0  0
   16.5890  -57.2515   31.5448 O   0  0  0  0  0  0  0  0  0  0  0  0
   16.0101  -57.9313   32.4932 N   0  0  0  0  0  0  0  0  0  0  0  0
   16.3491  -57.3909   33.6734 C   0  0  0  0  0  0  0  0  0  0  0  0
   16.0491  -57.6855   34.9253 N   0  0  0  0  0  0  0  0  0  0  0  0
   16.5398  -56.9645   35.9366 C   0  0  0  0  0  0  0  0  0  0  0  0
   16.0613  -57.5005   37.0477 N   0  0  0  0  0  0  0  0  0  0  0  0
   15.2773  -58.5473   36.7361 N   0  0  0  0  0  0  0  0  0  0  0  0
   15.2543  -58.6852   35.4025 C   0  0  0  0  0  0  0  0  0  0  0  0
   17.8793  -55.1423   36.8389 N   0  0  0  0  0  0  0  0  0  0  0  0
   17.9872  -55.6797   37.7704 H   0  0  0  0  0  0  0  0  0  0  0  0
   15.8695  -53.6665   38.8238 I   0  0  0  0  0  0  0  0  0  0  0  0
   17.5013  -52.9100   37.7173 C   0  0  0  0  0  0  0  0  0  0  0  0
   18.2517  -53.7842   36.8998 C   0  0  0  0  0  0  0  0  0  0  0  0
   19.3125  -53.3146   36.1793 C   0  0  0  0  0  0  0  0  0  0  0  0
   19.6161  -51.9546   36.2821 C   0  0  0  0  0  0  0  0  0  0  0  0
   18.9089  -51.0859   37.0650 C   0  0  0  0  0  0  0  0  0  0  0  0
   17.8303  -51.5794   37.7956 C   0  0  0  0  0  0  0  0  0  0  0  0
   14.5330  -59.6835   34.5689 C   0  0  0  0  0  0  0  0  0  0  0  0
   13.1514  -59.2693   34.2267 C   0  0  0  0  0  0  0  0  0  0  0  0
   12.8644  -58.1266   33.8129 O   0  0  0  0  0  0  0  0  0  0  0  0
   12.1395  -60.1772   34.3726 O   0  0  0  0  0  0  0  0  0  0  0  0
   11.7606  -60.7687   35.5636 C   0  0  0  0  0  0  0  0  0  0  0  0
   11.3850  -59.8514   36.6638 C   0  0  0  0  0  0  0  0  0  0  0  0
 15 16  1  0  0  0
 16 17  2  0  0  0
 16 21  1  0  0  0
 17 18  1  0  0  0
 17 13  1  0  0  0
 18 19  2  0  0  0
 19 20  1  0  0  0
 20 21  2  0  0  0
 13  1  1  0  0  0
  1  2  2  0  0  0
  1  9  1  0  0  0
  2  3  1  0  0  0
  3  4  2  0  0  0
  3  7  1  0  0  0
  4  5  1  0  0  0
  5  6  1  0  0  0
  6  7  2  0  0  0
  7  8  1  0  0  0
  8  9  1  0  0  0
  8 12  1  0  0  0
  9 10  2  0  0  0
 10 11  1  0  0  0
 11 12  2  0  0  0
 12 22  1  0  0  0
 22 23  1  0  0  0
 23 24  2  0  0  0
 23 25  1  0  0  0
 25 26  1  0  0  0
 26 27  1  0  0  0
 13 14  1  0  0  0
M  END
> <minimizedAffinity>
-9.07182

$$$$
908


 25 28  0  0  0  0  0  0  0  0999 V2000
   16.6955  -58.1101   33.5893 N   0  0  0  0  0  0  0  0  0  0  0  0
   17.0144  -57.3776   34.6711 C   0  0  0  0  0  0  0  0  0  0  0  0
   16.9012  -57.7627   35.8736 O   0  0  0  0  0  0  0  0  0  0  0  0
   17.4889  -56.1319   34.3145 C   0  0  0  0  0  0  0  0  0  0  0  0
   17.4586  -56.1069   32.9920 C   0  0  0  0  0  0  0  0  0  0  0  0
   17.9272  -54.8815   32.6573 N   0  0  0  0  0  0  0  0  0  0  0  0
   18.2306  -54.1893   33.7399 N   0  0  0  0  0  0  0  0  0  0  0  0
   17.9673  -54.9430   34.7760 N   0  0  0  0  0  0  0  0  0  0  0  0
   16.9717  -57.3213   32.5349 C   0  0  0  0  0  0  0  0  0  0  0  0
   16.8181  -57.6188   31.3058 O   0  0  0  0  0  0  0  0  0  0  0  0
   18.0412  -54.5145   31.6890 H   0  0  0  0  0  0  0  0  0  0  0  0
   18.6086  -53.2205   33.7671 H   0  0  0  0  0  0  0  0  0  0  0  0
   13.5977  -58.0632   34.2564 I   0  0  0  0  0  0  0  0  0  0  0  0
   14.8449  -59.7058   33.7807 C   0  0  0  0  0  0  0  0  0  0  0  0
   16.1755  -59.4391   33.5307 C   0  0  0  0  0  0  0  0  0  0  0  0
   16.9719  -60.5229   33.2217 C   0  0  0  0  0  0  0  0  0  0  0  0
   16.4550  -61.8061   33.1692 C   0  0  0  0  0  0  0  0  0  0  0  0
   15.1234  -62.0604   33.4207 C   0  0  0  0  0  0  0  0  0  0  0  0
   14.3209  -60.9820   33.7302 C   0  0  0  0  0  0  0  0  0  0  0  0
   18.1297  -54.6356   36.1541 C   0  0  0  0  0  0  0  0  0  0  0  0
   17.0777  -54.6762   37.0421 C   0  0  0  0  0  0  0  0  0  0  0  0
   17.2689  -54.3712   38.3799 C   0  0  0  0  0  0  0  0  0  0  0  0
   18.5061  -54.0171   38.8772 C   0  0  0  0  0  0  0  0  0  0  0  0
   19.5602  -53.9764   37.9896 C   0  0  0  0  0  0  0  0  0  0  0  0
   19.3801  -54.2768   36.6615 C   0  0  0  0  0  0  0  0  0  0  0  0
 13 14  1  0  0  0
 14 15  2  0  0  0
 14 19  1  0  0  0
 15 16  1  0  0  0
 15  1  1  0  0  0
 16 17  2  0  0  0
 17 18  1  0  0  0
 18 19  2  0  0  0
  1  2  1  0  0  0
  1  9  1  0  0  0
  2  3  2  0  0  0
  2  4  1  0  0  0
  4  5  2  0  0  0
  4  8  1  0  0  0
  5  6  1  0  0  0
  5  9  1  0  0  0
  6  7  1  0  0  0
  7  8  1  0  0  0
  8 20  1  0  0  0
 20 21  2  0  0  0
 20 25  1  0  0  0
 21 22  1  0  0  0
 22 23  2  0  0  0
 23 24  1  0  0  0
 24 25  2  0  0  0
  9 10  2  0  0  0
  6 11  1  0  0  0
  7 12  1  0  0  0
M  END
> <minimizedAffinity>
-8.15449

$$$$
910


 26 29  0  0  0  0  0  0  0  0999 V2000
   15.9418  -58.2549   35.5764 C   0  0  0  0  0  0  0  0  0  0  0  0
   14.7697  -58.3279   34.7887 C   0  0  0  0  0  0  0  0  0  0  0  0
   14.5663  -58.1060   33.4953 N   0  0  0  0  0  0  0  0  0  0  0  0
   13.3079  -58.2989   33.2413 O   0  0  0  0  0  0  0  0  0  0  0  0
   12.6811  -58.6353   34.3104 N   0  0  0  0  0  0  0  0  0  0  0  0
   13.5663  -58.6660   35.3151 C   0  0  0  0  0  0  0  0  0  0  0  0
   13.4629  -58.9518   36.6583 C   0  0  0  0  0  0  0  0  0  0  0  0
   14.5801  -58.8889   37.4505 C   0  0  0  0  0  0  0  0  0  0  0  0
   15.8116  -58.5461   36.9274 C   0  0  0  0  0  0  0  0  0  0  0  0
   12.1993  -59.2902   37.1653 N   0  0  0  0  0  0  0  0  0  0  0  0
   11.7380  -58.8668   38.4882 C   0  0  0  0  0  0  0  0  0  0  0  0
   11.5344  -60.1591   39.2524 C   0  0  0  0  0  0  0  0  0  0  0  0
   11.7909  -61.2957   38.5027 O   0  0  0  0  0  0  0  0  0  0  0  0
   11.1150  -61.3754   37.3036 C   0  0  0  0  0  0  0  0  0  0  0  0
   11.1802  -60.0805   36.5129 C   0  0  0  0  0  0  0  0  0  0  0  0
   18.2132  -57.7111   34.1982 C   0  0  0  0  0  0  0  0  0  0  0  0
   19.3321  -58.3499   34.3601 O   0  0  0  0  0  0  0  0  0  0  0  0
   17.0974  -57.9782   34.8754 N   0  0  0  0  0  0  0  0  0  0  0  0
   17.7762  -58.8333   35.6888 H   0  0  0  0  0  0  0  0  0  0  0  0
   19.3672  -54.5563   35.2893 I   0  0  0  0  0  0  0  0  0  0  0  0
   18.8373  -55.3787   33.3992 C   0  0  0  0  0  0  0  0  0  0  0  0
   18.3776  -56.6558   33.1614 C   0  0  0  0  0  0  0  0  0  0  0  0
   18.1707  -56.7651   31.8467 N   0  0  0  0  0  0  0  0  0  0  0  0
   18.4837  -55.6070   31.2783 N   0  0  0  0  0  0  0  0  0  0  0  0
   18.8967  -54.7299   32.1906 C   0  0  0  0  0  0  0  0  0  0  0  0
   17.7284  -57.9450   31.0805 C   0  0  0  0  0  0  0  0  0  0  0  0
 20 21  1  0  0  0
 21 22  2  0  0  0
 21 25  1  0  0  0
 22 23  1  0  0  0
 22 16  1  0  0  0
 23 24  1  0  0  0
 23 26  1  0  0  0
 24 25  2  0  0  0
 16 17  2  0  0  0
 16 18  1  0  0  0
 18  1  1  0  0  0
  1  2  1  0  0  0
  1  9  2  0  0  0
  2  3  2  0  0  0
  2  6  1  0  0  0
  3  4  1  0  0  0
  4  5  1  0  0  0
  5  6  2  0  0  0
  6  7  1  0  0  0
  7  8  2  0  0  0
  7 10  1  0  0  0
  8  9  1  0  0  0
 10 11  1  0  0  0
 10 15  1  0  0  0
 11 12  1  0  0  0
 12 13  1  0  0  0
 13 14  1  0  0  0
 14 15  1  0  0  0
 18 19  1  0  0  0
M  END
> <minimizedAffinity>
-8.32147

$$$$
920


 24 27  0  0  0  0  0  0  0  0999 V2000
   15.9738  -57.2133   34.1676 N   0  0  0  0  0  0  0  0  0  0  0  0
   16.3142  -56.6370   35.2781 C   0  0  0  0  0  0  0  0  0  0  0  0
   16.1935  -56.8594   37.0600 S   0  0  0  0  0  0  0  0  0  0  0  0
   17.0685  -55.3562   37.4281 C   0  0  0  0  0  0  0  0  0  0  0  0
   17.4042  -54.7733   36.2989 C   0  0  0  0  0  0  0  0  0  0  0  0
   17.0130  -55.4394   35.1117 N   0  0  0  0  0  0  0  0  0  0  0  0
   17.1352  -55.2341   33.6456 C   0  0  0  0  0  0  0  0  0  0  0  0
   16.3901  -56.3868   33.0683 C   0  0  0  0  0  0  0  0  0  0  0  0
   18.1477  -53.4811   36.3750 C   0  0  0  0  0  0  0  0  0  0  0  0
   17.7766  -52.4723   37.2249 C   0  0  0  0  0  0  0  0  0  0  0  0
   18.4870  -51.2581   37.3002 C   0  0  0  0  0  0  0  0  0  0  0  0
   19.5919  -51.0529   36.5066 C   0  0  0  0  0  0  0  0  0  0  0  0
   19.9680  -52.0600   35.6535 C   0  0  0  0  0  0  0  0  0  0  0  0
   19.2613  -53.2541   35.5867 C   0  0  0  0  0  0  0  0  0  0  0  0
   15.2676  -58.4342   34.0564 C   0  0  0  0  0  0  0  0  0  0  0  0
   13.8552  -58.5214   34.3176 C   0  0  0  0  0  0  0  0  0  0  0  0
   13.1337  -57.9591   33.3847 O   0  0  0  0  0  0  0  0  0  0  0  0
   10.5193  -60.9247   39.1468 I   0  0  0  0  0  0  0  0  0  0  0  0
   11.5876  -60.1633   37.5304 C   0  0  0  0  0  0  0  0  0  0  0  0
   11.2657  -60.3939   36.2069 C   0  0  0  0  0  0  0  0  0  0  0  0
   11.9894  -59.8767   35.1662 C   0  0  0  0  0  0  0  0  0  0  0  0
   13.0827  -59.0954   35.3857 C   0  0  0  0  0  0  0  0  0  0  0  0
   13.4233  -58.8513   36.7150 C   0  0  0  0  0  0  0  0  0  0  0  0
   12.7089  -59.3619   37.7470 C   0  0  0  0  0  0  0  0  0  0  0  0
 18 19  1  0  0  0
 19 20  2  0  0  0
 19 24  1  0  0  0
 20 21  1  0  0  0
 21 22  2  0  0  0
 22 23  1  0  0  0
 22 16  1  0  0  0
 23 24  2  0  0  0
 16 17  2  0  0  0
 16 15  1  0  0  0
 15  1  1  0  0  0
  1  2  2  0  0  0
  1  8  1  0  0  0
  2  3  1  0  0  0
  2  6  1  0  0  0
  3  4  1  0  0  0
  4  5  2  0  0  0
  5  6  1  0  0  0
  5  9  1  0  0  0
  6  7  1  0  0  0
  7  8  1  0  0  0
  9 10  2  0  0  0
  9 14  1  0  0  0
 10 11  1  0  0  0
 11 12  2  0  0  0
 12 13  1  0  0  0
 13 14  2  0  0  0
M  END
> <minimizedAffinity>
-9.41961

$$$$
924


 29 32  0  0  0  0  0  0  0  0999 V2000
   17.7693  -58.5457   34.2317 C   0  0  0  0  0  0  0  0  0  0  0  0
   17.1193  -59.5375   33.5996 N   0  0  0  0  0  0  0  0  0  0  0  0
   15.9518  -60.0054   34.0590 C   0  0  0  0  0  0  0  0  0  0  0  0
   15.4695  -59.4368   35.1762 N   0  0  0  0  0  0  0  0  0  0  0  0
   16.0926  -58.4411   35.8381 C   0  0  0  0  0  0  0  0  0  0  0  0
   17.2633  -57.9985   35.3431 N   0  0  0  0  0  0  0  0  0  0  0  0
   15.5131  -57.8956   37.0153 N   0  0  0  0  0  0  0  0  0  0  0  0
   14.5558  -58.6734   37.7671 C   0  0  0  0  0  0  0  0  0  0  0  0
   13.5429  -57.6558   38.3107 C   0  0  0  0  0  0  0  0  0  0  0  0
   14.2037  -56.8568   39.2069 O   0  0  0  0  0  0  0  0  0  0  0  0
   15.2376  -56.1127   38.7117 C   0  0  0  0  0  0  0  0  0  0  0  0
   15.8693  -56.5911   37.4550 C   0  0  0  0  0  0  0  0  0  0  0  0
   15.2435  -61.0584   33.4046 N   0  0  0  0  0  0  0  0  0  0  0  0
   15.0372  -61.1052   31.9887 C   0  0  0  0  0  0  0  0  0  0  0  0
   14.0912  -62.2720   31.6974 C   0  0  0  0  0  0  0  0  0  0  0  0
   12.9737  -62.2379   32.5149 O   0  0  0  0  0  0  0  0  0  0  0  0
   13.2622  -62.4221   33.8445 C   0  0  0  0  0  0  0  0  0  0  0  0
   14.6992  -62.1436   34.2045 C   0  0  0  0  0  0  0  0  0  0  0  0
   19.0300  -58.0562   33.7153 N   0  0  0  0  0  0  0  0  0  0  0  0
   19.9203  -58.3011   34.2014 H   0  0  0  0  0  0  0  0  0  0  0  0
   18.9471  -56.0041   32.6522 C   0  0  0  0  0  0  0  0  0  0  0  0
   19.0336  -57.2601   32.6184 N   0  0  0  0  0  0  0  0  0  0  0  0
   17.9172  -52.2602   37.6764 I   0  0  0  0  0  0  0  0  0  0  0  0
   18.3487  -53.4854   36.0363 C   0  0  0  0  0  0  0  0  0  0  0  0
   19.6198  -53.7918   35.6598 C   0  0  0  0  0  0  0  0  0  0  0  0
   19.8409  -54.6195   34.5489 C   0  0  0  0  0  0  0  0  0  0  0  0
   18.8306  -55.1508   33.8025 C   0  0  0  0  0  0  0  0  0  0  0  0
   17.5308  -54.8184   34.2130 C   0  0  0  0  0  0  0  0  0  0  0  0
   17.3088  -54.0083   35.3003 C   0  0  0  0  0  0  0  0  0  0  0  0
 23 24  1  0  0  0
 24 25  2  0  0  0
 24 29  1  0  0  0
 25 26  1  0  0  0
 26 27  2  0  0  0
 27 28  1  0  0  0
 27 21  1  0  0  0
 28 29  2  0  0  0
 21 22  2  0  0  0
 22 19  1  0  0  0
 19  1  1  0  0  0
  1  2  2  0  0  0
  1  6  1  0  0  0
  2  3  1  0  0  0
  3  4  2  0  0  0
  3 13  1  0  0  0
  4  5  1  0  0  0
  5  6  2  0  0  0
  5  7  1  0  0  0
  7  8  1  0  0  0
  7 12  1  0  0  0
  8  9  1  0  0  0
  9 10  1  0  0  0
 10 11  1  0  0  0
 11 12  1  0  0  0
 13 14  1  0  0  0
 13 18  1  0  0  0
 14 15  1  0  0  0
 15 16  1  0  0  0
 16 17  1  0  0  0
 17 18  1  0  0  0
 19 20  1  0  0  0
M  END
> <minimizedAffinity>
-8.63473

$$$$
935


 34 38  0  0  0  0  0  0  0  0999 V2000
   17.4309  -56.8876   32.2387 N   0  0  0  0  0  0  0  0  0  0  0  0
   17.3393  -57.7093   31.1786 C   0  0  0  0  0  0  0  0  0  0  0  0
   17.9343  -57.4252   29.9689 C   0  0  0  0  0  0  0  0  0  0  0  0
   18.6379  -56.2383   29.9060 C   0  0  0  0  0  0  0  0  0  0  0  0
   19.2414  -55.8326   28.8671 O   0  0  0  0  0  0  0  0  0  0  0  0
   18.7387  -55.3930   30.9785 N   0  0  0  0  0  0  0  0  0  0  0  0
   18.1266  -55.7450   32.1223 C   0  0  0  0  0  0  0  0  0  0  0  0
   18.1909  -55.0009   33.1336 O   0  0  0  0  0  0  0  0  0  0  0  0
   16.6337  -58.8803   31.2826 O   0  0  0  0  0  0  0  0  0  0  0  0
   19.2675  -54.5025   30.9262 H   0  0  0  0  0  0  0  0  0  0  0  0
   17.8674  -58.2516   28.7778 C   0  0  0  0  0  0  0  0  0  0  0  0
   19.0237  -58.2954   27.9405 N   0  0  0  0  0  0  0  0  0  0  0  0
   20.1860  -58.8779   28.5534 C   0  0  0  0  0  0  0  0  0  0  0  0
   19.8919  -59.5509   29.8775 C   0  0  0  0  0  0  0  0  0  0  0  0
   18.6319  -60.3694   29.7259 C   0  0  0  0  0  0  0  0  0  0  0  0
   17.5966  -59.6902   29.1350 C   0  0  0  0  0  0  0  0  0  0  0  0
   16.3961  -60.3164   28.9000 C   0  0  0  0  0  0  0  0  0  0  0  0
   16.2860  -61.6451   29.2843 C   0  0  0  0  0  0  0  0  0  0  0  0
   17.3169  -62.3418   29.8803 C   0  0  0  0  0  0  0  0  0  0  0  0
   18.5177  -61.6681   30.0995 C   0  0  0  0  0  0  0  0  0  0  0  0
   16.8842  -63.6334   30.1363 O   0  0  0  0  0  0  0  0  0  0  0  0
   15.4507  -63.6712   30.0453 C   0  0  0  0  0  0  0  0  0  0  0  0
   15.2284  -62.5631   29.1933 O   0  0  0  0  0  0  0  0  0  0  0  0
   18.6656  -59.2271   26.8389 C   0  0  0  0  0  0  0  0  0  0  0  0
   19.2443  -57.4360   27.4107 H   0  0  0  0  0  0  0  0  0  0  0  0
   15.3714  -59.6326   28.3098 O   0  0  0  0  0  0  0  0  0  0  0  0
   15.0236  -59.6358   26.9620 C   0  0  0  0  0  0  0  0  0  0  0  0
   14.6449  -58.2811   37.7519 I   0  0  0  0  0  0  0  0  0  0  0  0
   15.5498  -57.8128   35.9170 C   0  0  0  0  0  0  0  0  0  0  0  0
   16.9127  -58.0262   35.7393 C   0  0  0  0  0  0  0  0  0  0  0  0
   17.5088  -57.7247   34.5497 C   0  0  0  0  0  0  0  0  0  0  0  0
   16.8084  -57.2006   33.4749 C   0  0  0  0  0  0  0  0  0  0  0  0
   15.4451  -56.9845   33.6466 C   0  0  0  0  0  0  0  0  0  0  0  0
   14.8518  -57.2923   34.8528 C   0  0  0  0  0  0  0  0  0  0  0  0
 28 29  1  0  0  0
 29 30  2  0  0  0
 29 34  1  0  0  0
 30 31  1  0  0  0
 31 32  2  0  0  0
 32 33  1  0  0  0
 32  1  1  0  0  0
 33 34  2  0  0  0
  1  2  1  0  0  0
  1  7  1  0  0  0
  2  3  2  0  0  0
  2  9  1  0  0  0
  3  4  1  0  0  0
  3 11  1  0  0  0
  4  5  2  0  0  0
  4  6  1  0  0  0
  6  7  1  0  0  0
  7  8  2  0  0  0
 11 12  1  0  0  0
 11 16  1  0  0  0
 12 13  1  0  0  0
 12 24  1  0  0  0
 13 14  1  0  0  0
 14 15  1  0  0  0
 15 16  2  0  0  0
 15 20  1  0  0  0
 16 17  1  0  0  0
 17 18  2  0  0  0
 17 26  1  0  0  0
 18 19  1  0  0  0
 18 23  1  0  0  0
 19 20  2  0  0  0
 19 21  1  0  0  0
 21 22  1  0  0  0
 22 23  1  0  0  0
 26 27  1  0  0  0
  6 10  1  0  0  0
 12 25  1  0  0  0
M  CHG 1   9  -1
M  CHG 1  12   1
M  END
> <minimizedAffinity>
-7.21036

$$$$
937


 26 29  0  0  0  0  0  0  0  0999 V2000
   15.7301  -56.5121   37.7210 N   0  0  0  0  0  0  0  0  0  0  0  0
   15.7789  -57.8667   37.3052 C   0  0  0  0  0  0  0  0  0  0  0  0
   16.8205  -58.4292   36.8788 O   0  0  0  0  0  0  0  0  0  0  0  0
   14.4331  -58.4861   37.4588 C   0  0  0  0  0  0  0  0  0  0  0  0
   13.8622  -57.6847   38.6164 C   0  0  0  0  0  0  0  0  0  0  0  0
   14.5960  -56.4044   38.5785 C   0  0  0  0  0  0  0  0  0  0  0  0
   14.2931  -55.3459   39.2029 O   0  0  0  0  0  0  0  0  0  0  0  0
   19.6935  -51.7428   36.2893 I   0  0  0  0  0  0  0  0  0  0  0  0
   18.3789  -53.3240   36.7741 C   0  0  0  0  0  0  0  0  0  0  0  0
   18.0836  -53.6579   38.0790 C   0  0  0  0  0  0  0  0  0  0  0  0
   17.2212  -54.6967   38.3669 C   0  0  0  0  0  0  0  0  0  0  0  0
   16.6241  -55.4391   37.3697 C   0  0  0  0  0  0  0  0  0  0  0  0
   16.9315  -55.0902   36.0762 C   0  0  0  0  0  0  0  0  0  0  0  0
   17.7910  -54.0549   35.7646 C   0  0  0  0  0  0  0  0  0  0  0  0
   13.7292  -58.3214   36.2544 N   0  0  0  0  0  0  0  0  0  0  0  0
   14.1700  -57.4344   35.2729 C   0  0  0  0  0  0  0  0  0  0  0  0
   13.6200  -57.9496   33.9170 C   0  0  0  0  0  0  0  0  0  0  0  0
   13.9320  -59.3676   33.8167 N   0  0  0  0  0  0  0  0  0  0  0  0
   13.3733  -60.2210   34.8357 C   0  0  0  0  0  0  0  0  0  0  0  0
   12.7910  -59.3136   35.9162 C   0  0  0  0  0  0  0  0  0  0  0  0
   14.7441  -59.8665   32.7779 C   0  0  0  0  0  0  0  0  0  0  0  0
   14.2779  -60.8239   31.9305 N   0  0  0  0  0  0  0  0  0  0  0  0
   14.9927  -61.3263   30.9262 C   0  0  0  0  0  0  0  0  0  0  0  0
   16.2866  -60.8775   30.6979 C   0  0  0  0  0  0  0  0  0  0  0  0
   16.7552  -59.9041   31.5628 C   0  0  0  0  0  0  0  0  0  0  0  0
   16.0006  -59.4256   32.5611 N   0  0  0  0  0  0  0  0  0  0  0  0
  8  9  1  0  0  0
  9 10  2  0  0  0
  9 14  1  0  0  0
 10 11  1  0  0  0
 11 12  2  0  0  0
 12 13  1  0  0  0
 12  1  1  0  0  0
 13 14  2  0  0  0
  1  2  1  0  0  0
  1  6  1  0  0  0
  2  3  2  0  0  0
  2  4  1  0  0  0
  4  5  1  0  0  0
  4 15  1  0  0  0
  5  6  1  0  0  0
  6  7  2  0  0  0
 15 16  1  0  0  0
 15 20  1  0  0  0
 16 17  1  0  0  0
 17 18  1  0  0  0
 18 19  1  0  0  0
 18 21  1  0  0  0
 19 20  1  0  0  0
 21 22  2  0  0  0
 21 26  1  0  0  0
 22 23  1  0  0  0
 23 24  2  0  0  0
 24 25  1  0  0  0
 25 26  2  0  0  0
M  END
> <minimizedAffinity>
-9.06216

$$$$
950


 26 29  0  0  0  0  0  0  0  0999 V2000
   15.4701  -57.8292   35.9129 C   0  0  0  0  0  0  0  0  0  0  0  0
   14.4645  -58.0478   34.9662 C   0  0  0  0  0  0  0  0  0  0  0  0
   14.3352  -57.6363   33.6929 N   0  0  0  0  0  0  0  0  0  0  0  0
   13.2158  -58.1013   33.2216 O   0  0  0  0  0  0  0  0  0  0  0  0
   12.6017  -58.7995   34.1259 N   0  0  0  0  0  0  0  0  0  0  0  0
   13.3504  -58.7952   35.2454 C   0  0  0  0  0  0  0  0  0  0  0  0
   13.1981  -59.3583   36.4941 C   0  0  0  0  0  0  0  0  0  0  0  0
   14.1913  -59.1381   37.4150 C   0  0  0  0  0  0  0  0  0  0  0  0
   15.3330  -58.3749   37.1395 C   0  0  0  0  0  0  0  0  0  0  0  0
   12.0384  -60.1281   36.7639 N   0  0  0  0  0  0  0  0  0  0  0  0
   11.9491  -61.5061   36.3267 C   0  0  0  0  0  0  0  0  0  0  0  0
   10.6684  -62.0879   36.8145 C   0  0  0  0  0  0  0  0  0  0  0  0
   10.4181  -61.8677   38.1549 O   0  0  0  0  0  0  0  0  0  0  0  0
   10.4093  -60.5632   38.5353 C   0  0  0  0  0  0  0  0  0  0  0  0
   10.8925  -59.6016   37.4786 C   0  0  0  0  0  0  0  0  0  0  0  0
   16.9653  -55.8167   36.0375 C   0  0  0  0  0  0  0  0  0  0  0  0
   16.2905  -55.2853   36.9860 O   0  0  0  0  0  0  0  0  0  0  0  0
   16.5748  -57.0415   35.5137 N   0  0  0  0  0  0  0  0  0  0  0  0
   17.1842  -57.4042   34.7142 H   0  0  0  0  0  0  0  0  0  0  0  0
   19.1804  -53.9248   38.2930 I   0  0  0  0  0  0  0  0  0  0  0  0
   19.0565  -54.3108   36.2486 C   0  0  0  0  0  0  0  0  0  0  0  0
   19.9532  -53.8149   35.3021 C   0  0  0  0  0  0  0  0  0  0  0  0
   19.5703  -54.2384   34.0965 N   0  0  0  0  0  0  0  0  0  0  0  0
   18.4958  -54.9600   34.2577 N   0  0  0  0  0  0  0  0  0  0  0  0
   18.1323  -55.0388   35.5823 C   0  0  0  0  0  0  0  0  0  0  0  0
   20.2624  -53.9255   32.8386 C   0  0  0  0  0  0  0  0  0  0  0  0
 20 21  1  0  0  0
 21 22  2  0  0  0
 21 25  1  0  0  0
 22 23  1  0  0  0
 23 24  1  0  0  0
 23 26  1  0  0  0
 24 25  2  0  0  0
 25 16  1  0  0  0
 16 17  2  0  0  0
 16 18  1  0  0  0
 18  1  1  0  0  0
  1  2  1  0  0  0
  1  9  2  0  0  0
  2  3  2  0  0  0
  2  6  1  0  0  0
  3  4  1  0  0  0
  4  5  1  0  0  0
  5  6  2  0  0  0
  6  7  1  0  0  0
  7  8  2  0  0  0
  7 10  1  0  0  0
  8  9  1  0  0  0
 10 11  1  0  0  0
 10 15  1  0  0  0
 11 12  1  0  0  0
 12 13  1  0  0  0
 13 14  1  0  0  0
 14 15  1  0  0  0
 18 19  1  0  0  0
M  END
> <minimizedAffinity>
-8.37699

$$$$
956


 30 33  0  0  0  0  0  0  0  0999 V2000
   15.3203  -54.6684   39.0599 I   0  0  0  0  0  0  0  0  0  0  0  0
   14.7494  -56.4401   38.0702 C   0  0  0  0  0  0  0  0  0  0  0  0
   15.4398  -57.0703   37.0775 C   0  0  0  0  0  0  0  0  0  0  0  0
   14.6583  -58.1819   36.7600 C   0  0  0  0  0  0  0  0  0  0  0  0
   13.5546  -58.2400   37.5064 N   0  0  0  0  0  0  0  0  0  0  0  0
   13.6024  -57.1781   38.3103 C   0  0  0  0  0  0  0  0  0  0  0  0
   15.1054  -59.0011   35.7934 N   0  0  0  0  0  0  0  0  0  0  0  0
   16.2615  -58.7567   35.1570 C   0  0  0  0  0  0  0  0  0  0  0  0
   17.0073  -57.6910   35.4637 N   0  0  0  0  0  0  0  0  0  0  0  0
   16.6271  -56.8047   36.4354 C   0  0  0  0  0  0  0  0  0  0  0  0
   12.5073  -59.2167   37.4865 C   0  0  0  0  0  0  0  0  0  0  0  0
   11.2915  -58.7418   37.9633 O   0  0  0  0  0  0  0  0  0  0  0  0
   10.5039  -59.8895   37.9689 C   0  0  0  0  0  0  0  0  0  0  0  0
   11.3797  -61.0225   38.4510 C   0  0  0  0  0  0  0  0  0  0  0  0
   12.7662  -60.3678   38.4620 C   0  0  0  0  0  0  0  0  0  0  0  0
   11.4464  -62.0573   37.5172 O   0  0  0  0  0  0  0  0  0  0  0  0
   10.5650  -62.5386   37.5912 H   0  0  0  0  0  0  0  0  0  0  0  0
    9.3792  -59.7454   39.0038 C   0  0  0  0  0  0  0  0  0  0  0  0
    9.7450  -58.7622   39.9326 O   0  0  0  0  0  0  0  0  0  0  0  0
    9.3579  -57.8665   39.6752 H   0  0  0  0  0  0  0  0  0  0  0  0
   17.4616  -55.6868   36.7201 N   0  0  0  0  0  0  0  0  0  0  0  0
   17.5711  -54.6520   35.7469 C   0  0  0  0  0  0  0  0  0  0  0  0
   16.9156  -54.7904   34.6829 O   0  0  0  0  0  0  0  0  0  0  0  0
   18.0045  -55.5496   37.5771 H   0  0  0  0  0  0  0  0  0  0  0  0
   18.3757  -53.4717   35.9045 C   0  0  0  0  0  0  0  0  0  0  0  0
   19.4260  -53.2112   35.0682 C   0  0  0  0  0  0  0  0  0  0  0  0
   20.2150  -52.0670   35.2058 C   0  0  0  0  0  0  0  0  0  0  0  0
   19.9369  -51.1779   36.2017 C   0  0  0  0  0  0  0  0  0  0  0  0
   18.8903  -51.4128   37.0554 C   0  0  0  0  0  0  0  0  0  0  0  0
   18.1124  -52.5657   36.8993 C   0  0  0  0  0  0  0  0  0  0  0  0
  1  2  1  0  0  0
  2  3  1  0  0  0
  2  6  2  0  0  0
  3  4  2  0  0  0
  3 10  1  0  0  0
  4  5  1  0  0  0
  4  7  1  0  0  0
  5  6  1  0  0  0
  5 11  1  0  0  0
 11 12  1  0  0  0
 11 15  1  0  0  0
 12 13  1  0  0  0
 13 14  1  0  0  0
 13 18  1  0  0  0
 14 15  1  0  0  0
 14 16  1  0  0  0
 18 19  1  0  0  0
  7  8  2  0  0  0
  8  9  1  0  0  0
  9 10  2  0  0  0
 10 21  1  0  0  0
 21 22  1  0  0  0
 22 23  2  0  0  0
 22 25  1  0  0  0
 25 26  2  0  0  0
 25 30  1  0  0  0
 26 27  1  0  0  0
 27 28  2  0  0  0
 28 29  1  0  0  0
 29 30  2  0  0  0
 16 17  1  0  0  0
 19 20  1  0  0  0
 21 24  1  0  0  0
M  END
> <minimizedAffinity>
-8.96828

$$$$
961


 29 33  0  0  0  0  0  0  0  0999 V2000
   18.8582  -53.3681   35.9266 C   0  0  0  0  0  0  0  0  0  0  0  0
   19.2450  -52.1481   36.2125 N   0  0  0  0  0  0  0  0  0  0  0  0
   18.6375  -51.4591   37.2252 C   0  0  0  0  0  0  0  0  0  0  0  0
   17.6287  -51.9646   37.9863 C   0  0  0  0  0  0  0  0  0  0  0  0
   17.1970  -53.2453   37.7174 C   0  0  0  0  0  0  0  0  0  0  0  0
   16.2320  -54.0688   38.2551 N   0  0  0  0  0  0  0  0  0  0  0  0
   16.2303  -55.2228   37.6094 C   0  0  0  0  0  0  0  0  0  0  0  0
   17.2017  -55.1223   36.6614 N   0  0  0  0  0  0  0  0  0  0  0  0
   17.8054  -53.9285   36.7051 C   0  0  0  0  0  0  0  0  0  0  0  0
   15.4369  -53.6215   39.3632 C   0  0  0  0  0  0  0  0  0  0  0  0
   20.3464  -51.5168   35.5475 C   0  0  0  0  0  0  0  0  0  0  0  0
   15.4003  -56.4125   37.8323 C   0  0  0  0  0  0  0  0  0  0  0  0
   14.2241  -56.4311   38.5054 C   0  0  0  0  0  0  0  0  0  0  0  0
   13.5281  -57.6419   38.6813 C   0  0  0  0  0  0  0  0  0  0  0  0
   14.0363  -58.8148   38.1715 C   0  0  0  0  0  0  0  0  0  0  0  0
   15.2384  -58.8229   37.4770 C   0  0  0  0  0  0  0  0  0  0  0  0
   15.8758  -57.6353   37.3306 C   0  0  0  0  0  0  0  0  0  0  0  0
   18.6975  -54.8411   33.9077 C   0  0  0  0  0  0  0  0  0  0  0  0
   19.3221  -54.1942   34.8273 C   0  0  0  0  0  0  0  0  0  0  0  0
   18.3006  -58.0408   34.0998 Br  0  0  0  0  0  0  0  0  0  0  0  0
   19.0267  -56.9991   32.6787 C   0  0  0  0  0  0  0  0  0  0  0  0
   19.4609  -57.6913   31.5206 C   0  0  0  0  0  0  0  0  0  0  0  0
   20.0362  -57.0161   30.4785 C   0  0  0  0  0  0  0  0  0  0  0  0
   20.1847  -55.6504   30.5811 C   0  0  0  0  0  0  0  0  0  0  0  0
   19.7596  -54.9879   31.7104 C   0  0  0  0  0  0  0  0  0  0  0  0
   19.1580  -55.6559   32.8066 C   0  0  0  0  0  0  0  0  0  0  0  0
   20.7952  -55.2117   29.3945 O   0  0  0  0  0  0  0  0  0  0  0  0
   20.5290  -56.2065   28.4273 C   0  0  0  0  0  0  0  0  0  0  0  0
   20.5564  -57.3834   29.2336 O   0  0  0  0  0  0  0  0  0  0  0  0
 20 21  1  0  0  0
 21 22  2  0  0  0
 21 26  1  0  0  0
 22 23  1  0  0  0
 23 24  2  0  0  0
 23 29  1  0  0  0
 24 25  1  0  0  0
 24 27  1  0  0  0
 25 26  2  0  0  0
 26 18  1  0  0  0
 18 19  2  0  0  0
 19  1  1  0  0  0
  1  2  2  0  0  0
  1  9  1  0  0  0
  2  3  1  0  0  0
  2 11  1  0  0  0
  3  4  2  0  0  0
  4  5  1  0  0  0
  5  6  1  0  0  0
  5  9  2  0  0  0
  6  7  1  0  0  0
  6 10  1  0  0  0
  7  8  2  0  0  0
  7 12  1  0  0  0
  8  9  1  0  0  0
 12 13  2  0  0  0
 12 17  1  0  0  0
 13 14  1  0  0  0
 14 15  2  0  0  0
 15 16  1  0  0  0
 16 17  2  0  0  0
 27 28  1  0  0  0
 28 29  1  0  0  0
M  END
> <minimizedAffinity>
-11.08964

$$$$
969


 31 34  0  0  0  0  0  0  0  0999 V2000
   13.1993  -57.8780   38.4526 Br  0  0  0  0  0  0  0  0  0  0  0  0
   14.2910  -58.1871   36.9274 C   0  0  0  0  0  0  0  0  0  0  0  0
   15.3197  -57.3337   36.5384 C   0  0  0  0  0  0  0  0  0  0  0  0
   16.0867  -57.6031   35.4167 C   0  0  0  0  0  0  0  0  0  0  0  0
   15.8377  -58.7326   34.6638 C   0  0  0  0  0  0  0  0  0  0  0  0
   14.8294  -59.5758   35.0389 C   0  0  0  0  0  0  0  0  0  0  0  0
   14.0738  -59.3028   36.1510 C   0  0  0  0  0  0  0  0  0  0  0  0
   13.0551  -60.2179   36.4746 O   0  0  0  0  0  0  0  0  0  0  0  0
   14.5378  -61.1295   33.9491 Br  0  0  0  0  0  0  0  0  0  0  0  0
   17.1103  -56.7749   35.0099 C   0  0  0  0  0  0  0  0  0  0  0  0
   17.3534  -55.6489   35.7683 C   0  0  0  0  0  0  0  0  0  0  0  0
   16.4915  -55.4425   36.9384 C   0  0  0  0  0  0  0  0  0  0  0  0
   16.7491  -54.2982   37.6949 C   0  0  0  0  0  0  0  0  0  0  0  0
   17.7583  -53.4340   37.3386 C   0  0  0  0  0  0  0  0  0  0  0  0
   17.9538  -52.4165   38.0507 O   0  0  0  0  0  0  0  0  0  0  0  0
   18.5578  -53.6578   36.2227 C   0  0  0  0  0  0  0  0  0  0  0  0
   18.3618  -54.7572   35.4386 C   0  0  0  0  0  0  0  0  0  0  0  0
   19.9388  -52.4052   35.8008 Br  0  0  0  0  0  0  0  0  0  0  0  0
   15.6579  -53.9631   39.2409 Br  0  0  0  0  0  0  0  0  0  0  0  0
   15.5310  -56.2716   37.2726 O   0  0  0  0  0  0  0  0  0  0  0  0
   17.9143  -57.0575   33.8197 C   0  0  0  0  0  0  0  0  0  0  0  0
   19.0139  -57.8928   33.8943 C   0  0  0  0  0  0  0  0  0  0  0  0
   19.7902  -58.1700   32.7892 C   0  0  0  0  0  0  0  0  0  0  0  0
   19.4502  -57.5932   31.5829 C   0  0  0  0  0  0  0  0  0  0  0  0
   18.3759  -56.7655   31.4649 C   0  0  0  0  0  0  0  0  0  0  0  0
   17.6120  -56.4991   32.5799 C   0  0  0  0  0  0  0  0  0  0  0  0
   18.0144  -56.0755   29.8908 Cl  0  0  0  0  0  0  0  0  0  0  0  0
   19.4280  -58.6208   35.4505 Cl  0  0  0  0  0  0  0  0  0  0  0  0
   16.4746  -55.6184   32.4648 C   0  0  0  0  0  0  0  0  0  0  0  0
   16.5923  -54.3623   32.4519 O   0  0  0  0  0  0  0  0  0  0  0  0
   15.1870  -56.1400   32.3634 O   0  0  0  0  0  0  0  0  0  0  0  0
  1  2  1  0  0  0
  2  3  2  0  0  0
  2  7  1  0  0  0
  3  4  1  0  0  0
  3 20  1  0  0  0
  4  5  2  0  0  0
  4 10  1  0  0  0
  5  6  1  0  0  0
  6  7  2  0  0  0
  6  9  1  0  0  0
  7  8  1  0  0  0
 10 11  2  0  0  0
 10 21  1  0  0  0
 11 12  1  0  0  0
 11 17  1  0  0  0
 12 13  2  0  0  0
 12 20  1  0  0  0
 13 14  1  0  0  0
 13 19  1  0  0  0
 14 15  2  0  0  0
 14 16  1  0  0  0
 16 17  2  0  0  0
 16 18  1  0  0  0
 21 22  2  0  0  0
 21 26  1  0  0  0
 22 23  1  0  0  0
 22 28  1  0  0  0
 23 24  2  0  0  0
 24 25  1  0  0  0
 25 26  2  0  0  0
 25 27  1  0  0  0
 26 29  1  0  0  0
 29 30  2  0  0  0
 29 31  1  0  0  0
M  CHG 1   8  -1
M  END
> <minimizedAffinity>
-6.40408

$$$$
971


 29 33  0  0  0  0  0  0  0  0999 V2000
   11.9026  -61.3045   35.1806 Br  0  0  0  0  0  0  0  0  0  0  0  0
   13.5182  -60.7646   34.3228 C   0  0  0  0  0  0  0  0  0  0  0  0
   14.3128  -59.7252   34.8414 C   0  0  0  0  0  0  0  0  0  0  0  0
   15.4732  -59.3096   34.2585 C   0  0  0  0  0  0  0  0  0  0  0  0
   15.8771  -59.9597   33.0903 C   0  0  0  0  0  0  0  0  0  0  0  0
   15.1071  -60.9663   32.5877 C   0  0  0  0  0  0  0  0  0  0  0  0
   13.9324  -61.3920   33.1733 C   0  0  0  0  0  0  0  0  0  0  0  0
   13.1898  -62.4373   32.5989 O   0  0  0  0  0  0  0  0  0  0  0  0
   15.6518  -61.8599   30.9925 Br  0  0  0  0  0  0  0  0  0  0  0  0
   16.2750  -58.2305   34.8196 C   0  0  0  0  0  0  0  0  0  0  0  0
   17.5312  -58.8016   35.1801 O   0  0  0  0  0  0  0  0  0  0  0  0
   18.5715  -58.2263   34.5031 C   0  0  0  0  0  0  0  0  0  0  0  0
   19.7792  -58.5331   34.6254 O   0  0  0  0  0  0  0  0  0  0  0  0
   17.9792  -57.2176   33.6460 C   0  0  0  0  0  0  0  0  0  0  0  0
   16.6126  -57.1903   33.8061 C   0  0  0  0  0  0  0  0  0  0  0  0
   15.8998  -56.2984   33.0745 C   0  0  0  0  0  0  0  0  0  0  0  0
   16.5465  -55.4517   32.1987 C   0  0  0  0  0  0  0  0  0  0  0  0
   17.9152  -55.4764   32.0349 C   0  0  0  0  0  0  0  0  0  0  0  0
   18.6494  -56.3711   32.7678 C   0  0  0  0  0  0  0  0  0  0  0  0
   15.7174  -57.6560   36.0395 C   0  0  0  0  0  0  0  0  0  0  0  0
   14.5475  -58.1162   36.5770 C   0  0  0  0  0  0  0  0  0  0  0  0
   14.0238  -57.5487   37.7568 C   0  0  0  0  0  0  0  0  0  0  0  0
   14.7118  -56.5220   38.3599 C   0  0  0  0  0  0  0  0  0  0  0  0
   15.8997  -56.0497   37.8208 C   0  0  0  0  0  0  0  0  0  0  0  0
   16.4009  -56.6042   36.6766 C   0  0  0  0  0  0  0  0  0  0  0  0
   16.8639  -54.6282   38.6451 Br  0  0  0  0  0  0  0  0  0  0  0  0
   14.1860  -55.9734   39.5197 O   0  0  0  0  0  0  0  0  0  0  0  0
   12.3840  -58.2199   38.4782 Br  0  0  0  0  0  0  0  0  0  0  0  0
   13.8126  -59.1488   36.0118 O   0  0  0  0  0  0  0  0  0  0  0  0
  1  2  1  0  0  0
  2  3  2  0  0  0
  2  7  1  0  0  0
  3  4  1  0  0  0
  3 29  1  0  0  0
  4  5  2  0  0  0
  4 10  1  0  0  0
  5  6  1  0  0  0
  6  7  2  0  0  0
  6  9  1  0  0  0
  7  8  1  0  0  0
 10 11  1  0  0  0
 10 15  1  0  0  0
 10 20  1  0  0  0
 11 12  1  0  0  0
 12 13  2  0  0  0
 12 14  1  0  0  0
 14 15  2  0  0  0
 14 19  1  0  0  0
 15 16  1  0  0  0
 16 17  2  0  0  0
 17 18  1  0  0  0
 18 19  2  0  0  0
 20 21  2  0  0  0
 20 25  1  0  0  0
 21 22  1  0  0  0
 21 29  1  0  0  0
 22 23  2  0  0  0
 22 28  1  0  0  0
 23 24  1  0  0  0
 23 27  1  0  0  0
 24 25  2  0  0  0
 24 26  1  0  0  0
M  CHG 1   8  -1
M  CHG 1  27  -1
M  END
> <minimizedAffinity>
-9.07963

$$$$
978


 33 37  0  0  0  0  0  0  0  0999 V2000
   11.1974  -61.5049   36.8398 I   0  0  0  0  0  0  0  0  0  0  0  0
   11.8352  -62.0704   34.9076 C   0  0  0  0  0  0  0  0  0  0  0  0
   12.9762  -61.4502   34.4088 C   0  0  0  0  0  0  0  0  0  0  0  0
   13.4102  -61.7933   33.1700 C   0  0  0  0  0  0  0  0  0  0  0  0
   12.7002  -62.7516   32.4420 C   0  0  0  0  0  0  0  0  0  0  0  0
   11.5696  -63.3710   32.9277 C   0  0  0  0  0  0  0  0  0  0  0  0
   11.1348  -63.0169   34.1889 C   0  0  0  0  0  0  0  0  0  0  0  0
    9.9979  -63.6276   34.6978 O   0  0  0  0  0  0  0  0  0  0  0  0
   10.5279  -64.8192   31.7826 I   0  0  0  0  0  0  0  0  0  0  0  0
   14.5872  -61.2088   32.5547 C   0  0  0  0  0  0  0  0  0  0  0  0
   14.2603  -60.5486   31.3229 O   0  0  0  0  0  0  0  0  0  0  0  0
   14.9610  -61.0579   30.2616 C   0  0  0  0  0  0  0  0  0  0  0  0
   14.9312  -60.7268   29.0413 O   0  0  0  0  0  0  0  0  0  0  0  0
   15.8043  -62.1153   30.8000 C   0  0  0  0  0  0  0  0  0  0  0  0
   15.5879  -62.2062   32.1416 C   0  0  0  0  0  0  0  0  0  0  0  0
   16.2767  -63.1491   32.9045 C   0  0  0  0  0  0  0  0  0  0  0  0
   17.1872  -64.0059   32.3242 C   0  0  0  0  0  0  0  0  0  0  0  0
   17.4066  -63.9110   30.9525 C   0  0  0  0  0  0  0  0  0  0  0  0
   16.7312  -62.9847   30.1993 C   0  0  0  0  0  0  0  0  0  0  0  0
   17.0137  -62.8800   28.5030 Cl  0  0  0  0  0  0  0  0  0  0  0  0
   18.5442  -64.9637   30.1585 Cl  0  0  0  0  0  0  0  0  0  0  0  0
   18.0335  -65.1750   33.3110 Cl  0  0  0  0  0  0  0  0  0  0  0  0
   15.9536  -63.2098   34.6053 Cl  0  0  0  0  0  0  0  0  0  0  0  0
   15.2412  -60.2075   33.4402 C   0  0  0  0  0  0  0  0  0  0  0  0
   14.7808  -59.8892   34.6717 C   0  0  0  0  0  0  0  0  0  0  0  0
   15.4897  -58.9330   35.3962 C   0  0  0  0  0  0  0  0  0  0  0  0
   16.6197  -58.3138   34.9117 C   0  0  0  0  0  0  0  0  0  0  0  0
   17.0602  -58.6640   33.6512 C   0  0  0  0  0  0  0  0  0  0  0  0
   16.3868  -59.6000   32.9098 C   0  0  0  0  0  0  0  0  0  0  0  0
   18.7865  -57.7340   32.8816 I   0  0  0  0  0  0  0  0  0  0  0  0
   17.3176  -57.3735   35.6244 O   0  0  0  0  0  0  0  0  0  0  0  0
   14.7857  -58.4306   37.3086 I   0  0  0  0  0  0  0  0  0  0  0  0
   13.6490  -60.4908   35.1910 O   0  0  0  0  0  0  0  0  0  0  0  0
  1  2  1  0  0  0
  2  3  2  0  0  0
  2  7  1  0  0  0
  3  4  1  0  0  0
  3 33  1  0  0  0
  4  5  2  0  0  0
  4 10  1  0  0  0
  5  6  1  0  0  0
  6  7  2  0  0  0
  6  9  1  0  0  0
  7  8  1  0  0  0
 10 11  1  0  0  0
 10 15  1  0  0  0
 10 24  1  0  0  0
 11 12  1  0  0  0
 12 13  2  0  0  0
 12 14  1  0  0  0
 14 15  2  0  0  0
 14 19  1  0  0  0
 15 16  1  0  0  0
 16 17  2  0  0  0
 16 23  1  0  0  0
 17 18  1  0  0  0
 17 22  1  0  0  0
 18 19  2  0  0  0
 18 21  1  0  0  0
 19 20  1  0  0  0
 24 25  2  0  0  0
 24 29  1  0  0  0
 25 26  1  0  0  0
 25 33  1  0  0  0
 26 27  2  0  0  0
 26 32  1  0  0  0
 27 28  1  0  0  0
 27 31  1  0  0  0
 28 29  2  0  0  0
 28 30  1  0  0  0
M  CHG 1   8  -1
M  CHG 1  31  -1
M  END
> <minimizedAffinity>
-7.20007

$$$$
979


 29 33  0  0  0  0  0  0  0  0999 V2000
   10.9829  -61.3685   37.1860 I   0  0  0  0  0  0  0  0  0  0  0  0
   11.6993  -61.9403   35.2755 C   0  0  0  0  0  0  0  0  0  0  0  0
   12.8399  -61.2627   34.8121 C   0  0  0  0  0  0  0  0  0  0  0  0
   13.3194  -61.6113   33.5893 C   0  0  0  0  0  0  0  0  0  0  0  0
   12.6645  -62.6161   32.8549 C   0  0  0  0  0  0  0  0  0  0  0  0
   11.5525  -63.2761   33.3089 C   0  0  0  0  0  0  0  0  0  0  0  0
   11.0674  -62.9228   34.5488 C   0  0  0  0  0  0  0  0  0  0  0  0
    9.9427  -63.5703   35.0393 O   0  0  0  0  0  0  0  0  0  0  0  0
   10.6154  -64.7827   32.1492 I   0  0  0  0  0  0  0  0  0  0  0  0
   14.5050  -60.9616   33.0177 C   0  0  0  0  0  0  0  0  0  0  0  0
   14.2530  -60.4554   31.7210 O   0  0  0  0  0  0  0  0  0  0  0  0
   15.0571  -61.0273   30.7705 C   0  0  0  0  0  0  0  0  0  0  0  0
   15.0945  -60.8081   29.5305 O   0  0  0  0  0  0  0  0  0  0  0  0
   15.9142  -61.9851   31.4553 C   0  0  0  0  0  0  0  0  0  0  0  0
   15.5970  -61.9547   32.7746 C   0  0  0  0  0  0  0  0  0  0  0  0
   16.2958  -62.7998   33.6447 C   0  0  0  0  0  0  0  0  0  0  0  0
   17.2763  -63.6350   33.1610 C   0  0  0  0  0  0  0  0  0  0  0  0
   17.5993  -63.6684   31.8210 C   0  0  0  0  0  0  0  0  0  0  0  0
   16.9205  -62.8428   30.9576 C   0  0  0  0  0  0  0  0  0  0  0  0
   15.0847  -59.9311   33.8961 C   0  0  0  0  0  0  0  0  0  0  0  0
   14.5602  -59.6298   35.1057 C   0  0  0  0  0  0  0  0  0  0  0  0
   15.1601  -58.6433   35.8817 C   0  0  0  0  0  0  0  0  0  0  0  0
   16.2690  -57.9818   35.4347 C   0  0  0  0  0  0  0  0  0  0  0  0
   16.8297  -58.2633   34.2106 C   0  0  0  0  0  0  0  0  0  0  0  0
   16.2216  -59.2358   33.4654 C   0  0  0  0  0  0  0  0  0  0  0  0
   18.5460  -57.2362   33.5243 I   0  0  0  0  0  0  0  0  0  0  0  0
   16.8488  -57.0021   36.2307 O   0  0  0  0  0  0  0  0  0  0  0  0
   14.3283  -58.1762   37.7817 I   0  0  0  0  0  0  0  0  0  0  0  0
   13.4218  -60.2770   35.6131 O   0  0  0  0  0  0  0  0  0  0  0  0
  1  2  1  0  0  0
  2  3  2  0  0  0
  2  7  1  0  0  0
  3  4  1  0  0  0
  3 29  1  0  0  0
  4  5  2  0  0  0
  4 10  1  0  0  0
  5  6  1  0  0  0
  6  7  2  0  0  0
  6  9  1  0  0  0
  7  8  1  0  0  0
 10 11  1  0  0  0
 10 15  1  0  0  0
 10 20  1  0  0  0
 11 12  1  0  0  0
 12 13  2  0  0  0
 12 14  1  0  0  0
 14 15  2  0  0  0
 14 19  1  0  0  0
 15 16  1  0  0  0
 16 17  2  0  0  0
 17 18  1  0  0  0
 18 19  2  0  0  0
 20 21  2  0  0  0
 20 25  1  0  0  0
 21 22  1  0  0  0
 21 29  1  0  0  0
 22 23  2  0  0  0
 22 28  1  0  0  0
 23 24  1  0  0  0
 23 27  1  0  0  0
 24 25  2  0  0  0
 24 26  1  0  0  0
M  CHG 1   8  -1
M  CHG 1  27  -1
M  END
> <minimizedAffinity>
-7.92046

$$$$
980


 27 30  0  0  0  0  0  0  0  0999 V2000
   14.0475  -56.9121   38.6027 I   0  0  0  0  0  0  0  0  0  0  0  0
   14.6764  -57.2839   36.6264 C   0  0  0  0  0  0  0  0  0  0  0  0
   15.7680  -56.6534   36.0632 C   0  0  0  0  0  0  0  0  0  0  0  0
   16.1825  -56.8932   34.7707 C   0  0  0  0  0  0  0  0  0  0  0  0
   15.4586  -57.8070   34.0274 C   0  0  0  0  0  0  0  0  0  0  0  0
   14.3605  -58.4449   34.5846 C   0  0  0  0  0  0  0  0  0  0  0  0
   13.9492  -58.1963   35.8882 C   0  0  0  0  0  0  0  0  0  0  0  0
   12.8394  -58.8654   36.3979 O   0  0  0  0  0  0  0  0  0  0  0  0
   17.2711  -56.2742   34.1907 C   0  0  0  0  0  0  0  0  0  0  0  0
   17.9513  -55.3670   34.9977 C   0  0  0  0  0  0  0  0  0  0  0  0
   17.4810  -55.1403   36.3614 C   0  0  0  0  0  0  0  0  0  0  0  0
   18.1965  -54.2309   37.1117 C   0  0  0  0  0  0  0  0  0  0  0  0
   19.2979  -53.5590   36.6264 C   0  0  0  0  0  0  0  0  0  0  0  0
   19.9422  -52.7270   37.3313 O   0  0  0  0  0  0  0  0  0  0  0  0
   19.7433  -53.7725   35.3365 C   0  0  0  0  0  0  0  0  0  0  0  0
   19.0486  -54.6780   34.5594 C   0  0  0  0  0  0  0  0  0  0  0  0
   17.5959  -53.8381   39.0873 I   0  0  0  0  0  0  0  0  0  0  0  0
   16.4311  -55.7942   36.7945 O   0  0  0  0  0  0  0  0  0  0  0  0
   17.7127  -56.5253   32.8231 C   0  0  0  0  0  0  0  0  0  0  0  0
   18.3221  -57.7432   32.5374 C   0  0  0  0  0  0  0  0  0  0  0  0
   18.7526  -58.0244   31.2677 C   0  0  0  0  0  0  0  0  0  0  0  0
   18.5809  -57.0918   30.2686 C   0  0  0  0  0  0  0  0  0  0  0  0
   17.9801  -55.8792   30.5251 C   0  0  0  0  0  0  0  0  0  0  0  0
   17.5547  -55.6180   31.8084 C   0  0  0  0  0  0  0  0  0  0  0  0
   18.5093  -58.7390   33.5886 C   0  0  0  0  0  0  0  0  0  0  0  0
   19.2999  -58.5775   34.5446 O   0  0  0  0  0  0  0  0  0  0  0  0
   17.8008  -59.9318   33.5640 O   0  0  0  0  0  0  0  0  0  0  0  0
  1  2  1  0  0  0
  2  3  2  0  0  0
  2  7  1  0  0  0
  3  4  1  0  0  0
  3 18  1  0  0  0
  4  5  2  0  0  0
  4  9  1  0  0  0
  5  6  1  0  0  0
  6  7  2  0  0  0
  7  8  1  0  0  0
  9 10  2  0  0  0
  9 19  1  0  0  0
 10 11  1  0  0  0
 10 16  1  0  0  0
 11 12  2  0  0  0
 11 18  1  0  0  0
 12 13  1  0  0  0
 12 17  1  0  0  0
 13 14  2  0  0  0
 13 15  1  0  0  0
 15 16  2  0  0  0
 19 20  2  0  0  0
 19 24  1  0  0  0
 20 21  1  0  0  0
 20 25  1  0  0  0
 21 22  2  0  0  0
 22 23  1  0  0  0
 23 24  2  0  0  0
 25 26  2  0  0  0
 25 27  1  0  0  0
M  CHG 1   8  -1
M  END
> <minimizedAffinity>
-8.97588

$$$$
983


 34 37  0  0  0  0  0  0  0  0999 V2000
   17.7064  -55.0989   34.5473 C   0  0  0  0  0  0  0  0  0  0  0  0
   17.2184  -55.0032   35.8575 C   0  0  0  0  0  0  0  0  0  0  0  0
   16.6969  -56.2486   36.1296 C   0  0  0  0  0  0  0  0  0  0  0  0
   16.8659  -57.0273   35.0517 N   0  0  0  0  0  0  0  0  0  0  0  0
   17.4930  -56.3531   34.0398 C   0  0  0  0  0  0  0  0  0  0  0  0
   16.1262  -56.4720   37.3799 C   0  0  0  0  0  0  0  0  0  0  0  0
   16.0993  -55.4587   38.2983 C   0  0  0  0  0  0  0  0  0  0  0  0
   16.6270  -54.1924   38.0268 C   0  0  0  0  0  0  0  0  0  0  0  0
   17.1992  -53.9722   36.7702 C   0  0  0  0  0  0  0  0  0  0  0  0
   16.5584  -52.8271   39.3448 Br  0  0  0  0  0  0  0  0  0  0  0  0
   15.4008  -58.1745   37.7823 Br  0  0  0  0  0  0  0  0  0  0  0  0
   16.5604  -58.0386   34.9734 H   0  0  0  0  0  0  0  0  0  0  0  0
   17.8623  -56.9241   32.7499 C   0  0  0  0  0  0  0  0  0  0  0  0
   18.9904  -56.5619   32.0798 N   0  0  0  0  0  0  0  0  0  0  0  0
   19.0848  -57.2230   30.9155 C   0  0  0  0  0  0  0  0  0  0  0  0
   17.9954  -58.0562   30.7858 C   0  0  0  0  0  0  0  0  0  0  0  0
   17.2522  -57.8403   31.9520 C   0  0  0  0  0  0  0  0  0  0  0  0
   17.8164  -58.8681   29.6845 C   0  0  0  0  0  0  0  0  0  0  0  0
   18.7443  -58.8693   28.6549 C   0  0  0  0  0  0  0  0  0  0  0  0
   19.8462  -58.0369   28.7705 C   0  0  0  0  0  0  0  0  0  0  0  0
   20.0081  -57.2327   29.8795 C   0  0  0  0  0  0  0  0  0  0  0  0
   21.5470  -56.1111   29.9744 Br  0  0  0  0  0  0  0  0  0  0  0  0
   18.5163  -59.9879   27.1149 Br  0  0  0  0  0  0  0  0  0  0  0  0
   19.7048  -55.8706   32.3978 H   0  0  0  0  0  0  0  0  0  0  0  0
   16.0609  -58.4972   32.2013 O   0  0  0  0  0  0  0  0  0  0  0  0
   15.9915  -59.9656   33.0654 S   0  0  0  0  0  0  0  0  0  0  0  0
   15.5446  -59.7354   34.4797 O   0  0  0  0  0  0  0  0  0  0  0  0
   17.3323  -60.6411   33.1230 O   0  0  0  0  0  0  0  0  0  0  0  0
   14.9524  -61.0425   32.2643 O   0  0  0  0  0  0  0  0  0  0  0  0
   18.3161  -54.0337   33.8939 O   0  0  0  0  0  0  0  0  0  0  0  0
   19.9818  -53.6984   34.1063 S   0  0  0  0  0  0  0  0  0  0  0  0
   20.4491  -54.5522   35.2527 O   0  0  0  0  0  0  0  0  0  0  0  0
   20.7668  -54.0626   32.8703 O   0  0  0  0  0  0  0  0  0  0  0  0
   20.2286  -52.0894   34.5267 O   0  0  0  0  0  0  0  0  0  0  0  0
 31 32  2  0  0  0
 31 33  2  0  0  0
 31 34  1  0  0  0
 31 30  1  0  0  0
 30  1  1  0  0  0
  1  2  1  0  0  0
  1  5  2  0  0  0
  2  3  2  0  0  0
  2  9  1  0  0  0
  3  4  1  0  0  0
  3  6  1  0  0  0
  4  5  1  0  0  0
  5 13  1  0  0  0
 13 14  1  0  0  0
 13 17  2  0  0  0
 14 15  1  0  0  0
 15 16  2  0  0  0
 15 21  1  0  0  0
 16 17  1  0  0  0
 16 18  1  0  0  0
 17 25  1  0  0  0
 25 26  1  0  0  0
 26 27  2  0  0  0
 26 28  2  0  0  0
 26 29  1  0  0  0
 18 19  2  0  0  0
 19 20  1  0  0  0
 19 23  1  0  0  0
 20 21  2  0  0  0
 21 22  1  0  0  0
  6  7  2  0  0  0
  6 11  1  0  0  0
  7  8  1  0  0  0
  8  9  2  0  0  0
  8 10  1  0  0  0
  4 12  1  0  0  0
 14 24  1  0  0  0
M  END
> <minimizedAffinity>
-9.34147

$$$$
985


 28 31  0  0  0  0  0  0  0  0999 V2000
   17.2000  -55.4328   36.1802 N   0  0  0  0  0  0  0  0  0  0  0  0
   17.3803  -54.2703   36.8185 C   0  0  0  0  0  0  0  0  0  0  0  0
   18.0708  -53.1471   36.4805 N   0  0  0  0  0  0  0  0  0  0  0  0
   18.1366  -52.0697   37.2578 C   0  0  0  0  0  0  0  0  0  0  0  0
   17.4902  -52.0897   38.4375 N   0  0  0  0  0  0  0  0  0  0  0  0
   16.7866  -53.1702   38.8340 C   0  0  0  0  0  0  0  0  0  0  0  0
   16.7169  -54.2885   38.0295 C   0  0  0  0  0  0  0  0  0  0  0  0
   16.1298  -55.4916   38.1093 N   0  0  0  0  0  0  0  0  0  0  0  0
   16.4261  -56.1835   36.9841 C   0  0  0  0  0  0  0  0  0  0  0  0
   15.8467  -57.9620   36.5698 Br  0  0  0  0  0  0  0  0  0  0  0  0
   16.1157  -53.1951   40.0531 O   0  0  0  0  0  0  0  0  0  0  0  0
   18.8736  -50.9170   36.8598 N   0  0  0  0  0  0  0  0  0  0  0  0
   15.5676  -52.3522   40.2816 H   0  0  0  0  0  0  0  0  0  0  0  0
   19.8318  -50.8159   37.2586 H   0  0  0  0  0  0  0  0  0  0  0  0
   18.4832  -50.1985   36.1999 H   0  0  0  0  0  0  0  0  0  0  0  0
   19.2833  -56.2298   30.9645 P   0  0  0  0  0  0  0  0  0  0  0  0
   19.9810  -57.5094   31.3700 O   0  0  0  0  0  0  0  0  0  0  0  0
   17.7258  -56.1367   31.6562 O   0  0  0  0  0  0  0  0  0  0  0  0
   17.7844  -55.1292   32.6159 C   0  0  0  0  0  0  0  0  0  0  0  0
   19.1445  -55.2874   33.3066 C   0  0  0  0  0  0  0  0  0  0  0  0
   18.8512  -54.8983   34.5903 O   0  0  0  0  0  0  0  0  0  0  0  0
   17.7682  -55.7252   34.8874 C   0  0  0  0  0  0  0  0  0  0  0  0
   16.8119  -55.3622   33.7528 C   0  0  0  0  0  0  0  0  0  0  0  0
   15.8980  -56.3524   33.4940 O   0  0  0  0  0  0  0  0  0  0  0  0
   20.1271  -54.4383   32.5921 C   0  0  0  0  0  0  0  0  0  0  0  0
   20.1901  -54.8626   31.2604 O   0  0  0  0  0  0  0  0  0  0  0  0
   19.0306  -56.3461   29.2758 O   0  0  0  0  0  0  0  0  0  0  0  0
   14.9799  -55.9495   33.3768 H   0  0  0  0  0  0  0  0  0  0  0  0
 16 17  2  0  0  0
 16 18  1  0  0  0
 16 26  1  0  0  0
 16 27  1  0  0  0
 18 19  1  0  0  0
 19 20  1  0  0  0
 19 23  1  0  0  0
 20 21  1  0  0  0
 20 25  1  0  0  0
 21 22  1  0  0  0
 22 23  1  0  0  0
 22  1  1  0  0  0
 23 24  1  0  0  0
  1  2  1  0  0  0
  1  9  1  0  0  0
  2  3  2  0  0  0
  2  7  1  0  0  0
  3  4  1  0  0  0
  4  5  2  0  0  0
  4 12  1  0  0  0
  5  6  1  0  0  0
  6  7  2  0  0  0
  6 11  1  0  0  0
  7  8  1  0  0  0
  8  9  2  0  0  0
  9 10  1  0  0  0
 25 26  1  0  0  0
 24 28  1  0  0  0
 11 13  1  0  0  0
 12 14  1  0  0  0
 12 15  1  0  0  0
M  END
> <minimizedAffinity>
-9.13783

$$$$
991


 34 39  0  0  0  0  0  0  0  0999 V2000
   13.9677  -59.1629   36.6422 N   0  0  0  0  0  0  0  0  0  0  0  0
   14.6166  -57.9938   36.8716 C   0  0  0  0  0  0  0  0  0  0  0  0
   14.1725  -57.4128   38.0403 C   0  0  0  0  0  0  0  0  0  0  0  0
   13.2351  -58.2568   38.5200 N   0  0  0  0  0  0  0  0  0  0  0  0
   13.1184  -59.3019   37.6755 C   0  0  0  0  0  0  0  0  0  0  0  0
   11.9446  -60.8018   37.8500 Br  0  0  0  0  0  0  0  0  0  0  0  0
   14.7125  -56.2103   38.4507 C   0  0  0  0  0  0  0  0  0  0  0  0
   14.3175  -55.6744   39.5095 O   0  0  0  0  0  0  0  0  0  0  0  0
   15.6727  -55.5726   37.7430 N   0  0  0  0  0  0  0  0  0  0  0  0
   16.0912  -56.1571   36.6058 C   0  0  0  0  0  0  0  0  0  0  0  0
   17.0306  -55.3388   36.0992 N   0  0  0  0  0  0  0  0  0  0  0  0
   17.2220  -54.2571   36.8755 C   0  0  0  0  0  0  0  0  0  0  0  0
   16.3489  -54.4062   37.9325 C   0  0  0  0  0  0  0  0  0  0  0  0
   15.5701  -57.3440   36.1835 N   0  0  0  0  0  0  0  0  0  0  0  0
   15.8989  -57.7942   35.2997 H   0  0  0  0  0  0  0  0  0  0  0  0
   15.3822  -61.2260   31.3951 P   0  0  0  0  0  0  0  0  0  0  0  0
   15.1818  -61.0168   29.6826 S   0  0  0  0  0  0  0  0  0  0  0  0
   13.9919  -60.6207   32.1612 O   0  0  0  0  0  0  0  0  0  0  0  0
   14.4340  -59.8132   33.2052 C   0  0  0  0  0  0  0  0  0  0  0  0
   15.5753  -60.5801   33.8772 C   0  0  0  0  0  0  0  0  0  0  0  0
   15.4921  -60.2159   35.1927 O   0  0  0  0  0  0  0  0  0  0  0  0
   14.1444  -60.0799   35.5190 C   0  0  0  0  0  0  0  0  0  0  0  0
   13.4176  -59.6443   34.2940 C   0  0  0  0  0  0  0  0  0  0  0  0
   12.2996  -60.4531   34.0518 O   0  0  0  0  0  0  0  0  0  0  0  0
   16.8457  -60.1320   33.1949 C   0  0  0  0  0  0  0  0  0  0  0  0
   16.7606  -60.3567   31.8395 O   0  0  0  0  0  0  0  0  0  0  0  0
   15.6513  -62.8469   31.7893 O   0  0  0  0  0  0  0  0  0  0  0  0
   12.5521  -61.3643   33.7986 H   0  0  0  0  0  0  0  0  0  0  0  0
   18.1587  -53.1482   36.6507 C   0  0  0  0  0  0  0  0  0  0  0  0
   18.0236  -51.9722   37.3534 C   0  0  0  0  0  0  0  0  0  0  0  0
   18.8938  -50.9062   37.1632 C   0  0  0  0  0  0  0  0  0  0  0  0
   19.9127  -51.0388   36.2478 C   0  0  0  0  0  0  0  0  0  0  0  0
   20.0832  -52.2059   35.5193 C   0  0  0  0  0  0  0  0  0  0  0  0
   19.1910  -53.2305   35.7495 C   0  0  0  0  0  0  0  0  0  0  0  0
 16 17  2  0  0  0
 16 18  1  0  0  0
 16 26  1  0  0  0
 16 27  1  0  0  0
 18 19  1  0  0  0
 19 20  1  0  0  0
 19 23  1  0  0  0
 20 21  1  0  0  0
 20 25  1  0  0  0
 21 22  1  0  0  0
 22 23  1  0  0  0
 22  1  1  0  0  0
 23 24  1  0  0  0
  1  2  1  0  0  0
  1  5  1  0  0  0
  2  3  2  0  0  0
  2 14  1  0  0  0
  3  4  1  0  0  0
  3  7  1  0  0  0
  4  5  2  0  0  0
  5  6  1  0  0  0
  7  8  2  0  0  0
  7  9  1  0  0  0
  9 10  1  0  0  0
  9 13  1  0  0  0
 10 11  2  0  0  0
 10 14  1  0  0  0
 11 12  1  0  0  0
 12 13  2  0  0  0
 12 29  1  0  0  0
 29 30  2  0  0  0
 29 34  1  0  0  0
 30 31  1  0  0  0
 31 32  2  0  0  0
 32 33  1  0  0  0
 33 34  2  0  0  0
 25 26  1  0  0  0
 24 28  1  0  0  0
 14 15  1  0  0  0
M  END
> <minimizedAffinity>
-10.68720

$$$$
993


 26 29  0  0  0  0  0  0  0  0999 V2000
   17.2612  -57.8286   31.9564 P   0  0  0  0  0  0  0  0  0  0  0  0
   17.7825  -56.1918   31.6478 S   0  0  0  0  0  0  0  0  0  0  0  0
   15.7906  -57.8093   32.8238 O   0  0  0  0  0  0  0  0  0  0  0  0
   16.0893  -57.4067   34.1021 C   0  0  0  0  0  0  0  0  0  0  0  0
   17.0285  -58.4421   34.7352 C   0  0  0  0  0  0  0  0  0  0  0  0
   16.9309  -58.0729   36.0757 O   0  0  0  0  0  0  0  0  0  0  0  0
   15.5865  -57.9413   36.3298 C   0  0  0  0  0  0  0  0  0  0  0  0
   14.9104  -57.5156   35.0511 C   0  0  0  0  0  0  0  0  0  0  0  0
   14.1444  -58.6035   34.6108 O   0  0  0  0  0  0  0  0  0  0  0  0
   18.4180  -58.3193   34.1924 C   0  0  0  0  0  0  0  0  0  0  0  0
   18.3961  -58.6641   32.8531 O   0  0  0  0  0  0  0  0  0  0  0  0
   16.9868  -58.5711   30.4862 O   0  0  0  0  0  0  0  0  0  0  0  0
   13.2162  -58.3697   34.4264 H   0  0  0  0  0  0  0  0  0  0  0  0
   15.2968  -56.9325   37.3312 N   0  0  0  0  0  0  0  0  0  0  0  0
   16.0292  -55.8039   37.5078 C   0  0  0  0  0  0  0  0  0  0  0  0
   17.1320  -55.3269   36.8752 N   0  0  0  0  0  0  0  0  0  0  0  0
   17.6911  -54.1559   37.2380 C   0  0  0  0  0  0  0  0  0  0  0  0
   17.1485  -53.4369   38.2512 N   0  0  0  0  0  0  0  0  0  0  0  0
   16.0569  -53.8757   38.9025 C   0  0  0  0  0  0  0  0  0  0  0  0
   15.4730  -55.0757   38.5396 C   0  0  0  0  0  0  0  0  0  0  0  0
   14.4059  -55.7627   38.9860 N   0  0  0  0  0  0  0  0  0  0  0  0
   14.3112  -56.8876   38.2432 C   0  0  0  0  0  0  0  0  0  0  0  0
   12.9911  -58.2728   38.4017 Br  0  0  0  0  0  0  0  0  0  0  0  0
   15.4958  -53.1047   39.9699 N   0  0  0  0  0  0  0  0  0  0  0  0
   15.7092  -52.0704   40.0080 H   0  0  0  0  0  0  0  0  0  0  0  0
   14.8903  -53.5232   40.7031 H   0  0  0  0  0  0  0  0  0  0  0  0
  1  2  2  0  0  0
  1  3  1  0  0  0
  1 11  1  0  0  0
  1 12  1  0  0  0
  3  4  1  0  0  0
  4  5  1  0  0  0
  4  8  1  0  0  0
  5  6  1  0  0  0
  5 10  1  0  0  0
  6  7  1  0  0  0
  7  8  1  0  0  0
  7 14  1  0  0  0
  8  9  1  0  0  0
 14 15  1  0  0  0
 14 22  1  0  0  0
 15 16  2  0  0  0
 15 20  1  0  0  0
 16 17  1  0  0  0
 17 18  2  0  0  0
 18 19  1  0  0  0
 19 20  2  0  0  0
 19 24  1  0  0  0
 20 21  1  0  0  0
 21 22  2  0  0  0
 22 23  1  0  0  0
 10 11  1  0  0  0
  9 13  1  0  0  0
 24 25  1  0  0  0
 24 26  1  0  0  0
M  END
> <minimizedAffinity>
-8.29774

$$$$
999


 35 38  0  0  0  0  0  0  0  0999 V2000
   11.2847  -59.0577   38.3310 N   0  0  0  0  0  0  0  0  0  0  0  0
   12.3906  -58.7955   37.4853 C   0  0  0  0  0  0  0  0  0  0  0  0
   12.4187  -59.3456   36.3521 O   0  0  0  0  0  0  0  0  0  0  0  0
   11.2835  -58.5878   39.2714 H   0  0  0  0  0  0  0  0  0  0  0  0
   11.6909  -62.2667   38.6315 S   0  0  0  0  0  0  0  0  0  0  0  0
   10.2002  -61.3006   38.4014 C   0  0  0  0  0  0  0  0  0  0  0  0
    9.8522  -60.7069   39.6532 N   0  0  0  0  0  0  0  0  0  0  0  0
   10.2681  -61.0639   40.9745 C   0  0  0  0  0  0  0  0  0  0  0  0
   10.8460  -62.2051   41.1808 C   0  0  0  0  0  0  0  0  0  0  0  0
   11.1266  -63.2359   40.0778 C   0  0  0  0  0  0  0  0  0  0  0  0
    9.0931  -59.8124   38.8587 C   0  0  0  0  0  0  0  0  0  0  0  0
    8.0419  -59.1645   38.7982 O   0  0  0  0  0  0  0  0  0  0  0  0
   10.2480  -59.9273   37.8774 C   0  0  0  0  0  0  0  0  0  0  0  0
    9.9842  -60.0565   42.0380 C   0  0  0  0  0  0  0  0  0  0  0  0
   10.6410  -59.0710   42.2964 O   0  0  0  0  0  0  0  0  0  0  0  0
    8.8450  -60.2349   42.8452 O   0  0  0  0  0  0  0  0  0  0  0  0
   11.3229  -62.6970   42.4481 C   0  0  0  0  0  0  0  0  0  0  0  0
   11.4554  -64.0138   42.7367 O   0  0  0  0  0  0  0  0  0  0  0  0
   11.2771  -64.5437   44.0203 C   0  0  0  0  0  0  0  0  0  0  0  0
   12.2916  -64.6542   44.7334 O   0  0  0  0  0  0  0  0  0  0  0  0
    9.9053  -64.9303   44.4266 C   0  0  0  0  0  0  0  0  0  0  0  0
   13.4886  -57.9119   37.8894 C   0  0  0  0  0  0  0  0  0  0  0  0
   13.4607  -56.6563   38.2103 O   0  0  0  0  0  0  0  0  0  0  0  0
   14.6312  -56.1979   38.5157 C   0  0  0  0  0  0  0  0  0  0  0  0
   15.5388  -57.2551   38.3848 C   0  0  0  0  0  0  0  0  0  0  0  0
   14.7957  -58.3335   37.9863 C   0  0  0  0  0  0  0  0  0  0  0  0
   15.0066  -54.7994   38.9391 C   0  0  0  0  0  0  0  0  0  0  0  0
   16.3889  -54.7003   39.1654 O   0  0  0  0  0  0  0  0  0  0  0  0
   17.2591  -53.8923   38.4913 C   0  0  0  0  0  0  0  0  0  0  0  0
   18.4572  -54.3199   37.9258 C   0  0  0  0  0  0  0  0  0  0  0  0
   19.2600  -53.4176   37.2646 C   0  0  0  0  0  0  0  0  0  0  0  0
   18.9461  -52.0860   37.1238 C   0  0  0  0  0  0  0  0  0  0  0  0
   17.7562  -51.6521   37.6827 C   0  0  0  0  0  0  0  0  0  0  0  0
   16.9414  -52.5568   38.3506 C   0  0  0  0  0  0  0  0  0  0  0  0
   20.0983  -50.8821   36.1956 Br  0  0  0  0  0  0  0  0  0  0  0  0
  5  6  1  0  0  0
  5 10  1  0  0  0
  6  7  1  0  0  0
  6 13  1  0  0  0
  7  8  1  0  0  0
  7 11  1  0  0  0
  8  9  2  0  0  0
  8 14  1  0  0  0
  9 10  1  0  0  0
  9 17  1  0  0  0
 17 18  1  0  0  0
 18 19  1  0  0  0
 19 20  2  0  0  0
 19 21  1  0  0  0
 14 15  2  0  0  0
 14 16  1  0  0  0
 11 12  2  0  0  0
 11 13  1  0  0  0
 13  1  1  0  0  0
  1  2  1  0  0  0
  2  3  2  0  0  0
  2 22  1  0  0  0
 22 23  1  0  0  0
 22 26  2  0  0  0
 23 24  1  0  0  0
 24 25  2  0  0  0
 24 27  1  0  0  0
 25 26  1  0  0  0
 27 28  1  0  0  0
 28 29  1  0  0  0
 29 30  2  0  0  0
 29 34  1  0  0  0
 30 31  1  0  0  0
 31 32  2  0  0  0
 32 33  1  0  0  0
 32 35  1  0  0  0
 33 34  2  0  0  0
  1  4  1  0  0  0
M  END
> <minimizedAffinity>
-8.53782

$$$$
1001


 26 29  0  0  0  0  0  0  0  0999 V2000
   14.4163  -59.8548   33.4727 P   0  0  0  0  0  0  0  0  0  0  0  0
   13.5623  -61.0789   33.8087 O   0  0  0  0  0  0  0  0  0  0  0  0
   15.5841  -59.7101   34.6696 O   0  0  0  0  0  0  0  0  0  0  0  0
   15.6856  -58.4238   35.1326 C   0  0  0  0  0  0  0  0  0  0  0  0
   15.4027  -57.5039   33.9370 C   0  0  0  0  0  0  0  0  0  0  0  0
   16.0829  -56.3473   34.1758 O   0  0  0  0  0  0  0  0  0  0  0  0
   17.1454  -56.5911   35.0013 C   0  0  0  0  0  0  0  0  0  0  0  0
   17.0884  -58.0008   35.4785 C   0  0  0  0  0  0  0  0  0  0  0  0
   18.0061  -58.8337   34.8697 O   0  0  0  0  0  0  0  0  0  0  0  0
   13.9159  -57.3688   33.8607 C   0  0  0  0  0  0  0  0  0  0  0  0
   13.3907  -58.5420   33.3744 O   0  0  0  0  0  0  0  0  0  0  0  0
   15.1546  -60.2051   31.9699 O   0  0  0  0  0  0  0  0  0  0  0  0
   18.2478  -59.6097   35.4008 H   0  0  0  0  0  0  0  0  0  0  0  0
   17.0925  -55.6247   36.0905 N   0  0  0  0  0  0  0  0  0  0  0  0
   16.1757  -55.6028   37.0864 C   0  0  0  0  0  0  0  0  0  0  0  0
   15.1288  -56.4069   37.3381 N   0  0  0  0  0  0  0  0  0  0  0  0
   14.3572  -56.1685   38.4110 C   0  0  0  0  0  0  0  0  0  0  0  0
   14.6386  -55.1310   39.2204 N   0  0  0  0  0  0  0  0  0  0  0  0
   15.6656  -54.2885   39.0321 C   0  0  0  0  0  0  0  0  0  0  0  0
   16.4621  -54.5404   37.9178 C   0  0  0  0  0  0  0  0  0  0  0  0
   17.5377  -53.9233   37.4362 N   0  0  0  0  0  0  0  0  0  0  0  0
   17.9119  -54.5883   36.3284 C   0  0  0  0  0  0  0  0  0  0  0  0
   19.4085  -54.1737   35.1848 Br  0  0  0  0  0  0  0  0  0  0  0  0
   15.9727  -53.1907   39.8793 N   0  0  0  0  0  0  0  0  0  0  0  0
   15.4924  -52.2631   39.6821 H   0  0  0  0  0  0  0  0  0  0  0  0
   16.6237  -53.2304   40.6691 H   0  0  0  0  0  0  0  0  0  0  0  0
  1  2  2  0  0  0
  1  3  1  0  0  0
  1 11  1  0  0  0
  1 12  1  0  0  0
  3  4  1  0  0  0
  4  5  1  0  0  0
  4  8  1  0  0  0
  5  6  1  0  0  0
  5 10  1  0  0  0
  6  7  1  0  0  0
  7  8  1  0  0  0
  7 14  1  0  0  0
  8  9  1  0  0  0
 14 15  1  0  0  0
 14 22  1  0  0  0
 15 16  2  0  0  0
 15 20  1  0  0  0
 16 17  1  0  0  0
 17 18  2  0  0  0
 18 19  1  0  0  0
 19 20  2  0  0  0
 19 24  1  0  0  0
 20 21  1  0  0  0
 21 22  2  0  0  0
 22 23  1  0  0  0
 10 11  1  0  0  0
  9 13  1  0  0  0
 24 25  1  0  0  0
 24 26  1  0  0  0
M  END
> <minimizedAffinity>
-9.05604

$$$$
1008


 29 32  0  0  0  0  0  0  0  0999 V2000
   17.5771  -55.5634   33.1709 C   0  0  0  0  0  0  0  0  0  0  0  0
   16.3336  -55.7340   33.1382 O   0  0  0  0  0  0  0  0  0  0  0  0
   18.1438  -54.6272   34.0859 N   0  0  0  0  0  0  0  0  0  0  0  0
   17.2975  -53.8660   34.9795 C   0  0  0  0  0  0  0  0  0  0  0  0
   17.8724  -53.7195   36.3539 C   0  0  0  0  0  0  0  0  0  0  0  0
   18.9870  -54.7613   36.4815 C   0  0  0  0  0  0  0  0  0  0  0  0
   20.0839  -54.2982   35.5475 C   0  0  0  0  0  0  0  0  0  0  0  0
   19.5673  -54.4187   34.1371 C   0  0  0  0  0  0  0  0  0  0  0  0
   16.8554  -53.8930   37.4398 C   0  0  0  0  0  0  0  0  0  0  0  0
   16.1552  -55.0237   37.7181 N   0  0  0  0  0  0  0  0  0  0  0  0
   15.3367  -54.8180   38.7538 C   0  0  0  0  0  0  0  0  0  0  0  0
   15.5480  -53.5171   39.1165 N   0  0  0  0  0  0  0  0  0  0  0  0
   16.4544  -52.9713   38.3294 N   0  0  0  0  0  0  0  0  0  0  0  0
   14.5427  -56.0335   39.0989 C   0  0  0  0  0  0  0  0  0  0  0  0
   15.2598  -57.0988   38.3289 C   0  0  0  0  0  0  0  0  0  0  0  0
   16.0238  -56.3860   37.2334 C   0  0  0  0  0  0  0  0  0  0  0  0
   19.5627  -56.5578   30.1541 C   0  0  0  0  0  0  0  0  0  0  0  0
   18.7621  -55.8437   31.0154 C   0  0  0  0  0  0  0  0  0  0  0  0
   18.4199  -56.3281   32.2737 C   0  0  0  0  0  0  0  0  0  0  0  0
   18.9117  -57.5618   32.6393 C   0  0  0  0  0  0  0  0  0  0  0  0
   19.7234  -58.2920   31.7716 C   0  0  0  0  0  0  0  0  0  0  0  0
   20.0516  -57.7966   30.5294 C   0  0  0  0  0  0  0  0  0  0  0  0
   18.4896  -58.2904   34.3364 Br  0  0  0  0  0  0  0  0  0  0  0  0
   19.9531  -55.8958   28.5944 S   0  0  0  0  0  0  0  0  0  0  0  0
   18.6814  -55.3860   27.9485 O   0  0  0  0  0  0  0  0  0  0  0  0
   20.5496  -56.9537   27.6987 O   0  0  0  0  0  0  0  0  0  0  0  0
   21.0070  -54.5536   28.7630 N   0  0  0  0  0  0  0  0  0  0  0  0
   21.9797  -54.7799   28.4434 H   0  0  0  0  0  0  0  0  0  0  0  0
   21.0232  -54.2275   29.7615 H   0  0  0  0  0  0  0  0  0  0  0  0
 24 25  2  0  0  0
 24 26  2  0  0  0
 24 27  1  0  0  0
 24 17  1  0  0  0
 17 18  2  0  0  0
 17 22  1  0  0  0
 18 19  1  0  0  0
 19 20  2  0  0  0
 19  1  1  0  0  0
 20 21  1  0  0  0
 20 23  1  0  0  0
 21 22  2  0  0  0
  1  2  2  0  0  0
  1  3  1  0  0  0
  3  4  1  0  0  0
  3  8  1  0  0  0
  4  5  1  0  0  0
  5  6  1  0  0  0
  5  9  1  0  0  0
  6  7  1  0  0  0
  7  8  1  0  0  0
  9 10  1  0  0  0
  9 13  2  0  0  0
 10 11  1  0  0  0
 10 16  1  0  0  0
 11 12  2  0  0  0
 11 14  1  0  0  0
 12 13  1  0  0  0
 14 15  1  0  0  0
 15 16  1  0  0  0
 27 28  1  0  0  0
 27 29  1  0  0  0
M  END
> <minimizedAffinity>
-8.78758

$$$$
1011


 29 32  0  0  0  0  0  0  0  0999 V2000
   14.2656  -58.0122   35.7179 C   0  0  0  0  0  0  0  0  0  0  0  0
   15.1337  -56.9735   36.0690 C   0  0  0  0  0  0  0  0  0  0  0  0
   15.1444  -56.4746   37.3531 C   0  0  0  0  0  0  0  0  0  0  0  0
   14.3138  -56.9635   38.3456 C   0  0  0  0  0  0  0  0  0  0  0  0
   13.4620  -57.9791   38.0125 C   0  0  0  0  0  0  0  0  0  0  0  0
   13.4456  -58.4910   36.7107 C   0  0  0  0  0  0  0  0  0  0  0  0
   12.2398  -59.9088   36.2495 Br  0  0  0  0  0  0  0  0  0  0  0  0
   14.5586  -56.2098   39.6071 C   0  0  0  0  0  0  0  0  0  0  0  0
   15.2383  -54.9289   39.0780 C   0  0  0  0  0  0  0  0  0  0  0  0
   15.9554  -55.4265   37.9150 N   0  0  0  0  0  0  0  0  0  0  0  0
   17.2021  -55.0249   37.3817 C   0  0  0  0  0  0  0  0  0  0  0  0
   17.7156  -55.5622   36.3733 O   0  0  0  0  0  0  0  0  0  0  0  0
   17.9359  -53.9204   38.0438 C   0  0  0  0  0  0  0  0  0  0  0  0
   19.3755  -53.8567   37.7333 C   0  0  0  0  0  0  0  0  0  0  0  0
   18.9113  -54.2112   39.1248 C   0  0  0  0  0  0  0  0  0  0  0  0
   14.2772  -58.6279   34.0872 S   0  0  0  0  0  0  0  0  0  0  0  0
   14.3736  -60.1491   34.1090 O   0  0  0  0  0  0  0  0  0  0  0  0
   13.0166  -58.3065   33.3584 O   0  0  0  0  0  0  0  0  0  0  0  0
   15.6760  -58.0841   33.2423 N   0  0  0  0  0  0  0  0  0  0  0  0
   15.4007  -57.8828   32.2611 H   0  0  0  0  0  0  0  0  0  0  0  0
   16.7654  -59.0383   33.2905 C   0  0  0  0  0  0  0  0  0  0  0  0
   17.7012  -58.5616   34.3912 C   0  0  0  0  0  0  0  0  0  0  0  0
   19.0375  -58.1605   33.8255 C   0  0  0  0  0  0  0  0  0  0  0  0
   18.8308  -57.2578   32.7559 N   0  0  0  0  0  0  0  0  0  0  0  0
   18.7454  -55.8819   33.0935 C   0  0  0  0  0  0  0  0  0  0  0  0
   18.0352  -55.1541   31.9645 C   0  0  0  0  0  0  0  0  0  0  0  0
   18.4700  -55.5884   30.7283 O   0  0  0  0  0  0  0  0  0  0  0  0
   19.6900  -56.2526   30.7705 C   0  0  0  0  0  0  0  0  0  0  0  0
   19.4551  -57.5659   31.5225 C   0  0  0  0  0  0  0  0  0  0  0  0
 16 17  2  0  0  0
 16 18  2  0  0  0
 16 19  1  0  0  0
 16  1  1  0  0  0
 19 21  1  0  0  0
 21 22  1  0  0  0
 22 23  1  0  0  0
 23 24  1  0  0  0
 24 25  1  0  0  0
 24 29  1  0  0  0
 25 26  1  0  0  0
 26 27  1  0  0  0
 27 28  1  0  0  0
 28 29  1  0  0  0
  1  2  2  0  0  0
  1  6  1  0  0  0
  2  3  1  0  0  0
  3  4  2  0  0  0
  3 10  1  0  0  0
  4  5  1  0  0  0
  4  8  1  0  0  0
  5  6  2  0  0  0
  6  7  1  0  0  0
  8  9  1  0  0  0
  9 10  1  0  0  0
 10 11  1  0  0  0
 11 12  2  0  0  0
 11 13  1  0  0  0
 13 14  1  0  0  0
 13 15  1  0  0  0
 14 15  1  0  0  0
 19 20  1  0  0  0
M  END
> <minimizedAffinity>
-8.53055

$$$$
1027


 32 35  0  0  0  0  0  0  0  0999 V2000
   16.1495  -57.9228   36.6844 S   0  0  0  0  0  0  0  0  0  0  0  0
   17.5364  -58.0014   36.0457 O   0  0  0  0  0  0  0  0  0  0  0  0
   16.1603  -59.0164   37.7271 O   0  0  0  0  0  0  0  0  0  0  0  0
   16.0517  -56.3584   37.4455 C   0  0  0  0  0  0  0  0  0  0  0  0
   17.0200  -55.4002   37.1194 C   0  0  0  0  0  0  0  0  0  0  0  0
   17.0909  -54.1536   37.6988 C   0  0  0  0  0  0  0  0  0  0  0  0
   16.1730  -53.7901   38.6603 C   0  0  0  0  0  0  0  0  0  0  0  0
   15.2153  -54.7161   38.9918 C   0  0  0  0  0  0  0  0  0  0  0  0
   15.1469  -55.9865   38.3963 C   0  0  0  0  0  0  0  0  0  0  0  0
   13.7015  -57.1550   38.8686 Br  0  0  0  0  0  0  0  0  0  0  0  0
   16.4367  -52.4107   39.1378 C   0  0  0  0  0  0  0  0  0  0  0  0
   17.3252  -51.8624   38.0203 C   0  0  0  0  0  0  0  0  0  0  0  0
   17.9872  -53.0571   37.5074 N   0  0  0  0  0  0  0  0  0  0  0  0
   19.2766  -53.0794   36.9474 C   0  0  0  0  0  0  0  0  0  0  0  0
   19.9151  -51.9752   36.8396 O   0  0  0  0  0  0  0  0  0  0  0  0
   19.9897  -54.2841   36.4591 C   0  0  0  0  0  0  0  0  0  0  0  0
   15.0232  -58.2596   35.4897 N   0  0  0  0  0  0  0  0  0  0  0  0
   14.9412  -59.5178   34.8997 C   0  0  0  0  0  0  0  0  0  0  0  0
   15.8414  -59.7425   33.7468 C   0  0  0  0  0  0  0  0  0  0  0  0
   16.2383  -60.8954   33.4514 O   0  0  0  0  0  0  0  0  0  0  0  0
   16.2202  -58.5867   33.0075 N   0  0  0  0  0  0  0  0  0  0  0  0
   15.4880  -57.4000   33.2654 C   0  0  0  0  0  0  0  0  0  0  0  0
   15.4126  -56.5355   32.3477 O   0  0  0  0  0  0  0  0  0  0  0  0
   14.8223  -57.1557   34.5619 C   0  0  0  0  0  0  0  0  0  0  0  0
   17.2983  -58.6528   32.0441 C   0  0  0  0  0  0  0  0  0  0  0  0
   18.6405  -58.3009   32.5860 C   0  0  0  0  0  0  0  0  0  0  0  0
   19.0924  -56.9333   32.3377 C   0  0  0  0  0  0  0  0  0  0  0  0
   19.7374  -56.5757   31.1864 C   0  0  0  0  0  0  0  0  0  0  0  0
   20.1377  -55.2799   31.0187 C   0  0  0  0  0  0  0  0  0  0  0  0
   19.9094  -54.3076   31.9863 C   0  0  0  0  0  0  0  0  0  0  0  0
   19.2622  -54.6900   33.1291 C   0  0  0  0  0  0  0  0  0  0  0  0
   18.8461  -55.9837   33.3301 C   0  0  0  0  0  0  0  0  0  0  0  0
  1  2  2  0  0  0
  1  3  2  0  0  0
  1 17  1  0  0  0
  1  4  1  0  0  0
 17 18  1  0  0  0
 17 24  1  0  0  0
 18 19  1  0  0  0
 19 20  2  0  0  0
 19 21  1  0  0  0
 21 22  1  0  0  0
 21 25  1  0  0  0
 22 23  2  0  0  0
 22 24  1  0  0  0
 25 26  1  0  0  0
 26 27  1  0  0  0
 27 28  2  0  0  0
 27 32  1  0  0  0
 28 29  1  0  0  0
 29 30  2  0  0  0
 30 31  1  0  0  0
 31 32  2  0  0  0
  4  5  2  0  0  0
  4  9  1  0  0  0
  5  6  1  0  0  0
  6  7  2  0  0  0
  6 13  1  0  0  0
  7  8  1  0  0  0
  7 11  1  0  0  0
  8  9  2  0  0  0
  9 10  1  0  0  0
 11 12  1  0  0  0
 12 13  1  0  0  0
 13 14  1  0  0  0
 14 15  2  0  0  0
 14 16  1  0  0  0
M  END
> <minimizedAffinity>
-10.24858

$$$$
1028


 25 28  0  0  0  0  0  0  0  0999 V2000
   15.3725  -58.2912   34.4524 N   0  0  0  0  0  0  0  0  0  0  0  0
   16.2452  -58.0387   33.3620 C   0  0  0  0  0  0  0  0  0  0  0  0
   16.1740  -56.5808   33.5996 C   0  0  0  0  0  0  0  0  0  0  0  0
   15.4325  -56.9275   34.8431 C   0  0  0  0  0  0  0  0  0  0  0  0
   17.4299  -55.9063   33.8653 N   0  0  0  0  0  0  0  0  0  0  0  0
   18.2927  -55.4264   33.0079 N   0  0  0  0  0  0  0  0  0  0  0  0
   19.3318  -54.8763   33.6506 N   0  0  0  0  0  0  0  0  0  0  0  0
   19.1348  -55.0043   34.9743 C   0  0  0  0  0  0  0  0  0  0  0  0
   17.9192  -55.6631   35.0925 C   0  0  0  0  0  0  0  0  0  0  0  0
   20.0277  -54.5405   36.0887 C   0  0  0  0  0  0  0  0  0  0  0  0
   19.4394  -53.3419   36.6580 N   0  0  0  0  0  0  0  0  0  0  0  0
   19.6594  -52.0040   36.1973 C   0  0  0  0  0  0  0  0  0  0  0  0
   18.7824  -51.1247   37.0423 C   0  0  0  0  0  0  0  0  0  0  0  0
   17.8569  -51.9957   37.8284 C   0  0  0  0  0  0  0  0  0  0  0  0
   18.5487  -53.3302   37.7694 C   0  0  0  0  0  0  0  0  0  0  0  0
   18.3405  -54.2455   38.5862 O   0  0  0  0  0  0  0  0  0  0  0  0
   13.8234  -58.8945   34.1588 S   0  0  0  0  0  0  0  0  0  0  0  0
   13.9384  -60.1743   33.3812 O   0  0  0  0  0  0  0  0  0  0  0  0
   12.9976  -57.9542   33.3134 O   0  0  0  0  0  0  0  0  0  0  0  0
   12.9213  -59.2703   35.6252 C   0  0  0  0  0  0  0  0  0  0  0  0
   13.4088  -59.0316   37.2514 S   0  0  0  0  0  0  0  0  0  0  0  0
   12.0209  -59.6320   38.0451 C   0  0  0  0  0  0  0  0  0  0  0  0
   11.2130  -60.0037   37.0018 C   0  0  0  0  0  0  0  0  0  0  0  0
   11.6797  -59.8152   35.7660 C   0  0  0  0  0  0  0  0  0  0  0  0
   11.6504  -59.7675   39.9307 Br  0  0  0  0  0  0  0  0  0  0  0  0
 17 18  2  0  0  0
 17 19  2  0  0  0
 17  1  1  0  0  0
 17 20  1  0  0  0
  1  2  1  0  0  0
  1  4  1  0  0  0
  2  3  1  0  0  0
  3  4  1  0  0  0
  3  5  1  0  0  0
  5  6  1  0  0  0
  5  9  1  0  0  0
  6  7  2  0  0  0
  7  8  1  0  0  0
  8  9  2  0  0  0
  8 10  1  0  0  0
 10 11  1  0  0  0
 11 12  1  0  0  0
 11 15  1  0  0  0
 12 13  1  0  0  0
 13 14  1  0  0  0
 14 15  1  0  0  0
 15 16  2  0  0  0
 20 21  1  0  0  0
 20 24  2  0  0  0
 21 22  1  0  0  0
 22 23  2  0  0  0
 22 25  1  0  0  0
 23 24  1  0  0  0
M  END
> <minimizedAffinity>
-8.62707

$$$$
1037


 31 34  0  0  0  0  0  0  0  0999 V2000
   18.2759  -57.5104   32.8053 N   0  0  0  0  0  0  0  0  0  0  0  0
   18.9085  -56.4422   32.1097 C   0  0  0  0  0  0  0  0  0  0  0  0
   19.2765  -55.2433   32.8523 C   0  0  0  0  0  0  0  0  0  0  0  0
   19.2807  -55.3044   34.3009 N   0  0  0  0  0  0  0  0  0  0  0  0
   18.6799  -56.4061   34.9880 C   0  0  0  0  0  0  0  0  0  0  0  0
   18.6958  -57.6783   34.1492 C   0  0  0  0  0  0  0  0  0  0  0  0
   19.9092  -54.2703   34.9966 C   0  0  0  0  0  0  0  0  0  0  0  0
   20.5200  -53.4249   34.1392 O   0  0  0  0  0  0  0  0  0  0  0  0
   16.6152  -57.7049   32.5310 S   0  0  0  0  0  0  0  0  0  0  0  0
   16.4058  -58.7746   31.4947 O   0  0  0  0  0  0  0  0  0  0  0  0
   16.0206  -56.4330   31.9508 O   0  0  0  0  0  0  0  0  0  0  0  0
   15.7050  -58.2077   33.9401 C   0  0  0  0  0  0  0  0  0  0  0  0
   15.5282  -57.3272   35.0065 C   0  0  0  0  0  0  0  0  0  0  0  0
   14.8341  -57.6683   36.1471 C   0  0  0  0  0  0  0  0  0  0  0  0
   14.2748  -58.9187   36.2843 C   0  0  0  0  0  0  0  0  0  0  0  0
   14.4457  -59.7943   35.2344 C   0  0  0  0  0  0  0  0  0  0  0  0
   15.1448  -59.4577   34.0810 C   0  0  0  0  0  0  0  0  0  0  0  0
   13.5658  -59.2774   37.4480 O   0  0  0  0  0  0  0  0  0  0  0  0
   12.9449  -58.2516   38.2427 C   0  0  0  0  0  0  0  0  0  0  0  0
   13.9624  -57.1784   38.3861 C   0  0  0  0  0  0  0  0  0  0  0  0
   14.2171  -56.6374   39.4862 O   0  0  0  0  0  0  0  0  0  0  0  0
   14.6746  -56.7478   37.2400 N   0  0  0  0  0  0  0  0  0  0  0  0
   15.0956  -55.8143   37.1279 H   0  0  0  0  0  0  0  0  0  0  0  0
   20.0365  -53.9297   36.3839 C   0  0  0  0  0  0  0  0  0  0  0  0
   18.9250  -53.3487   37.1332 C   0  0  0  0  0  0  0  0  0  0  0  0
   18.7237  -51.9910   37.1783 C   0  0  0  0  0  0  0  0  0  0  0  0
   17.6551  -51.4494   37.8921 C   0  0  0  0  0  0  0  0  0  0  0  0
   16.7985  -52.2806   38.5517 C   0  0  0  0  0  0  0  0  0  0  0  0
   16.9959  -53.6619   38.5074 C   0  0  0  0  0  0  0  0  0  0  0  0
   18.0385  -54.1861   37.8118 C   0  0  0  0  0  0  0  0  0  0  0  0
   19.9188  -50.8025   36.2646 Br  0  0  0  0  0  0  0  0  0  0  0  0
  9 10  2  0  0  0
  9 11  2  0  0  0
  9  1  1  0  0  0
  9 12  1  0  0  0
  1  2  1  0  0  0
  1  6  1  0  0  0
  2  3  1  0  0  0
  3  4  1  0  0  0
  4  5  1  0  0  0
  4  7  1  0  0  0
  5  6  1  0  0  0
  7  8  2  0  0  0
  7 24  1  0  0  0
 24 25  1  0  0  0
 25 26  2  0  0  0
 25 30  1  0  0  0
 26 27  1  0  0  0
 26 31  1  0  0  0
 27 28  2  0  0  0
 28 29  1  0  0  0
 29 30  2  0  0  0
 12 13  2  0  0  0
 12 17  1  0  0  0
 13 14  1  0  0  0
 14 15  2  0  0  0
 14 22  1  0  0  0
 15 16  1  0  0  0
 15 18  1  0  0  0
 16 17  2  0  0  0
 18 19  1  0  0  0
 19 20  1  0  0  0
 20 21  2  0  0  0
 20 22  1  0  0  0
 22 23  1  0  0  0
M  END
> <minimizedAffinity>
-10.66698

$$$$
1040


 34 38  0  0  0  0  0  0  0  0999 V2000
   16.5203  -57.0089   34.0096 S   0  0  0  0  0  0  0  0  0  0  0  0
   15.9192  -56.6301   32.7112 O   0  0  0  0  0  0  0  0  0  0  0  0
   17.4633  -58.1721   33.6810 O   0  0  0  0  0  0  0  0  0  0  0  0
   17.5256  -55.7934   34.7343 C   0  0  0  0  0  0  0  0  0  0  0  0
   18.4375  -55.0366   33.9855 C   0  0  0  0  0  0  0  0  0  0  0  0
   19.2357  -54.0735   34.5693 C   0  0  0  0  0  0  0  0  0  0  0  0
   19.1664  -53.8151   35.9232 C   0  0  0  0  0  0  0  0  0  0  0  0
   18.2800  -54.5506   36.6603 C   0  0  0  0  0  0  0  0  0  0  0  0
   17.4815  -55.5179   36.0589 C   0  0  0  0  0  0  0  0  0  0  0  0
   16.5856  -56.2345   36.9821 C   0  0  0  0  0  0  0  0  0  0  0  0
   15.8311  -55.2642   37.8646 C   0  0  0  0  0  0  0  0  0  0  0  0
   16.6830  -54.2434   38.3447 N   0  0  0  0  0  0  0  0  0  0  0  0
   18.0860  -54.3897   38.1196 C   0  0  0  0  0  0  0  0  0  0  0  0
   16.1868  -52.9134   38.2913 C   0  0  0  0  0  0  0  0  0  0  0  0
   20.0098  -53.5184   33.5740 O   0  0  0  0  0  0  0  0  0  0  0  0
   19.7969  -54.2259   32.3851 C   0  0  0  0  0  0  0  0  0  0  0  0
   18.7009  -55.0964   32.6205 O   0  0  0  0  0  0  0  0  0  0  0  0
   19.9789  -52.8330   36.5267 O   0  0  0  0  0  0  0  0  0  0  0  0
   19.6123  -51.4541   36.3764 C   0  0  0  0  0  0  0  0  0  0  0  0
   15.3934  -57.6722   35.1282 N   0  0  0  0  0  0  0  0  0  0  0  0
   15.6870  -59.0037   35.5324 C   0  0  0  0  0  0  0  0  0  0  0  0
   15.1018  -60.0759   34.6223 C   0  0  0  0  0  0  0  0  0  0  0  0
   13.7115  -59.8212   34.4465 N   0  0  0  0  0  0  0  0  0  0  0  0
   13.4607  -58.4814   33.8238 C   0  0  0  0  0  0  0  0  0  0  0  0
   14.0342  -57.4698   34.7573 C   0  0  0  0  0  0  0  0  0  0  0  0
   12.5940  -60.5751   34.7437 C   0  0  0  0  0  0  0  0  0  0  0  0
   11.4447  -60.0059   34.4392 O   0  0  0  0  0  0  0  0  0  0  0  0
   12.4556  -61.8769   35.3288 C   0  0  0  0  0  0  0  0  0  0  0  0
   12.1789  -62.0041   36.7133 N   0  0  0  0  0  0  0  0  0  0  0  0
   12.0250  -63.1254   37.4153 N   0  0  0  0  0  0  0  0  0  0  0  0
   11.8129  -62.8541   38.7091 C   0  0  0  0  0  0  0  0  0  0  0  0
   11.8361  -61.4851   38.8166 C   0  0  0  0  0  0  0  0  0  0  0  0
   12.0627  -60.9625   37.5788 C   0  0  0  0  0  0  0  0  0  0  0  0
   11.5906  -60.4738   40.4348 Br  0  0  0  0  0  0  0  0  0  0  0  0
  1  2  2  0  0  0
  1  3  2  0  0  0
  1 20  1  0  0  0
  1  4  1  0  0  0
 20 21  1  0  0  0
 20 25  1  0  0  0
 21 22  1  0  0  0
 22 23  1  0  0  0
 23 24  1  0  0  0
 23 26  1  0  0  0
 24 25  1  0  0  0
 26 27  2  0  0  0
 26 28  1  0  0  0
 28 29  1  0  0  0
 29 30  1  0  0  0
 29 33  1  0  0  0
 30 31  2  0  0  0
 31 32  1  0  0  0
 32 33  2  0  0  0
 32 34  1  0  0  0
  4  5  2  0  0  0
  4  9  1  0  0  0
  5  6  1  0  0  0
  5 17  1  0  0  0
  6  7  2  0  0  0
  6 15  1  0  0  0
  7  8  1  0  0  0
  7 18  1  0  0  0
  8  9  2  0  0  0
  8 13  1  0  0  0
  9 10  1  0  0  0
 10 11  1  0  0  0
 11 12  1  0  0  0
 12 13  1  0  0  0
 12 14  1  0  0  0
 18 19  1  0  0  0
 15 16  1  0  0  0
 16 17  1  0  0  0
M  END
> <minimizedAffinity>
-9.27843

$$$$
1042


 31 34  0  0  0  0  0  0  0  0999 V2000
   16.3187  -57.1447   33.8204 N   0  0  0  0  0  0  0  0  0  0  0  0
   16.3400  -56.1135   32.8956 C   0  0  0  0  0  0  0  0  0  0  0  0
   17.8183  -55.8565   32.4939 C   0  0  0  0  0  0  0  0  0  0  0  0
   18.6154  -55.6807   33.6758 N   0  0  0  0  0  0  0  0  0  0  0  0
   18.6293  -56.7743   34.6202 C   0  0  0  0  0  0  0  0  0  0  0  0
   17.5704  -57.7574   34.1709 C   0  0  0  0  0  0  0  0  0  0  0  0
   19.3651  -54.5205   33.9477 C   0  0  0  0  0  0  0  0  0  0  0  0
   19.3490  -53.5768   33.1254 O   0  0  0  0  0  0  0  0  0  0  0  0
   14.9422  -57.9338   34.2966 S   0  0  0  0  0  0  0  0  0  0  0  0
   13.7535  -57.3206   33.5442 O   0  0  0  0  0  0  0  0  0  0  0  0
   14.9255  -59.3927   33.8298 O   0  0  0  0  0  0  0  0  0  0  0  0
   14.5013  -57.8782   35.9751 C   0  0  0  0  0  0  0  0  0  0  0  0
   13.4084  -58.4713   36.5481 C   0  0  0  0  0  0  0  0  0  0  0  0
   13.1138  -58.3219   37.9080 C   0  0  0  0  0  0  0  0  0  0  0  0
   13.8994  -57.5795   38.7320 C   0  0  0  0  0  0  0  0  0  0  0  0
   15.0019  -56.9753   38.1903 C   0  0  0  0  0  0  0  0  0  0  0  0
   15.2945  -57.1185   36.8551 C   0  0  0  0  0  0  0  0  0  0  0  0
   12.2955  -59.5834   35.4878 Br  0  0  0  0  0  0  0  0  0  0  0  0
   20.1588  -54.4026   35.1720 C   0  0  0  0  0  0  0  0  0  0  0  0
   19.5445  -53.4503   36.0932 N   0  0  0  0  0  0  0  0  0  0  0  0
   19.6508  -52.0425   36.1407 C   0  0  0  0  0  0  0  0  0  0  0  0
   20.3413  -51.3332   35.3377 O   0  0  0  0  0  0  0  0  0  0  0  0
   18.8565  -51.5906   37.2305 N   0  0  0  0  0  0  0  0  0  0  0  0
   17.9161  -52.6387   37.5295 C   0  0  0  0  0  0  0  0  0  0  0  0
   16.6223  -52.5168   36.7927 C   0  0  0  0  0  0  0  0  0  0  0  0
   15.7246  -53.4774   37.5827 C   0  0  0  0  0  0  0  0  0  0  0  0
   16.1635  -53.2902   39.0089 C   0  0  0  0  0  0  0  0  0  0  0  0
   17.5084  -52.6418   38.9846 C   0  0  0  0  0  0  0  0  0  0  0  0
   18.6752  -53.8596   37.1687 C   0  0  0  0  0  0  0  0  0  0  0  0
   18.5742  -54.9924   37.6910 O   0  0  0  0  0  0  0  0  0  0  0  0
   18.9982  -50.6499   37.6755 H   0  0  0  0  0  0  0  0  0  0  0  0
  9 10  2  0  0  0
  9 11  2  0  0  0
  9  1  1  0  0  0
  9 12  1  0  0  0
  1  2  1  0  0  0
  1  6  1  0  0  0
  2  3  1  0  0  0
  3  4  1  0  0  0
  4  5  1  0  0  0
  4  7  1  0  0  0
  5  6  1  0  0  0
  7  8  2  0  0  0
  7 19  1  0  0  0
 19 20  1  0  0  0
 20 21  1  0  0  0
 20 29  1  0  0  0
 21 22  2  0  0  0
 21 23  1  0  0  0
 23 24  1  0  0  0
 24 25  1  0  0  0
 24 28  1  0  0  0
 24 29  1  0  0  0
 25 26  1  0  0  0
 26 27  1  0  0  0
 27 28  1  0  0  0
 29 30  2  0  0  0
 12 13  2  0  0  0
 12 17  1  0  0  0
 13 14  1  0  0  0
 13 18  1  0  0  0
 14 15  2  0  0  0
 15 16  1  0  0  0
 16 17  2  0  0  0
 23 31  1  0  0  0
M  END
> <minimizedAffinity>
-9.66489

$$$$
1043


 31 34  0  0  0  0  0  0  0  0999 V2000
   14.6296  -58.3882   34.6701 N   0  0  0  0  0  0  0  0  0  0  0  0
   15.8529  -58.7429   35.3578 C   0  0  0  0  0  0  0  0  0  0  0  0
   17.0584  -58.5140   34.4805 C   0  0  0  0  0  0  0  0  0  0  0  0
   16.9642  -57.1282   33.9763 N   0  0  0  0  0  0  0  0  0  0  0  0
   15.7566  -56.8108   33.2797 C   0  0  0  0  0  0  0  0  0  0  0  0
   14.8689  -58.0773   33.3047 C   0  0  0  0  0  0  0  0  0  0  0  0
   18.0083  -56.2176   34.1929 C   0  0  0  0  0  0  0  0  0  0  0  0
   19.0283  -56.7062   34.8696 O   0  0  0  0  0  0  0  0  0  0  0  0
   13.3628  -59.5011   34.9349 S   0  0  0  0  0  0  0  0  0  0  0  0
   13.8427  -60.8488   34.4272 O   0  0  0  0  0  0  0  0  0  0  0  0
   12.1867  -59.1322   34.0660 O   0  0  0  0  0  0  0  0  0  0  0  0
   12.8722  -59.5996   36.6087 C   0  0  0  0  0  0  0  0  0  0  0  0
   13.1243  -58.5849   37.5099 C   0  0  0  0  0  0  0  0  0  0  0  0
   12.7300  -58.6730   38.8400 C   0  0  0  0  0  0  0  0  0  0  0  0
   12.0711  -59.7822   39.3034 C   0  0  0  0  0  0  0  0  0  0  0  0
   11.8125  -60.8032   38.4135 C   0  0  0  0  0  0  0  0  0  0  0  0
   12.2081  -60.7088   37.0875 C   0  0  0  0  0  0  0  0  0  0  0  0
   11.5207  -59.9118   41.1446 Br  0  0  0  0  0  0  0  0  0  0  0  0
   18.1961  -54.8381   33.8218 C   0  0  0  0  0  0  0  0  0  0  0  0
   18.5765  -53.8694   34.8011 N   0  0  0  0  0  0  0  0  0  0  0  0
   19.8084  -53.1054   34.8558 C   0  0  0  0  0  0  0  0  0  0  0  0
   20.7152  -53.2118   33.9837 O   0  0  0  0  0  0  0  0  0  0  0  0
   19.7585  -52.2854   36.0118 N   0  0  0  0  0  0  0  0  0  0  0  0
   18.7650  -52.8282   36.8750 C   0  0  0  0  0  0  0  0  0  0  0  0
   19.3216  -53.7782   37.9081 C   0  0  0  0  0  0  0  0  0  0  0  0
   18.1424  -53.9217   38.8513 C   0  0  0  0  0  0  0  0  0  0  0  0
   17.3677  -52.6301   38.7502 C   0  0  0  0  0  0  0  0  0  0  0  0
   18.1062  -51.7747   37.7486 C   0  0  0  0  0  0  0  0  0  0  0  0
   17.8185  -53.4639   35.9599 C   0  0  0  0  0  0  0  0  0  0  0  0
   16.5833  -53.6423   36.1135 O   0  0  0  0  0  0  0  0  0  0  0  0
   20.3816  -51.4403   36.1348 H   0  0  0  0  0  0  0  0  0  0  0  0
  9 10  2  0  0  0
  9 11  2  0  0  0
  9  1  1  0  0  0
  9 12  1  0  0  0
  1  2  1  0  0  0
  1  6  1  0  0  0
  2  3  1  0  0  0
  3  4  1  0  0  0
  4  5  1  0  0  0
  4  7  1  0  0  0
  5  6  1  0  0  0
  7  8  2  0  0  0
  7 19  1  0  0  0
 19 20  1  0  0  0
 20 21  1  0  0  0
 20 29  1  0  0  0
 21 22  2  0  0  0
 21 23  1  0  0  0
 23 24  1  0  0  0
 24 25  1  0  0  0
 24 28  1  0  0  0
 24 29  1  0  0  0
 25 26  1  0  0  0
 26 27  1  0  0  0
 27 28  1  0  0  0
 29 30  2  0  0  0
 12 13  2  0  0  0
 12 17  1  0  0  0
 13 14  1  0  0  0
 14 15  2  0  0  0
 15 16  1  0  0  0
 15 18  1  0  0  0
 16 17  2  0  0  0
 23 31  1  0  0  0
M  END
> <minimizedAffinity>
-9.93452

$$$$
1044


 30 33  0  0  0  0  0  0  0  0999 V2000
   15.9314  -57.7823   33.1514 S   0  0  0  0  0  0  0  0  0  0  0  0
   15.0306  -58.9495   33.2642 O   0  0  0  0  0  0  0  0  0  0  0  0
   15.0593  -56.5809   32.8081 O   0  0  0  0  0  0  0  0  0  0  0  0
   17.0464  -57.9551   31.8008 C   0  0  0  0  0  0  0  0  0  0  0  0
   17.6442  -56.8579   31.2159 C   0  0  0  0  0  0  0  0  0  0  0  0
   18.5228  -56.9603   30.1567 C   0  0  0  0  0  0  0  0  0  0  0  0
   18.8409  -58.1964   29.6325 C   0  0  0  0  0  0  0  0  0  0  0  0
   18.2426  -59.3014   30.2184 C   0  0  0  0  0  0  0  0  0  0  0  0
   17.3654  -59.1916   31.2771 C   0  0  0  0  0  0  0  0  0  0  0  0
   19.7243  -58.3321   28.5631 O   0  0  0  0  0  0  0  0  0  0  0  0
   20.1726  -57.2556   27.7620 C   0  0  0  0  0  0  0  0  0  0  0  0
   20.0441  -55.9500   28.4571 C   0  0  0  0  0  0  0  0  0  0  0  0
   20.7530  -55.0013   28.0355 O   0  0  0  0  0  0  0  0  0  0  0  0
   19.1398  -55.8323   29.5498 N   0  0  0  0  0  0  0  0  0  0  0  0
   18.9099  -54.8914   29.9340 H   0  0  0  0  0  0  0  0  0  0  0  0
   16.7793  -57.4102   34.5663 N   0  0  0  0  0  0  0  0  0  0  0  0
   16.1316  -57.6192   35.7849 C   0  0  0  0  0  0  0  0  0  0  0  0
   16.5908  -56.8039   36.9414 C   0  0  0  0  0  0  0  0  0  0  0  0
   17.1812  -55.5505   36.5928 N   0  0  0  0  0  0  0  0  0  0  0  0
   17.2732  -55.1819   35.1968 C   0  0  0  0  0  0  0  0  0  0  0  0
   17.7810  -56.4282   34.4749 C   0  0  0  0  0  0  0  0  0  0  0  0
   17.6828  -54.6511   37.5641 C   0  0  0  0  0  0  0  0  0  0  0  0
   17.6232  -54.9324   38.8040 O   0  0  0  0  0  0  0  0  0  0  0  0
   18.2885  -53.3694   37.2267 C   0  0  0  0  0  0  0  0  0  0  0  0
   17.7861  -52.1685   37.6926 C   0  0  0  0  0  0  0  0  0  0  0  0
   18.3497  -50.9528   37.3813 C   0  0  0  0  0  0  0  0  0  0  0  0
   19.4695  -50.9455   36.5642 C   0  0  0  0  0  0  0  0  0  0  0  0
   20.0128  -52.1089   36.0722 C   0  0  0  0  0  0  0  0  0  0  0  0
   19.4109  -53.3002   36.4126 C   0  0  0  0  0  0  0  0  0  0  0  0
   16.2421  -52.2557   38.8132 Br  0  0  0  0  0  0  0  0  0  0  0  0
  1  2  2  0  0  0
  1  3  2  0  0  0
  1 16  1  0  0  0
  1  4  1  0  0  0
 16 17  1  0  0  0
 16 21  1  0  0  0
 17 18  1  0  0  0
 18 19  1  0  0  0
 19 20  1  0  0  0
 19 22  1  0  0  0
 20 21  1  0  0  0
 22 23  2  0  0  0
 22 24  1  0  0  0
 24 25  2  0  0  0
 24 29  1  0  0  0
 25 26  1  0  0  0
 25 30  1  0  0  0
 26 27  2  0  0  0
 27 28  1  0  0  0
 28 29  2  0  0  0
  4  5  2  0  0  0
  4  9  1  0  0  0
  5  6  1  0  0  0
  6  7  2  0  0  0
  6 14  1  0  0  0
  7  8  1  0  0  0
  7 10  1  0  0  0
  8  9  2  0  0  0
 10 11  1  0  0  0
 11 12  1  0  0  0
 12 13  2  0  0  0
 12 14  1  0  0  0
 14 15  1  0  0  0
M  END
> <minimizedAffinity>
-10.12824

$$$$
1051


 27 30  0  0  0  0  0  0  0  0999 V2000
   13.7287  -59.9468   33.7482 N   0  0  0  0  0  0  0  0  0  0  0  0
   13.5929  -58.5384   33.8109 C   0  0  0  0  0  0  0  0  0  0  0  0
   13.9558  -57.8883   35.1021 C   0  0  0  0  0  0  0  0  0  0  0  0
   13.6538  -58.6819   36.2631 N   0  0  0  0  0  0  0  0  0  0  0  0
   13.0293  -59.9638   36.0238 C   0  0  0  0  0  0  0  0  0  0  0  0
   13.9042  -60.6323   34.9833 C   0  0  0  0  0  0  0  0  0  0  0  0
   13.9228  -58.2897   37.5876 C   0  0  0  0  0  0  0  0  0  0  0  0
   13.6235  -59.0489   38.5353 O   0  0  0  0  0  0  0  0  0  0  0  0
   14.5496  -57.0019   37.8669 C   0  0  0  0  0  0  0  0  0  0  0  0
   15.5647  -56.4681   37.1952 N   0  0  0  0  0  0  0  0  0  0  0  0
   15.8924  -55.2821   37.7129 N   0  0  0  0  0  0  0  0  0  0  0  0
   15.0791  -55.0092   38.7586 C   0  0  0  0  0  0  0  0  0  0  0  0
   14.2211  -56.1106   38.8563 C   0  0  0  0  0  0  0  0  0  0  0  0
   15.1905  -53.8623   39.4746 N   0  0  0  0  0  0  0  0  0  0  0  0
   16.1489  -52.9524   39.1348 C   0  0  0  0  0  0  0  0  0  0  0  0
   16.9920  -53.2012   38.0736 C   0  0  0  0  0  0  0  0  0  0  0  0
   16.8393  -54.3801   37.3788 C   0  0  0  0  0  0  0  0  0  0  0  0
   18.3422  -51.9168   37.5969 Br  0  0  0  0  0  0  0  0  0  0  0  0
   14.9360  -60.4866   32.6456 S   0  0  0  0  0  0  0  0  0  0  0  0
   14.4127  -60.4433   31.2462 O   0  0  0  0  0  0  0  0  0  0  0  0
   15.2275  -61.9380   33.0025 O   0  0  0  0  0  0  0  0  0  0  0  0
   16.3881  -59.5222   32.7418 C   0  0  0  0  0  0  0  0  0  0  0  0
   17.0346  -58.8808   31.7100 C   0  0  0  0  0  0  0  0  0  0  0  0
   18.1093  -58.2453   32.1786 N   0  0  0  0  0  0  0  0  0  0  0  0
   18.1827  -58.4512   33.4793 N   0  0  0  0  0  0  0  0  0  0  0  0
   17.1458  -59.2320   33.8763 C   0  0  0  0  0  0  0  0  0  0  0  0
   19.0532  -57.4581   31.4305 C   0  0  0  0  0  0  0  0  0  0  0  0
 19 20  2  0  0  0
 19 21  2  0  0  0
 19  1  1  0  0  0
 19 22  1  0  0  0
  1  2  1  0  0  0
  1  6  1  0  0  0
  2  3  1  0  0  0
  3  4  1  0  0  0
  4  5  1  0  0  0
  4  7  1  0  0  0
  5  6  1  0  0  0
  7  8  2  0  0  0
  7  9  1  0  0  0
  9 10  2  0  0  0
  9 13  1  0  0  0
 10 11  1  0  0  0
 11 12  1  0  0  0
 11 17  1  0  0  0
 12 13  2  0  0  0
 12 14  1  0  0  0
 14 15  2  0  0  0
 15 16  1  0  0  0
 16 17  2  0  0  0
 16 18  1  0  0  0
 22 23  2  0  0  0
 22 26  1  0  0  0
 23 24  1  0  0  0
 24 25  1  0  0  0
 24 27  1  0  0  0
 25 26  2  0  0  0
M  END
> <minimizedAffinity>
-8.88147

$$$$
1056


 30 33  0  0  0  0  0  0  0  0999 V2000
   13.6097  -59.4483   33.6030 N   0  0  0  0  0  0  0  0  0  0  0  0
   14.7066  -60.0079   32.9099 C   0  0  0  0  0  0  0  0  0  0  0  0
   16.0525  -59.7375   33.4431 C   0  0  0  0  0  0  0  0  0  0  0  0
   16.1816  -58.3958   33.9279 N   0  0  0  0  0  0  0  0  0  0  0  0
   15.0789  -57.4885   33.7886 C   0  0  0  0  0  0  0  0  0  0  0  0
   13.7480  -58.1149   34.0651 C   0  0  0  0  0  0  0  0  0  0  0  0
   17.3754  -57.9608   34.5373 C   0  0  0  0  0  0  0  0  0  0  0  0
   18.3265  -58.7669   34.6509 O   0  0  0  0  0  0  0  0  0  0  0  0
   17.5766  -56.6124   35.0521 C   0  0  0  0  0  0  0  0  0  0  0  0
   18.3255  -55.7036   34.3271 C   0  0  0  0  0  0  0  0  0  0  0  0
   18.5112  -54.4612   34.7994 N   0  0  0  0  0  0  0  0  0  0  0  0
   17.9892  -54.0468   35.9741 C   0  0  0  0  0  0  0  0  0  0  0  0
   17.2561  -54.9052   36.7037 N   0  0  0  0  0  0  0  0  0  0  0  0
   16.7276  -54.4915   37.8899 C   0  0  0  0  0  0  0  0  0  0  0  0
   16.9235  -53.2123   38.3686 C   0  0  0  0  0  0  0  0  0  0  0  0
   17.6758  -52.3108   37.6338 C   0  0  0  0  0  0  0  0  0  0  0  0
   18.1981  -52.7530   36.4393 C   0  0  0  0  0  0  0  0  0  0  0  0
   16.3648  -52.7255   39.6544 C   0  0  0  0  0  0  0  0  0  0  0  0
   17.0521  -56.1702   36.2496 C   0  0  0  0  0  0  0  0  0  0  0  0
   16.3749  -56.9611   36.9236 O   0  0  0  0  0  0  0  0  0  0  0  0
   12.7273  -60.4985   34.5930 S   0  0  0  0  0  0  0  0  0  0  0  0
   11.3668  -60.7247   34.0320 O   0  0  0  0  0  0  0  0  0  0  0  0
   13.4482  -61.8229   34.6478 O   0  0  0  0  0  0  0  0  0  0  0  0
   12.6366  -59.8611   36.2129 C   0  0  0  0  0  0  0  0  0  0  0  0
   11.4420  -59.8846   36.9018 C   0  0  0  0  0  0  0  0  0  0  0  0
   11.4409  -59.3601   38.1902 C   0  0  0  0  0  0  0  0  0  0  0  0
   12.5686  -58.8378   38.7677 C   0  0  0  0  0  0  0  0  0  0  0  0
   13.7652  -58.8192   38.0657 C   0  0  0  0  0  0  0  0  0  0  0  0
   13.7883  -59.3421   36.7683 C   0  0  0  0  0  0  0  0  0  0  0  0
    9.8246  -59.3631   39.1920 Br  0  0  0  0  0  0  0  0  0  0  0  0
 21 22  2  0  0  0
 21 23  2  0  0  0
 21  1  1  0  0  0
 21 24  1  0  0  0
  1  2  1  0  0  0
  1  6  1  0  0  0
  2  3  1  0  0  0
  3  4  1  0  0  0
  4  5  1  0  0  0
  4  7  1  0  0  0
  5  6  1  0  0  0
  7  8  2  0  0  0
  7  9  1  0  0  0
  9 10  2  0  0  0
  9 19  1  0  0  0
 10 11  1  0  0  0
 11 12  2  0  0  0
 12 13  1  0  0  0
 12 17  1  0  0  0
 13 14  1  0  0  0
 13 19  1  0  0  0
 14 15  2  0  0  0
 15 16  1  0  0  0
 15 18  1  0  0  0
 16 17  2  0  0  0
 19 20  2  0  0  0
 24 25  2  0  0  0
 24 29  1  0  0  0
 25 26  1  0  0  0
 26 27  2  0  0  0
 26 30  1  0  0  0
 27 28  1  0  0  0
 28 29  2  0  0  0
M  END
> <minimizedAffinity>
-10.55424

$$$$
1061


 30 34  0  0  0  0  0  0  0  0999 V2000
   16.7898  -57.3368   32.0166 N   0  0  0  0  0  0  0  0  0  0  0  0
   16.4802  -55.9983   32.4453 C   0  0  0  0  0  0  0  0  0  0  0  0
   17.6241  -55.0477   32.1761 C   0  0  0  0  0  0  0  0  0  0  0  0
   18.8707  -55.5662   32.7934 N   0  0  0  0  0  0  0  0  0  0  0  0
   19.2033  -56.8150   32.1230 C   0  0  0  0  0  0  0  0  0  0  0  0
   18.0442  -57.3944   31.3309 C   0  0  0  0  0  0  0  0  0  0  0  0
   16.4248  -58.5768   33.0885 S   0  0  0  0  0  0  0  0  0  0  0  0
   15.4931  -59.5505   32.3782 O   0  0  0  0  0  0  0  0  0  0  0  0
   17.7014  -59.3896   33.3079 O   0  0  0  0  0  0  0  0  0  0  0  0
   15.8295  -58.1347   34.6375 C   0  0  0  0  0  0  0  0  0  0  0  0
   14.4802  -58.0103   34.8637 C   0  0  0  0  0  0  0  0  0  0  0  0
   14.0370  -57.6625   36.1272 C   0  0  0  0  0  0  0  0  0  0  0  0
   14.9025  -57.4319   37.1810 C   0  0  0  0  0  0  0  0  0  0  0  0
   16.2560  -57.5583   36.9491 C   0  0  0  0  0  0  0  0  0  0  0  0
   16.7007  -57.9080   35.6789 C   0  0  0  0  0  0  0  0  0  0  0  0
   14.2934  -56.9505   38.9223 Br  0  0  0  0  0  0  0  0  0  0  0  0
   19.8595  -54.5623   32.4639 C   0  0  0  0  0  0  0  0  0  0  0  0
   20.5956  -53.9329   33.5688 C   0  0  0  0  0  0  0  0  0  0  0  0
   19.9615  -53.7526   34.8306 N   0  0  0  0  0  0  0  0  0  0  0  0
   19.3920  -54.6987   35.7281 C   0  0  0  0  0  0  0  0  0  0  0  0
   18.9443  -55.8098   35.4092 O   0  0  0  0  0  0  0  0  0  0  0  0
   19.4232  -54.1356   37.0993 C   0  0  0  0  0  0  0  0  0  0  0  0
   19.3158  -52.6263   36.7825 C   0  0  0  0  0  0  0  0  0  0  0  0
   17.8880  -52.2793   36.9769 C   0  0  0  0  0  0  0  0  0  0  0  0
   17.1948  -53.6386   36.7834 C   0  0  0  0  0  0  0  0  0  0  0  0
   18.1200  -54.3610   37.7784 C   0  0  0  0  0  0  0  0  0  0  0  0
   18.0504  -53.3828   38.9151 C   0  0  0  0  0  0  0  0  0  0  0  0
   17.6743  -52.1827   38.4731 C   0  0  0  0  0  0  0  0  0  0  0  0
   19.8499  -52.4473   35.4400 C   0  0  0  0  0  0  0  0  0  0  0  0
   20.1497  -51.3377   34.9324 O   0  0  0  0  0  0  0  0  0  0  0  0
  7  8  2  0  0  0
  7  9  2  0  0  0
  7  1  1  0  0  0
  7 10  1  0  0  0
  1  2  1  0  0  0
  1  6  1  0  0  0
  2  3  1  0  0  0
  3  4  1  0  0  0
  4  5  1  0  0  0
  4 17  1  0  0  0
  5  6  1  0  0  0
 17 18  1  0  0  0
 18 19  1  0  0  0
 19 20  1  0  0  0
 19 29  1  0  0  0
 20 21  2  0  0  0
 20 22  1  0  0  0
 22 23  1  0  0  0
 22 26  1  0  0  0
 23 24  1  0  0  0
 23 29  1  0  0  0
 24 25  1  0  0  0
 24 28  1  0  0  0
 25 26  1  0  0  0
 26 27  1  0  0  0
 27 28  2  0  0  0
 29 30  2  0  0  0
 10 11  2  0  0  0
 10 15  1  0  0  0
 11 12  1  0  0  0
 12 13  2  0  0  0
 13 14  1  0  0  0
 13 16  1  0  0  0
 14 15  2  0  0  0
M  END
> <minimizedAffinity>
-10.44950

$$$$
1073


 28 31  0  0  0  0  0  0  0  0999 V2000
   17.4255  -57.0558   33.3318 N   0  0  0  0  0  0  0  0  0  0  0  0
   16.6671  -55.9183   33.6618 C   0  0  0  0  0  0  0  0  0  0  0  0
   17.3912  -54.6241   33.4131 C   0  0  0  0  0  0  0  0  0  0  0  0
   18.8030  -54.7466   33.3413 N   0  0  0  0  0  0  0  0  0  0  0  0
   19.1906  -55.6765   32.3416 C   0  0  0  0  0  0  0  0  0  0  0  0
   18.4060  -56.9353   32.3214 C   0  0  0  0  0  0  0  0  0  0  0  0
   16.7779  -58.5612   33.6033 S   0  0  0  0  0  0  0  0  0  0  0  0
   15.7713  -58.9519   32.5742 O   0  0  0  0  0  0  0  0  0  0  0  0
   17.8538  -59.5983   33.6418 O   0  0  0  0  0  0  0  0  0  0  0  0
   15.9495  -58.5635   35.1745 C   0  0  0  0  0  0  0  0  0  0  0  0
   14.2794  -58.6319   35.5094 S   0  0  0  0  0  0  0  0  0  0  0  0
   14.3415  -58.5912   37.2112 C   0  0  0  0  0  0  0  0  0  0  0  0
   15.6871  -58.5228   37.4764 C   0  0  0  0  0  0  0  0  0  0  0  0
   16.5122  -58.5090   36.4179 C   0  0  0  0  0  0  0  0  0  0  0  0
   12.9011  -58.6289   38.4736 Br  0  0  0  0  0  0  0  0  0  0  0  0
   19.3958  -54.8603   34.6214 C   0  0  0  0  0  0  0  0  0  0  0  0
   18.9448  -53.9596   35.6272 N   0  0  0  0  0  0  0  0  0  0  0  0
   17.9839  -54.3055   36.4590 N   0  0  0  0  0  0  0  0  0  0  0  0
   17.4974  -53.5162   37.4292 C   0  0  0  0  0  0  0  0  0  0  0  0
   18.0545  -52.2648   37.5461 C   0  0  0  0  0  0  0  0  0  0  0  0
   19.0630  -51.8428   36.7061 C   0  0  0  0  0  0  0  0  0  0  0  0
   19.4928  -52.7390   35.7363 C   0  0  0  0  0  0  0  0  0  0  0  0
   20.4303  -52.3443   34.9588 O   0  0  0  0  0  0  0  0  0  0  0  0
   16.4504  -53.9215   38.3187 N   0  0  0  0  0  0  0  0  0  0  0  0
   15.8413  -53.2077   39.2710 C   0  0  0  0  0  0  0  0  0  0  0  0
   14.9168  -53.9849   39.8645 N   0  0  0  0  0  0  0  0  0  0  0  0
   14.9299  -55.2028   39.2942 C   0  0  0  0  0  0  0  0  0  0  0  0
   15.9035  -55.1473   38.3196 C   0  0  0  0  0  0  0  0  0  0  0  0
  7  8  2  0  0  0
  7  9  2  0  0  0
  7  1  1  0  0  0
  7 10  1  0  0  0
  1  2  1  0  0  0
  1  6  1  0  0  0
  2  3  1  0  0  0
  3  4  1  0  0  0
  4  5  1  0  0  0
  4 16  1  0  0  0
  5  6  1  0  0  0
 16 17  1  0  0  0
 17 18  1  0  0  0
 17 22  1  0  0  0
 18 19  2  0  0  0
 19 20  1  0  0  0
 19 24  1  0  0  0
 20 21  2  0  0  0
 21 22  1  0  0  0
 22 23  2  0  0  0
 24 25  1  0  0  0
 24 28  1  0  0  0
 25 26  2  0  0  0
 26 27  1  0  0  0
 27 28  2  0  0  0
 10 11  1  0  0  0
 10 14  2  0  0  0
 11 12  1  0  0  0
 12 13  2  0  0  0
 12 15  1  0  0  0
 13 14  1  0  0  0
M  END
> <minimizedAffinity>
-9.42850

$$$$
1076


 29 32  0  0  0  0  0  0  0  0999 V2000
   15.7111  -57.9925   33.7387 N   0  0  0  0  0  0  0  0  0  0  0  0
   16.2643  -58.7778   32.6808 C   0  0  0  0  0  0  0  0  0  0  0  0
   17.7792  -58.5108   32.7076 C   0  0  0  0  0  0  0  0  0  0  0  0
   18.0686  -57.2174   33.1531 N   0  0  0  0  0  0  0  0  0  0  0  0
   17.0952  -56.2056   32.8449 C   0  0  0  0  0  0  0  0  0  0  0  0
   15.6889  -56.6113   33.2242 C   0  0  0  0  0  0  0  0  0  0  0  0
   14.0954  -58.3948   34.1344 S   0  0  0  0  0  0  0  0  0  0  0  0
   13.6621  -59.6886   33.4965 O   0  0  0  0  0  0  0  0  0  0  0  0
   13.2105  -57.3173   33.5517 O   0  0  0  0  0  0  0  0  0  0  0  0
   13.7904  -58.4735   35.8268 C   0  0  0  0  0  0  0  0  0  0  0  0
   13.1145  -59.4632   36.4771 C   0  0  0  0  0  0  0  0  0  0  0  0
   12.9232  -59.4306   37.8508 C   0  0  0  0  0  0  0  0  0  0  0  0
   13.4041  -58.4062   38.6109 C   0  0  0  0  0  0  0  0  0  0  0  0
   14.0958  -57.3852   37.9777 C   0  0  0  0  0  0  0  0  0  0  0  0
   14.2780  -57.4281   36.6184 C   0  0  0  0  0  0  0  0  0  0  0  0
   11.9668  -60.8369   38.7455 Br  0  0  0  0  0  0  0  0  0  0  0  0
   18.8199  -56.9997   34.3173 C   0  0  0  0  0  0  0  0  0  0  0  0
   18.4553  -55.9162   35.1719 N   0  0  0  0  0  0  0  0  0  0  0  0
   17.4381  -56.0652   36.1490 N   0  0  0  0  0  0  0  0  0  0  0  0
   17.3549  -54.8074   36.8136 C   0  0  0  0  0  0  0  0  0  0  0  0
   16.5013  -54.5678   37.8017 C   0  0  0  0  0  0  0  0  0  0  0  0
   16.2061  -53.3899   38.6484 C   0  0  0  0  0  0  0  0  0  0  0  0
   16.5411  -52.1072   37.9256 C   0  0  0  0  0  0  0  0  0  0  0  0
   18.0569  -52.0297   37.8858 C   0  0  0  0  0  0  0  0  0  0  0  0
   18.6050  -52.5195   36.5805 C   0  0  0  0  0  0  0  0  0  0  0  0
   18.2887  -53.8824   36.2792 N   0  0  0  0  0  0  0  0  0  0  0  0
   18.9689  -54.5946   35.2504 C   0  0  0  0  0  0  0  0  0  0  0  0
   19.8782  -54.0910   34.5450 O   0  0  0  0  0  0  0  0  0  0  0  0
   16.8661  -56.9211   36.3419 H   0  0  0  0  0  0  0  0  0  0  0  0
  7  8  2  0  0  0
  7  9  2  0  0  0
  7  1  1  0  0  0
  7 10  1  0  0  0
  1  2  1  0  0  0
  1  6  1  0  0  0
  2  3  1  0  0  0
  3  4  1  0  0  0
  4  5  1  0  0  0
  4 17  1  0  0  0
  5  6  1  0  0  0
 17 18  1  0  0  0
 18 19  1  0  0  0
 18 27  1  0  0  0
 19 20  1  0  0  0
 20 21  2  0  0  0
 20 26  1  0  0  0
 21 22  1  0  0  0
 22 23  1  0  0  0
 23 24  1  0  0  0
 24 25  1  0  0  0
 25 26  1  0  0  0
 26 27  1  0  0  0
 27 28  2  0  0  0
 10 11  2  0  0  0
 10 15  1  0  0  0
 11 12  1  0  0  0
 12 13  2  0  0  0
 12 16  1  0  0  0
 13 14  1  0  0  0
 14 15  2  0  0  0
 19 29  1  0  0  0
M  END
> <minimizedAffinity>
-9.80550

$$$$
1081


 27 30  0  0  0  0  0  0  0  0999 V2000
   16.5771  -57.5050   33.9925 N   0  0  0  0  0  0  0  0  0  0  0  0
   16.2645  -56.4337   33.1262 C   0  0  0  0  0  0  0  0  0  0  0  0
   16.8134  -55.0923   33.4812 C   0  0  0  0  0  0  0  0  0  0  0  0
   17.6102  -55.0701   34.6827 N   0  0  0  0  0  0  0  0  0  0  0  0
   17.2628  -55.9276   35.7694 C   0  0  0  0  0  0  0  0  0  0  0  0
   16.6818  -57.2410   35.3773 C   0  0  0  0  0  0  0  0  0  0  0  0
   18.7212  -54.1628   34.7201 C   0  0  0  0  0  0  0  0  0  0  0  0
   19.0390  -53.3503   35.7423 N   0  0  0  0  0  0  0  0  0  0  0  0
   20.1253  -52.6820   35.3371 N   0  0  0  0  0  0  0  0  0  0  0  0
   20.4577  -53.0666   34.1245 N   0  0  0  0  0  0  0  0  0  0  0  0
   19.6110  -53.9841   33.7073 N   0  0  0  0  0  0  0  0  0  0  0  0
   18.3657  -53.2407   36.9882 C   0  0  0  0  0  0  0  0  0  0  0  0
   17.2649  -52.4284   37.1375 C   0  0  0  0  0  0  0  0  0  0  0  0
   16.6254  -52.3430   38.3734 C   0  0  0  0  0  0  0  0  0  0  0  0
   17.0723  -53.0594   39.4621 C   0  0  0  0  0  0  0  0  0  0  0  0
   18.1929  -53.8860   39.3102 C   0  0  0  0  0  0  0  0  0  0  0  0
   18.8203  -53.9589   38.0654 C   0  0  0  0  0  0  0  0  0  0  0  0
   17.6347  -58.6967   33.3974 S   0  0  0  0  0  0  0  0  0  0  0  0
   17.0751  -60.0628   33.3545 O   0  0  0  0  0  0  0  0  0  0  0  0
   18.8384  -58.7547   34.3302 O   0  0  0  0  0  0  0  0  0  0  0  0
   18.2312  -58.2290   31.8290 C   0  0  0  0  0  0  0  0  0  0  0  0
   17.6796  -58.6780   30.6556 C   0  0  0  0  0  0  0  0  0  0  0  0
   18.1654  -58.2933   29.4062 C   0  0  0  0  0  0  0  0  0  0  0  0
   19.2549  -57.4172   29.3644 C   0  0  0  0  0  0  0  0  0  0  0  0
   19.8169  -56.9607   30.5358 C   0  0  0  0  0  0  0  0  0  0  0  0
   19.3110  -57.3615   31.7407 C   0  0  0  0  0  0  0  0  0  0  0  0
   19.9717  -56.8455   27.6847 Br  0  0  0  0  0  0  0  0  0  0  0  0
 18 19  2  0  0  0
 18 20  2  0  0  0
 18  1  1  0  0  0
 18 21  1  0  0  0
  1  2  1  0  0  0
  1  6  1  0  0  0
  2  3  1  0  0  0
  3  4  1  0  0  0
  4  5  1  0  0  0
  4  7  1  0  0  0
  5  6  1  0  0  0
  7  8  1  0  0  0
  7 11  2  0  0  0
  8  9  1  0  0  0
  8 12  1  0  0  0
  9 10  2  0  0  0
 10 11  1  0  0  0
 12 13  2  0  0  0
 12 17  1  0  0  0
 13 14  1  0  0  0
 14 15  2  0  0  0
 15 16  1  0  0  0
 16 17  2  0  0  0
 21 22  2  0  0  0
 21 26  1  0  0  0
 22 23  1  0  0  0
 23 24  2  0  0  0
 24 25  1  0  0  0
 24 27  1  0  0  0
 25 26  2  0  0  0
M  END
> <minimizedAffinity>
-9.66096

$$$$
1084


 29 32  0  0  0  0  0  0  0  0999 V2000
   15.1522  -58.0127   34.4965 N   0  0  0  0  0  0  0  0  0  0  0  0
   15.0547  -57.0555   33.4462 C   0  0  0  0  0  0  0  0  0  0  0  0
   16.3982  -56.6089   32.9111 C   0  0  0  0  0  0  0  0  0  0  0  0
   17.3579  -56.7693   33.9643 N   0  0  0  0  0  0  0  0  0  0  0  0
   17.6106  -58.0870   34.4683 C   0  0  0  0  0  0  0  0  0  0  0  0
   16.3176  -58.8614   34.4205 C   0  0  0  0  0  0  0  0  0  0  0  0
   18.0309  -55.6501   34.4824 C   0  0  0  0  0  0  0  0  0  0  0  0
   17.7072  -55.0894   35.6593 N   0  0  0  0  0  0  0  0  0  0  0  0
   18.2997  -54.0387   36.1983 C   0  0  0  0  0  0  0  0  0  0  0  0
   19.3457  -53.4630   35.4969 C   0  0  0  0  0  0  0  0  0  0  0  0
   19.7156  -54.0024   34.2855 C   0  0  0  0  0  0  0  0  0  0  0  0
   19.0567  -55.0744   33.8096 N   0  0  0  0  0  0  0  0  0  0  0  0
   20.8338  -53.4126   33.5010 C   0  0  0  0  0  0  0  0  0  0  0  0
   17.8615  -53.5416   37.4494 N   0  0  0  0  0  0  0  0  0  0  0  0
   17.5582  -52.1469   37.6955 C   0  0  0  0  0  0  0  0  0  0  0  0
   16.6064  -52.1218   38.8906 C   0  0  0  0  0  0  0  0  0  0  0  0
   15.6898  -53.1585   38.7028 O   0  0  0  0  0  0  0  0  0  0  0  0
   16.2212  -54.4051   38.9427 C   0  0  0  0  0  0  0  0  0  0  0  0
   17.7020  -54.4627   38.5512 C   0  0  0  0  0  0  0  0  0  0  0  0
   13.7667  -59.0447   34.4147 S   0  0  0  0  0  0  0  0  0  0  0  0
   12.7663  -58.4033   33.4670 O   0  0  0  0  0  0  0  0  0  0  0  0
   14.1738  -60.3669   33.8318 O   0  0  0  0  0  0  0  0  0  0  0  0
   13.0152  -59.2304   35.9733 C   0  0  0  0  0  0  0  0  0  0  0  0
   13.7336  -58.8714   37.1056 C   0  0  0  0  0  0  0  0  0  0  0  0
   13.2036  -58.9909   38.3713 C   0  0  0  0  0  0  0  0  0  0  0  0
   11.9299  -59.4793   38.5320 C   0  0  0  0  0  0  0  0  0  0  0  0
   11.1824  -59.8481   37.4294 C   0  0  0  0  0  0  0  0  0  0  0  0
   11.7468  -59.7143   36.1638 C   0  0  0  0  0  0  0  0  0  0  0  0
   11.2117  -59.6380   40.2901 Br  0  0  0  0  0  0  0  0  0  0  0  0
 20 21  2  0  0  0
 20 22  2  0  0  0
 20  1  1  0  0  0
 20 23  1  0  0  0
  1  2  1  0  0  0
  1  6  1  0  0  0
  2  3  1  0  0  0
  3  4  1  0  0  0
  4  5  1  0  0  0
  4  7  1  0  0  0
  5  6  1  0  0  0
  7  8  2  0  0  0
  7 12  1  0  0  0
  8  9  1  0  0  0
  9 10  2  0  0  0
  9 14  1  0  0  0
 10 11  1  0  0  0
 11 12  2  0  0  0
 11 13  1  0  0  0
 14 15  1  0  0  0
 14 19  1  0  0  0
 15 16  1  0  0  0
 16 17  1  0  0  0
 17 18  1  0  0  0
 18 19  1  0  0  0
 23 24  2  0  0  0
 23 28  1  0  0  0
 24 25  1  0  0  0
 25 26  2  0  0  0
 26 27  1  0  0  0
 26 29  1  0  0  0
 27 28  2  0  0  0
M  END
> <minimizedAffinity>
-9.50265

$$$$
1089


 25 28  0  0  0  0  0  0  0  0999 V2000
   19.0224  -57.1266   32.7510 N   0  0  0  0  0  0  0  0  0  0  0  0
   18.4825  -57.7728   31.6183 C   0  0  0  0  0  0  0  0  0  0  0  0
   17.2046  -58.5428   31.8416 C   0  0  0  0  0  0  0  0  0  0  0  0
   16.7938  -58.5576   33.2102 N   0  0  0  0  0  0  0  0  0  0  0  0
   17.7217  -58.4592   34.3230 C   0  0  0  0  0  0  0  0  0  0  0  0
   19.0685  -57.9610   33.8872 C   0  0  0  0  0  0  0  0  0  0  0  0
   15.4148  -58.6686   33.5358 C   0  0  0  0  0  0  0  0  0  0  0  0
   14.6403  -57.5439   33.5765 N   0  0  0  0  0  0  0  0  0  0  0  0
   13.3426  -57.6263   33.8716 C   0  0  0  0  0  0  0  0  0  0  0  0
   12.7484  -58.7889   34.1357 N   0  0  0  0  0  0  0  0  0  0  0  0
   13.4855  -59.8969   34.1012 C   0  0  0  0  0  0  0  0  0  0  0  0
   13.1695  -61.1763   34.3213 N   0  0  0  0  0  0  0  0  0  0  0  0
   14.2933  -61.9307   34.1648 C   0  0  0  0  0  0  0  0  0  0  0  0
   15.3197  -61.1416   33.8461 N   0  0  0  0  0  0  0  0  0  0  0  0
   14.8487  -59.8872   33.8007 C   0  0  0  0  0  0  0  0  0  0  0  0
   16.2900  -61.4637   33.6741 H   0  0  0  0  0  0  0  0  0  0  0  0
   18.7685  -55.4880   32.9580 S   0  0  0  0  0  0  0  0  0  0  0  0
   17.3542  -55.1536   32.4974 O   0  0  0  0  0  0  0  0  0  0  0  0
   19.6823  -54.6377   32.1531 O   0  0  0  0  0  0  0  0  0  0  0  0
   18.8508  -54.9301   34.6316 C   0  0  0  0  0  0  0  0  0  0  0  0
   17.6283  -54.8865   35.8181 S   0  0  0  0  0  0  0  0  0  0  0  0
   18.5164  -54.2287   37.1128 C   0  0  0  0  0  0  0  0  0  0  0  0
   19.7682  -54.0585   36.5722 C   0  0  0  0  0  0  0  0  0  0  0  0
   19.9325  -54.4215   35.2952 C   0  0  0  0  0  0  0  0  0  0  0  0
   17.9404  -53.8199   38.8868 Br  0  0  0  0  0  0  0  0  0  0  0  0
 17 18  2  0  0  0
 17 19  2  0  0  0
 17  1  1  0  0  0
 17 20  1  0  0  0
  1  2  1  0  0  0
  1  6  1  0  0  0
  2  3  1  0  0  0
  3  4  1  0  0  0
  4  5  1  0  0  0
  4  7  1  0  0  0
  5  6  1  0  0  0
  7  8  2  0  0  0
  7 15  1  0  0  0
  8  9  1  0  0  0
  9 10  2  0  0  0
 10 11  1  0  0  0
 11 12  1  0  0  0
 11 15  2  0  0  0
 12 13  2  0  0  0
 13 14  1  0  0  0
 14 15  1  0  0  0
 20 21  1  0  0  0
 20 24  2  0  0  0
 21 22  1  0  0  0
 22 23  2  0  0  0
 22 25  1  0  0  0
 23 24  1  0  0  0
 14 16  1  0  0  0
M  END
> <minimizedAffinity>
-8.07384

$$$$
1100


 26 29  0  0  0  0  0  0  0  0999 V2000
   15.2114  -57.7331   34.5907 N   0  0  0  0  0  0  0  0  0  0  0  0
   16.3406  -58.3169   35.2336 C   0  0  0  0  0  0  0  0  0  0  0  0
   17.6430  -57.6329   34.8753 C   0  0  0  0  0  0  0  0  0  0  0  0
   17.3574  -56.2312   34.7056 N   0  0  0  0  0  0  0  0  0  0  0  0
   16.5172  -55.8916   33.5854 C   0  0  0  0  0  0  0  0  0  0  0  0
   15.4693  -56.9358   33.4392 C   0  0  0  0  0  0  0  0  0  0  0  0
   17.8546  -55.2259   35.5666 C   0  0  0  0  0  0  0  0  0  0  0  0
   17.4490  -55.1085   36.8313 C   0  0  0  0  0  0  0  0  0  0  0  0
   17.9356  -54.0918   37.7459 C   0  0  0  0  0  0  0  0  0  0  0  0
   17.4965  -54.0224   38.9918 C   0  0  0  0  0  0  0  0  0  0  0  0
   18.8955  -53.1668   37.2808 N   0  0  0  0  0  0  0  0  0  0  0  0
   19.3096  -53.3236   35.9153 C   0  0  0  0  0  0  0  0  0  0  0  0
   18.8282  -54.2821   35.1089 N   0  0  0  0  0  0  0  0  0  0  0  0
   19.4017  -54.1706   33.9080 N   0  0  0  0  0  0  0  0  0  0  0  0
   20.2611  -53.1368   33.9240 C   0  0  0  0  0  0  0  0  0  0  0  0
   20.1953  -52.6231   35.1640 N   0  0  0  0  0  0  0  0  0  0  0  0
   19.3025  -52.4108   37.8483 H   0  0  0  0  0  0  0  0  0  0  0  0
   14.0115  -58.9052   34.3254 S   0  0  0  0  0  0  0  0  0  0  0  0
   14.5626  -60.1897   33.7625 O   0  0  0  0  0  0  0  0  0  0  0  0
   13.0563  -58.3615   33.2731 O   0  0  0  0  0  0  0  0  0  0  0  0
   13.0360  -59.2128   35.7610 C   0  0  0  0  0  0  0  0  0  0  0  0
   13.4791  -58.9098   37.3722 S   0  0  0  0  0  0  0  0  0  0  0  0
   12.0675  -59.4492   38.1551 C   0  0  0  0  0  0  0  0  0  0  0  0
   11.2713  -59.8597   37.1196 C   0  0  0  0  0  0  0  0  0  0  0  0
   11.7795  -59.7348   35.8703 C   0  0  0  0  0  0  0  0  0  0  0  0
   11.6477  -59.4905   40.0393 Br  0  0  0  0  0  0  0  0  0  0  0  0
 18 19  2  0  0  0
 18 20  2  0  0  0
 18  1  1  0  0  0
 18 21  1  0  0  0
  1  2  1  0  0  0
  1  6  1  0  0  0
  2  3  1  0  0  0
  3  4  1  0  0  0
  4  5  1  0  0  0
  4  7  1  0  0  0
  5  6  1  0  0  0
  7  8  2  0  0  0
  7 13  1  0  0  0
  8  9  1  0  0  0
  9 10  2  0  0  0
  9 11  1  0  0  0
 11 12  1  0  0  0
 12 13  1  0  0  0
 12 16  2  0  0  0
 13 14  1  0  0  0
 14 15  2  0  0  0
 15 16  1  0  0  0
 21 22  1  0  0  0
 21 25  2  0  0  0
 22 23  1  0  0  0
 23 24  2  0  0  0
 23 26  1  0  0  0
 24 25  1  0  0  0
 11 17  1  0  0  0
M  END
> <minimizedAffinity>
-9.03498

$$$$
1101


 26 29  0  0  0  0  0  0  0  0999 V2000
   16.8625  -59.0204   32.7801 N   0  0  0  0  0  0  0  0  0  0  0  0
   16.6122  -57.9614   31.8771 C   0  0  0  0  0  0  0  0  0  0  0  0
   16.8157  -56.5856   32.4058 C   0  0  0  0  0  0  0  0  0  0  0  0
   18.0283  -56.5013   33.2354 N   0  0  0  0  0  0  0  0  0  0  0  0
   18.8711  -57.6771   33.1911 C   0  0  0  0  0  0  0  0  0  0  0  0
   18.0065  -58.8431   33.6312 C   0  0  0  0  0  0  0  0  0  0  0  0
   18.3071  -55.3435   33.9976 C   0  0  0  0  0  0  0  0  0  0  0  0
   19.3735  -54.5366   33.6202 C   0  0  0  0  0  0  0  0  0  0  0  0
   19.6389  -53.3985   34.3792 C   0  0  0  0  0  0  0  0  0  0  0  0
   18.9029  -53.0790   35.4355 N   0  0  0  0  0  0  0  0  0  0  0  0
   19.4027  -51.9427   35.9478 C   0  0  0  0  0  0  0  0  0  0  0  0
   20.4518  -51.5828   35.1834 N   0  0  0  0  0  0  0  0  0  0  0  0
   20.6011  -52.4736   34.2184 N   0  0  0  0  0  0  0  0  0  0  0  0
   18.8932  -51.2048   37.1485 C   0  0  0  0  0  0  0  0  0  0  0  0
   17.8995  -53.8268   35.8006 N   0  0  0  0  0  0  0  0  0  0  0  0
   17.5977  -54.9482   35.0952 C   0  0  0  0  0  0  0  0  0  0  0  0
   15.5007  -59.6292   33.5990 S   0  0  0  0  0  0  0  0  0  0  0  0
   15.7889  -61.0863   33.9391 O   0  0  0  0  0  0  0  0  0  0  0  0
   14.2999  -59.6424   32.7007 O   0  0  0  0  0  0  0  0  0  0  0  0
   15.1847  -58.8237   35.1121 C   0  0  0  0  0  0  0  0  0  0  0  0
   13.8919  -58.6149   35.5729 C   0  0  0  0  0  0  0  0  0  0  0  0
   13.6437  -57.9780   36.7686 C   0  0  0  0  0  0  0  0  0  0  0  0
   14.7187  -57.5379   37.5239 C   0  0  0  0  0  0  0  0  0  0  0  0
   16.0233  -57.7228   37.1090 C   0  0  0  0  0  0  0  0  0  0  0  0
   16.2272  -58.3632   35.9088 C   0  0  0  0  0  0  0  0  0  0  0  0
   14.3554  -56.6540   39.1844 Br  0  0  0  0  0  0  0  0  0  0  0  0
 17 18  2  0  0  0
 17 19  2  0  0  0
 17  1  1  0  0  0
 17 20  1  0  0  0
  1  2  1  0  0  0
  1  6  1  0  0  0
  2  3  1  0  0  0
  3  4  1  0  0  0
  4  5  1  0  0  0
  4  7  1  0  0  0
  5  6  1  0  0  0
  7  8  2  0  0  0
  7 16  1  0  0  0
  8  9  1  0  0  0
  9 10  1  0  0  0
  9 13  2  0  0  0
 10 11  1  0  0  0
 10 15  1  0  0  0
 11 12  2  0  0  0
 11 14  1  0  0  0
 12 13  1  0  0  0
 15 16  2  0  0  0
 20 21  2  0  0  0
 20 25  1  0  0  0
 21 22  1  0  0  0
 22 23  2  0  0  0
 23 24  1  0  0  0
 23 26  1  0  0  0
 24 25  2  0  0  0
M  END
> <minimizedAffinity>
-9.03055

$$$$
1105


 33 36  0  0  0  0  0  0  0  0999 V2000
   19.3359  -56.4643   32.2741 N   0  0  0  0  0  0  0  0  0  0  0  0
   19.7404  -56.5856   30.9139 C   0  0  0  0  0  0  0  0  0  0  0  0
   18.8475  -57.4605   30.0635 C   0  0  0  0  0  0  0  0  0  0  0  0
   17.4360  -57.1508   30.3040 N   0  0  0  0  0  0  0  0  0  0  0  0
   17.1082  -57.0600   31.7093 C   0  0  0  0  0  0  0  0  0  0  0  0
   15.9793  -56.7654   32.1096 O   0  0  0  0  0  0  0  0  0  0  0  0
   18.2860  -57.3616   32.5893 C   0  0  0  0  0  0  0  0  0  0  0  0
   16.7299  -57.0082   29.5825 H   0  0  0  0  0  0  0  0  0  0  0  0
   19.0640  -54.8315   32.6577 S   0  0  0  0  0  0  0  0  0  0  0  0
   17.8985  -54.2198   31.9476 O   0  0  0  0  0  0  0  0  0  0  0  0
   20.2751  -53.9830   32.2892 O   0  0  0  0  0  0  0  0  0  0  0  0
   18.8358  -54.6001   34.3821 C   0  0  0  0  0  0  0  0  0  0  0  0
   17.5781  -54.4588   34.9556 C   0  0  0  0  0  0  0  0  0  0  0  0
   17.3764  -54.2738   36.2943 C   0  0  0  0  0  0  0  0  0  0  0  0
   18.4460  -54.2208   37.1497 C   0  0  0  0  0  0  0  0  0  0  0  0
   19.7295  -54.3603   36.6079 C   0  0  0  0  0  0  0  0  0  0  0  0
   19.8953  -54.5441   35.2564 C   0  0  0  0  0  0  0  0  0  0  0  0
   18.2297  -53.9669   39.0227 Br  0  0  0  0  0  0  0  0  0  0  0  0
   17.9169  -57.5174   34.0111 C   0  0  0  0  0  0  0  0  0  0  0  0
   17.1264  -58.7593   34.1859 C   0  0  0  0  0  0  0  0  0  0  0  0
   17.5418  -59.7822   33.5790 O   0  0  0  0  0  0  0  0  0  0  0  0
   15.9527  -58.7998   34.9991 N   0  0  0  0  0  0  0  0  0  0  0  0
   15.4887  -57.6255   35.6861 C   0  0  0  0  0  0  0  0  0  0  0  0
   14.0062  -57.5791   35.8882 C   0  0  0  0  0  0  0  0  0  0  0  0
   13.3911  -58.8856   36.0464 N   0  0  0  0  0  0  0  0  0  0  0  0
   13.7382  -59.8430   35.0070 C   0  0  0  0  0  0  0  0  0  0  0  0
   15.2346  -60.0411   35.1240 C   0  0  0  0  0  0  0  0  0  0  0  0
   12.5161  -59.2536   37.0773 C   0  0  0  0  0  0  0  0  0  0  0  0
   12.9108  -59.0981   38.3876 C   0  0  0  0  0  0  0  0  0  0  0  0
   12.0485  -59.4762   39.4052 C   0  0  0  0  0  0  0  0  0  0  0  0
   10.8046  -60.0057   39.1661 C   0  0  0  0  0  0  0  0  0  0  0  0
   10.4148  -60.1586   37.8556 C   0  0  0  0  0  0  0  0  0  0  0  0
   11.2724  -59.7827   36.8320 C   0  0  0  0  0  0  0  0  0  0  0  0
  9 10  2  0  0  0
  9 11  2  0  0  0
  9  1  1  0  0  0
  9 12  1  0  0  0
  1  2  1  0  0  0
  1  7  1  0  0  0
  2  3  1  0  0  0
  3  4  1  0  0  0
  4  5  1  0  0  0
  5  6  2  0  0  0
  5  7  1  0  0  0
  7 19  1  0  0  0
 19 20  1  0  0  0
 20 21  2  0  0  0
 20 22  1  0  0  0
 22 23  1  0  0  0
 22 27  1  0  0  0
 23 24  1  0  0  0
 24 25  1  0  0  0
 25 26  1  0  0  0
 25 28  1  0  0  0
 26 27  1  0  0  0
 28 29  2  0  0  0
 28 33  1  0  0  0
 29 30  1  0  0  0
 30 31  2  0  0  0
 31 32  1  0  0  0
 32 33  2  0  0  0
 12 13  2  0  0  0
 12 17  1  0  0  0
 13 14  1  0  0  0
 14 15  2  0  0  0
 15 16  1  0  0  0
 15 18  1  0  0  0
 16 17  2  0  0  0
  4  8  1  0  0  0
M  END
> <minimizedAffinity>
-9.52269

$$$$
1112


 32 35  0  0  0  0  0  0  0  0999 V2000
   17.9160  -56.2998   30.8667 C   0  0  0  0  0  0  0  0  0  0  0  0
   18.7504  -54.2623   34.5556 C   0  0  0  0  0  0  0  0  0  0  0  0
   19.6911  -54.3135   33.5680 C   0  0  0  0  0  0  0  0  0  0  0  0
   19.4467  -54.9658   32.3631 C   0  0  0  0  0  0  0  0  0  0  0  0
   18.2555  -55.5814   32.1190 C   0  0  0  0  0  0  0  0  0  0  0  0
   17.2959  -55.5336   33.1152 C   0  0  0  0  0  0  0  0  0  0  0  0
   17.5404  -54.8845   34.3115 C   0  0  0  0  0  0  0  0  0  0  0  0
   19.0244  -53.4480   36.0887 S   0  0  0  0  0  0  0  0  0  0  0  0
   20.0120  -54.1823   36.9287 O   0  0  0  0  0  0  0  0  0  0  0  0
   19.6359  -52.1033   35.7510 O   0  0  0  0  0  0  0  0  0  0  0  0
   17.5712  -53.1507   36.9357 N   0  0  0  0  0  0  0  0  0  0  0  0
   17.6337  -51.9868   37.7801 C   0  0  0  0  0  0  0  0  0  0  0  0
   16.4989  -52.1262   38.7991 C   0  0  0  0  0  0  0  0  0  0  0  0
   16.8152  -53.0750   39.7471 O   0  0  0  0  0  0  0  0  0  0  0  0
   17.7339  -53.9845   39.1936 C   0  0  0  0  0  0  0  0  0  0  0  0
   17.2532  -54.2858   37.7820 C   0  0  0  0  0  0  0  0  0  0  0  0
   16.9180  -57.2761   31.0659 O   0  0  0  0  0  0  0  0  0  0  0  0
   16.9924  -58.5787   30.6367 C   0  0  0  0  0  0  0  0  0  0  0  0
   16.9527  -58.8208   29.4144 O   0  0  0  0  0  0  0  0  0  0  0  0
   17.1159  -59.6786   31.5900 C   0  0  0  0  0  0  0  0  0  0  0  0
   16.6743  -59.3479   32.9129 N   0  0  0  0  0  0  0  0  0  0  0  0
   15.3059  -59.4465   33.3281 C   0  0  0  0  0  0  0  0  0  0  0  0
   14.3399  -59.8263   32.6066 O   0  0  0  0  0  0  0  0  0  0  0  0
   15.2010  -59.0385   34.7241 C   0  0  0  0  0  0  0  0  0  0  0  0
   16.4484  -58.6944   35.1750 C   0  0  0  0  0  0  0  0  0  0  0  0
   16.6312  -58.2672   36.4764 C   0  0  0  0  0  0  0  0  0  0  0  0
   15.5650  -58.1768   37.3510 C   0  0  0  0  0  0  0  0  0  0  0  0
   14.3039  -58.5193   36.9104 C   0  0  0  0  0  0  0  0  0  0  0  0
   14.1495  -58.9418   35.6063 C   0  0  0  0  0  0  0  0  0  0  0  0
   12.8018  -58.4099   38.0792 Br  0  0  0  0  0  0  0  0  0  0  0  0
   17.3813  -58.8841   34.0506 C   0  0  0  0  0  0  0  0  0  0  0  0
   18.6147  -58.6766   34.0655 O   0  0  0  0  0  0  0  0  0  0  0  0
  8  9  2  0  0  0
  8 10  2  0  0  0
  8 11  1  0  0  0
  8  2  1  0  0  0
 11 12  1  0  0  0
 11 16  1  0  0  0
 12 13  1  0  0  0
 13 14  1  0  0  0
 14 15  1  0  0  0
 15 16  1  0  0  0
  2  3  2  0  0  0
  2  7  1  0  0  0
  3  4  1  0  0  0
  4  5  2  0  0  0
  5  6  1  0  0  0
  5  1  1  0  0  0
  6  7  2  0  0  0
  1 17  1  0  0  0
 17 18  1  0  0  0
 18 19  2  0  0  0
 18 20  1  0  0  0
 20 21  1  0  0  0
 21 22  1  0  0  0
 21 31  1  0  0  0
 22 23  2  0  0  0
 22 24  1  0  0  0
 24 25  2  0  0  0
 24 29  1  0  0  0
 25 26  1  0  0  0
 25 31  1  0  0  0
 26 27  2  0  0  0
 27 28  1  0  0  0
 28 29  2  0  0  0
 28 30  1  0  0  0
 31 32  2  0  0  0
M  END
> <minimizedAffinity>
-9.39341

$$$$
1113


 28 31  0  0  0  0  0  0  0  0999 V2000
   16.1428  -57.5200   33.8842 C   0  0  0  0  0  0  0  0  0  0  0  0
   14.9571  -57.4981   33.2525 N   0  0  0  0  0  0  0  0  0  0  0  0
   13.9661  -57.5849   34.1760 C   0  0  0  0  0  0  0  0  0  0  0  0
   14.5098  -57.6628   35.4027 N   0  0  0  0  0  0  0  0  0  0  0  0
   15.8244  -57.6241   35.2423 C   0  0  0  0  0  0  0  0  0  0  0  0
   17.7400  -57.4373   33.1778 S   0  0  0  0  0  0  0  0  0  0  0  0
   18.6745  -58.2709   34.0452 O   0  0  0  0  0  0  0  0  0  0  0  0
   17.7309  -58.1313   31.8303 O   0  0  0  0  0  0  0  0  0  0  0  0
   18.3694  -55.8889   33.0615 N   0  0  0  0  0  0  0  0  0  0  0  0
   18.5042  -55.1303   34.2342 C   0  0  0  0  0  0  0  0  0  0  0  0
   19.8379  -54.4453   34.2840 C   0  0  0  0  0  0  0  0  0  0  0  0
   19.9520  -53.6671   33.1452 O   0  0  0  0  0  0  0  0  0  0  0  0
   20.0353  -54.4271   31.9853 C   0  0  0  0  0  0  0  0  0  0  0  0
   19.0247  -55.5037   31.8878 C   0  0  0  0  0  0  0  0  0  0  0  0
   13.7571  -57.7656   36.6362 C   0  0  0  0  0  0  0  0  0  0  0  0
   14.3979  -57.0018   37.7329 C   0  0  0  0  0  0  0  0  0  0  0  0
   15.0764  -57.5504   38.7749 N   0  0  0  0  0  0  0  0  0  0  0  0
   15.4975  -56.5852   39.5344 O   0  0  0  0  0  0  0  0  0  0  0  0
   15.1409  -55.4168   39.0642 C   0  0  0  0  0  0  0  0  0  0  0  0
   14.4475  -55.6828   37.9279 N   0  0  0  0  0  0  0  0  0  0  0  0
   15.4210  -54.0633   39.6320 C   0  0  0  0  0  0  0  0  0  0  0  0
   16.5554  -53.4959   38.8511 C   0  0  0  0  0  0  0  0  0  0  0  0
   16.4829  -52.1704   38.4523 C   0  0  0  0  0  0  0  0  0  0  0  0
   17.4790  -51.5658   37.7318 C   0  0  0  0  0  0  0  0  0  0  0  0
   18.5801  -52.3079   37.4010 C   0  0  0  0  0  0  0  0  0  0  0  0
   18.6986  -53.6124   37.7680 C   0  0  0  0  0  0  0  0  0  0  0  0
   17.6709  -54.2012   38.4998 C   0  0  0  0  0  0  0  0  0  0  0  0
   19.9877  -51.5004   36.3979 Br  0  0  0  0  0  0  0  0  0  0  0  0
  6  7  2  0  0  0
  6  8  2  0  0  0
  6  9  1  0  0  0
  6  1  1  0  0  0
  9 10  1  0  0  0
  9 14  1  0  0  0
 10 11  1  0  0  0
 11 12  1  0  0  0
 12 13  1  0  0  0
 13 14  1  0  0  0
  1  2  1  0  0  0
  1  5  2  0  0  0
  2  3  2  0  0  0
  3  4  1  0  0  0
  4  5  1  0  0  0
  4 15  1  0  0  0
 15 16  1  0  0  0
 16 17  2  0  0  0
 16 20  1  0  0  0
 17 18  1  0  0  0
 18 19  1  0  0  0
 19 20  2  0  0  0
 19 21  1  0  0  0
 21 22  1  0  0  0
 22 23  2  0  0  0
 22 27  1  0  0  0
 23 24  1  0  0  0
 24 25  2  0  0  0
 25 26  1  0  0  0
 25 28  1  0  0  0
 26 27  2  0  0  0
M  END
> <minimizedAffinity>
-9.27901

$$$$
1114


 27 30  0  0  0  0  0  0  0  0999 V2000
   14.0392  -58.3289   35.8523 C   0  0  0  0  0  0  0  0  0  0  0  0
   13.5743  -59.3146   36.6398 N   0  0  0  0  0  0  0  0  0  0  0  0
   13.6804  -58.9228   37.9230 C   0  0  0  0  0  0  0  0  0  0  0  0
   14.2103  -57.6929   37.9940 N   0  0  0  0  0  0  0  0  0  0  0  0
   14.4317  -57.3254   36.7217 C   0  0  0  0  0  0  0  0  0  0  0  0
   14.1281  -58.3191   34.0865 S   0  0  0  0  0  0  0  0  0  0  0  0
   13.6473  -59.6637   33.6101 O   0  0  0  0  0  0  0  0  0  0  0  0
   13.2123  -57.2869   33.5121 O   0  0  0  0  0  0  0  0  0  0  0  0
   15.7371  -58.0973   33.5517 N   0  0  0  0  0  0  0  0  0  0  0  0
   16.6903  -58.9205   34.1977 C   0  0  0  0  0  0  0  0  0  0  0  0
   18.0336  -58.3198   34.4512 C   0  0  0  0  0  0  0  0  0  0  0  0
   18.3201  -57.4647   33.3620 O   0  0  0  0  0  0  0  0  0  0  0  0
   17.4958  -56.3546   33.5687 C   0  0  0  0  0  0  0  0  0  0  0  0
   16.0866  -56.7469   33.3002 C   0  0  0  0  0  0  0  0  0  0  0  0
   14.4802  -56.9316   39.1964 C   0  0  0  0  0  0  0  0  0  0  0  0
   15.1316  -55.6316   38.9158 C   0  0  0  0  0  0  0  0  0  0  0  0
   14.7531  -54.4542   39.4480 N   0  0  0  0  0  0  0  0  0  0  0  0
   15.5339  -53.5230   38.9901 O   0  0  0  0  0  0  0  0  0  0  0  0
   16.4222  -54.0190   38.1730 C   0  0  0  0  0  0  0  0  0  0  0  0
   16.1740  -55.3378   38.1241 N   0  0  0  0  0  0  0  0  0  0  0  0
   17.4575  -53.2519   37.4785 C   0  0  0  0  0  0  0  0  0  0  0  0
   18.1777  -53.7806   36.4277 C   0  0  0  0  0  0  0  0  0  0  0  0
   19.1599  -53.0379   35.7764 C   0  0  0  0  0  0  0  0  0  0  0  0
   19.4447  -51.7469   36.1605 C   0  0  0  0  0  0  0  0  0  0  0  0
   18.7267  -51.2156   37.2099 C   0  0  0  0  0  0  0  0  0  0  0  0
   17.7426  -51.9629   37.8619 C   0  0  0  0  0  0  0  0  0  0  0  0
   20.1470  -53.7905   34.3219 Br  0  0  0  0  0  0  0  0  0  0  0  0
  6  7  2  0  0  0
  6  8  2  0  0  0
  6  9  1  0  0  0
  6  1  1  0  0  0
  9 10  1  0  0  0
  9 14  1  0  0  0
 10 11  1  0  0  0
 11 12  1  0  0  0
 12 13  1  0  0  0
 13 14  1  0  0  0
  1  2  1  0  0  0
  1  5  2  0  0  0
  2  3  2  0  0  0
  3  4  1  0  0  0
  4  5  1  0  0  0
  4 15  1  0  0  0
 15 16  1  0  0  0
 16 17  2  0  0  0
 16 20  1  0  0  0
 17 18  1  0  0  0
 18 19  1  0  0  0
 19 20  2  0  0  0
 19 21  1  0  0  0
 21 22  2  0  0  0
 21 26  1  0  0  0
 22 23  1  0  0  0
 23 24  2  0  0  0
 23 27  1  0  0  0
 24 25  1  0  0  0
 25 26  2  0  0  0
M  END
> <minimizedAffinity>
-10.13031

$$$$
1130


 29 32  0  0  0  0  0  0  0  0999 V2000
   15.7811  -57.5386   36.7141 C   0  0  0  0  0  0  0  0  0  0  0  0
   16.7847  -57.2910   35.8551 N   0  0  0  0  0  0  0  0  0  0  0  0
   17.4571  -56.1518   35.8182 N   0  0  0  0  0  0  0  0  0  0  0  0
   17.1621  -55.1442   36.6672 C   0  0  0  0  0  0  0  0  0  0  0  0
   16.1343  -55.3752   37.5586 C   0  0  0  0  0  0  0  0  0  0  0  0
   16.0266  -54.2476   38.2894 N   0  0  0  0  0  0  0  0  0  0  0  0
   16.9286  -53.3312   37.9024 C   0  0  0  0  0  0  0  0  0  0  0  0
   17.6663  -53.8707   36.8707 C   0  0  0  0  0  0  0  0  0  0  0  0
   18.6897  -53.1798   36.2396 C   0  0  0  0  0  0  0  0  0  0  0  0
   18.9498  -51.8979   36.6911 C   0  0  0  0  0  0  0  0  0  0  0  0
   18.2255  -51.3334   37.7210 C   0  0  0  0  0  0  0  0  0  0  0  0
   17.2161  -52.0366   38.3328 C   0  0  0  0  0  0  0  0  0  0  0  0
   20.3609  -50.9444   35.8199 Br  0  0  0  0  0  0  0  0  0  0  0  0
   15.0503  -54.0825   39.3482 C   0  0  0  0  0  0  0  0  0  0  0  0
   15.4551  -56.5605   37.5762 N   0  0  0  0  0  0  0  0  0  0  0  0
   14.9096  -59.1193   36.7046 S   0  0  0  0  0  0  0  0  0  0  0  0
   13.5833  -59.0224   35.4725 C   0  0  0  0  0  0  0  0  0  0  0  0
   14.1985  -58.7857   34.1347 C   0  0  0  0  0  0  0  0  0  0  0  0
   13.5392  -58.2242   33.2029 O   0  0  0  0  0  0  0  0  0  0  0  0
   15.5249  -59.1731   33.8525 N   0  0  0  0  0  0  0  0  0  0  0  0
   16.0776  -59.6351   34.6061 H   0  0  0  0  0  0  0  0  0  0  0  0
   16.1079  -58.9467   32.5823 C   0  0  0  0  0  0  0  0  0  0  0  0
   16.1406  -59.7753   31.5256 N   0  0  0  0  0  0  0  0  0  0  0  0
   16.7682  -59.2162   30.5278 O   0  0  0  0  0  0  0  0  0  0  0  0
   17.1441  -58.0439   30.9117 N   0  0  0  0  0  0  0  0  0  0  0  0
   16.7752  -57.7967   32.1750 C   0  0  0  0  0  0  0  0  0  0  0  0
   17.0234  -56.6154   32.9068 N   0  0  0  0  0  0  0  0  0  0  0  0
   16.3364  -56.3044   33.6188 H   0  0  0  0  0  0  0  0  0  0  0  0
   17.8746  -56.0347   32.7642 H   0  0  0  0  0  0  0  0  0  0  0  0
 16 17  1  0  0  0
 16  1  1  0  0  0
 17 18  1  0  0  0
 18 19  2  0  0  0
 18 20  1  0  0  0
 20 22  1  0  0  0
 22 23  2  0  0  0
 22 26  1  0  0  0
 23 24  1  0  0  0
 24 25  1  0  0  0
 25 26  2  0  0  0
 26 27  1  0  0  0
  1  2  2  0  0  0
  1 15  1  0  0  0
  2  3  1  0  0  0
  3  4  2  0  0  0
  4  5  1  0  0  0
  4  8  1  0  0  0
  5  6  1  0  0  0
  5 15  2  0  0  0
  6  7  1  0  0  0
  6 14  1  0  0  0
  7  8  2  0  0  0
  7 12  1  0  0  0
  8  9  1  0  0  0
  9 10  2  0  0  0
 10 11  1  0  0  0
 10 13  1  0  0  0
 11 12  2  0  0  0
 20 21  1  0  0  0
 27 28  1  0  0  0
 27 29  1  0  0  0
M  END
> <minimizedAffinity>
-9.01997

$$$$
1133


 35 38  0  0  0  0  0  0  0  0999 V2000
   15.3822  -57.3354   35.9964 C   0  0  0  0  0  0  0  0  0  0  0  0
   15.9174  -57.7549   34.8499 N   0  0  0  0  0  0  0  0  0  0  0  0
   15.0527  -58.6620   34.3232 C   0  0  0  0  0  0  0  0  0  0  0  0
   15.0086  -59.4886   33.2669 N   0  0  0  0  0  0  0  0  0  0  0  0
   14.0355  -60.3655   32.9982 C   0  0  0  0  0  0  0  0  0  0  0  0
   12.9634  -60.4294   33.8780 N   0  0  0  0  0  0  0  0  0  0  0  0
   12.9206  -59.6610   34.9378 C   0  0  0  0  0  0  0  0  0  0  0  0
   13.9399  -58.7684   35.2013 C   0  0  0  0  0  0  0  0  0  0  0  0
   14.2027  -57.9386   36.2034 N   0  0  0  0  0  0  0  0  0  0  0  0
   11.8811  -59.6774   35.8336 O   0  0  0  0  0  0  0  0  0  0  0  0
   14.0299  -61.2767   31.8887 N   0  0  0  0  0  0  0  0  0  0  0  0
   11.2311  -58.9094   35.9566 H   0  0  0  0  0  0  0  0  0  0  0  0
   13.4321  -61.2372   31.0660 H   0  0  0  0  0  0  0  0  0  0  0  0
   14.7058  -62.1156   31.9497 H   0  0  0  0  0  0  0  0  0  0  0  0
   17.1213  -57.3690   34.1873 C   0  0  0  0  0  0  0  0  0  0  0  0
   16.9383  -56.3877   33.1882 O   0  0  0  0  0  0  0  0  0  0  0  0
   18.2415  -56.3842   32.6398 C   0  0  0  0  0  0  0  0  0  0  0  0
   18.2943  -57.8776   32.2241 C   0  0  0  0  0  0  0  0  0  0  0  0
   17.9431  -58.4685   33.5957 C   0  0  0  0  0  0  0  0  0  0  0  0
   19.1688  -58.6279   34.2917 O   0  0  0  0  0  0  0  0  0  0  0  0
   19.5316  -58.2552   31.7776 O   0  0  0  0  0  0  0  0  0  0  0  0
   19.5366  -59.4687   33.9392 H   0  0  0  0  0  0  0  0  0  0  0  0
   19.4448  -58.8497   30.9943 H   0  0  0  0  0  0  0  0  0  0  0  0
   18.3644  -55.4721   31.4791 C   0  0  0  0  0  0  0  0  0  0  0  0
   17.9670  -56.1148   30.3001 O   0  0  0  0  0  0  0  0  0  0  0  0
   17.8337  -57.0863   30.5255 H   0  0  0  0  0  0  0  0  0  0  0  0
   16.1439  -56.2048   37.1687 S   0  0  0  0  0  0  0  0  0  0  0  0
   17.6463  -55.4276   36.4290 C   0  0  0  0  0  0  0  0  0  0  0  0
   17.7095  -54.0010   36.8206 C   0  0  0  0  0  0  0  0  0  0  0  0
   18.6996  -53.1337   36.4289 C   0  0  0  0  0  0  0  0  0  0  0  0
   18.7947  -51.8770   36.9174 C   0  0  0  0  0  0  0  0  0  0  0  0
   17.8827  -51.3869   37.8450 C   0  0  0  0  0  0  0  0  0  0  0  0
   16.8603  -52.2471   38.2694 C   0  0  0  0  0  0  0  0  0  0  0  0
   16.7769  -53.5302   37.7646 C   0  0  0  0  0  0  0  0  0  0  0  0
   19.8586  -53.7655   35.0447 Br  0  0  0  0  0  0  0  0  0  0  0  0
 27 28  1  0  0  0
 27  1  1  0  0  0
 28 29  1  0  0  0
 29 30  2  0  0  0
 29 34  1  0  0  0
 30 31  1  0  0  0
 30 35  1  0  0  0
 31 32  2  0  0  0
 32 33  1  0  0  0
 33 34  2  0  0  0
  1  2  1  0  0  0
  1  9  2  0  0  0
  2  3  1  0  0  0
  2 15  1  0  0  0
  3  4  2  0  0  0
  3  8  1  0  0  0
  4  5  1  0  0  0
  5  6  2  0  0  0
  5 11  1  0  0  0
  6  7  1  0  0  0
  7  8  2  0  0  0
  7 10  1  0  0  0
  8  9  1  0  0  0
 15 16  1  0  0  0
 15 19  1  0  0  0
 16 17  1  0  0  0
 17 18  1  0  0  0
 17 24  1  0  0  0
 18 19  1  0  0  0
 18 21  1  0  0  0
 19 20  1  0  0  0
 24 25  1  0  0  0
 10 12  1  0  0  0
 11 13  1  0  0  0
 11 14  1  0  0  0
 20 22  1  0  0  0
 21 23  1  0  0  0
 25 26  1  0  0  0
M  END
> <minimizedAffinity>
-10.26265

$$$$
1143


 33 37  0  0  0  0  0  0  0  0999 V2000
   17.0896  -62.5337   29.5734 C   0  0  0  0  0  0  0  0  0  0  0  0
   17.5169  -63.7322   28.8647 N   0  0  0  0  0  0  0  0  0  0  0  0
   18.8559  -64.1088   29.2842 C   0  0  0  0  0  0  0  0  0  0  0  0
   19.5804  -63.0420   30.0629 C   0  0  0  0  0  0  0  0  0  0  0  0
   19.3175  -61.7175   29.3952 C   0  0  0  0  0  0  0  0  0  0  0  0
   17.9544  -61.4615   29.1127 C   0  0  0  0  0  0  0  0  0  0  0  0
   17.6084  -60.2972   28.4850 C   0  0  0  0  0  0  0  0  0  0  0  0
   18.6293  -59.4089   28.1545 C   0  0  0  0  0  0  0  0  0  0  0  0
   19.9465  -59.6792   28.4411 C   0  0  0  0  0  0  0  0  0  0  0  0
   20.3125  -60.8528   29.0738 C   0  0  0  0  0  0  0  0  0  0  0  0
   20.7146  -58.6224   27.9978 O   0  0  0  0  0  0  0  0  0  0  0  0
   19.9232  -57.8061   27.1701 C   0  0  0  0  0  0  0  0  0  0  0  0
   18.5974  -58.1888   27.5357 O   0  0  0  0  0  0  0  0  0  0  0  0
   17.5018  -63.6257   27.4464 C   0  0  0  0  0  0  0  0  0  0  0  0
   16.8722  -64.4965   29.1559 H   0  0  0  0  0  0  0  0  0  0  0  0
   16.3708  -63.8063   34.0222 S   0  0  0  0  0  0  0  0  0  0  0  0
   15.8112  -63.2893   32.4065 C   0  0  0  0  0  0  0  0  0  0  0  0
   15.5950  -64.1206   31.4530 N   0  0  0  0  0  0  0  0  0  0  0  0
   15.1507  -63.7844   30.1491 C   0  0  0  0  0  0  0  0  0  0  0  0
   14.4375  -64.5083   29.4494 O   0  0  0  0  0  0  0  0  0  0  0  0
   15.6410  -62.4044   29.6590 C   0  0  0  0  0  0  0  0  0  0  0  0
   15.1408  -61.5427   30.7730 C   0  0  0  0  0  0  0  0  0  0  0  0
   14.3951  -60.5680   30.6614 O   0  0  0  0  0  0  0  0  0  0  0  0
   15.5772  -61.9010   32.0758 N   0  0  0  0  0  0  0  0  0  0  0  0
   15.7731  -60.9010   33.0330 C   0  0  0  0  0  0  0  0  0  0  0  0
   16.9650  -60.1686   32.9693 C   0  0  0  0  0  0  0  0  0  0  0  0
   17.2288  -59.1666   33.8780 C   0  0  0  0  0  0  0  0  0  0  0  0
   16.2951  -58.8840   34.8701 C   0  0  0  0  0  0  0  0  0  0  0  0
   15.1055  -59.6217   34.9253 C   0  0  0  0  0  0  0  0  0  0  0  0
   14.8596  -60.6174   34.0101 C   0  0  0  0  0  0  0  0  0  0  0  0
   16.6176  -57.5199   36.1337 Br  0  0  0  0  0  0  0  0  0  0  0  0
   16.2888  -59.9988   28.1761 O   0  0  0  0  0  0  0  0  0  0  0  0
   15.8369  -60.1886   26.8397 C   0  0  0  0  0  0  0  0  0  0  0  0
 16 17  1  0  0  0
 17 18  2  0  0  0
 17 24  1  0  0  0
 18 19  1  0  0  0
 19 20  2  0  0  0
 19 21  1  0  0  0
 21 22  1  0  0  0
 21  1  1  0  0  0
 22 23  2  0  0  0
 22 24  1  0  0  0
 24 25  1  0  0  0
 25 26  2  0  0  0
 25 30  1  0  0  0
 26 27  1  0  0  0
 27 28  2  0  0  0
 28 29  1  0  0  0
 28 31  1  0  0  0
 29 30  2  0  0  0
  1  2  1  0  0  0
  1  6  1  0  0  0
  2  3  1  0  0  0
  2 14  1  0  0  0
  3  4  1  0  0  0
  4  5  1  0  0  0
  5  6  2  0  0  0
  5 10  1  0  0  0
  6  7  1  0  0  0
  7  8  2  0  0  0
  7 32  1  0  0  0
  8  9  1  0  0  0
  8 13  1  0  0  0
  9 10  2  0  0  0
  9 11  1  0  0  0
 11 12  1  0  0  0
 12 13  1  0  0  0
 32 33  1  0  0  0
  2 15  1  0  0  0
M  CHG 1   2   1
M  END
> <minimizedAffinity>
-5.29703

$$$$
1151


 24 27  0  0  0  0  0  0  0  0999 V2000
   14.5227  -59.6450   34.2862 S   0  0  0  0  0  0  0  0  0  0  0  0
   13.9312  -60.5812   33.2728 O   0  0  0  0  0  0  0  0  0  0  0  0
   14.3842  -60.1772   35.6853 O   0  0  0  0  0  0  0  0  0  0  0  0
   16.2333  -59.3030   33.9326 C   0  0  0  0  0  0  0  0  0  0  0  0
   16.5198  -57.9464   34.5427 C   0  0  0  0  0  0  0  0  0  0  0  0
   15.8241  -56.9339   33.7742 N   0  0  0  0  0  0  0  0  0  0  0  0
   14.5082  -57.1965   33.2303 C   0  0  0  0  0  0  0  0  0  0  0  0
   13.7023  -58.0460   34.2153 C   0  0  0  0  0  0  0  0  0  0  0  0
   16.7061  -55.8192   33.7441 C   0  0  0  0  0  0  0  0  0  0  0  0
   16.4010  -54.6299   33.3909 O   0  0  0  0  0  0  0  0  0  0  0  0
   18.0086  -56.1969   34.1702 N   0  0  0  0  0  0  0  0  0  0  0  0
   17.9385  -57.5825   34.4720 C   0  0  0  0  0  0  0  0  0  0  0  0
   18.9095  -58.3755   34.6508 O   0  0  0  0  0  0  0  0  0  0  0  0
   19.1932  -55.3595   34.2838 C   0  0  0  0  0  0  0  0  0  0  0  0
   19.4543  -54.5987   32.9954 C   0  0  0  0  0  0  0  0  0  0  0  0
   20.7668  -53.8431   33.2141 C   0  0  0  0  0  0  0  0  0  0  0  0
   20.4990  -52.8727   34.2104 O   0  0  0  0  0  0  0  0  0  0  0  0
   19.6660  -53.1682   35.2836 C   0  0  0  0  0  0  0  0  0  0  0  0
   19.0121  -54.3651   35.3578 C   0  0  0  0  0  0  0  0  0  0  0  0
   18.1927  -54.6560   36.4129 C   0  0  0  0  0  0  0  0  0  0  0  0
   18.0358  -53.7173   37.4041 C   0  0  0  0  0  0  0  0  0  0  0  0
   18.6993  -52.5197   37.3164 C   0  0  0  0  0  0  0  0  0  0  0  0
   19.5342  -52.1950   36.2625 C   0  0  0  0  0  0  0  0  0  0  0  0
   20.4476  -50.5316   36.1529 Br  0  0  0  0  0  0  0  0  0  0  0  0
  1  2  2  0  0  0
  1  3  2  0  0  0
  1  4  1  0  0  0
  1  8  1  0  0  0
  4  5  1  0  0  0
  5  6  1  0  0  0
  5 12  1  0  0  0
  6  7  1  0  0  0
  6  9  1  0  0  0
  7  8  1  0  0  0
  9 10  2  0  0  0
  9 11  1  0  0  0
 11 12  1  0  0  0
 11 14  1  0  0  0
 12 13  2  0  0  0
 14 15  1  0  0  0
 14 19  1  0  0  0
 15 16  1  0  0  0
 16 17  1  0  0  0
 17 18  1  0  0  0
 18 19  2  0  0  0
 18 23  1  0  0  0
 19 20  1  0  0  0
 20 21  2  0  0  0
 21 22  1  0  0  0
 22 23  2  0  0  0
 23 24  1  0  0  0
M  END
> <minimizedAffinity>
-8.60411

$$$$
1157


 24 27  0  0  0  0  0  0  0  0999 V2000
   17.1941  -53.6308   38.4097 C   0  0  0  0  0  0  0  0  0  0  0  0
   17.6394  -52.7540   37.2671 C   0  0  0  0  0  0  0  0  0  0  0  0
   18.8055  -53.4754   36.7798 N   0  0  0  0  0  0  0  0  0  0  0  0
   19.5658  -53.8088   37.9606 C   0  0  0  0  0  0  0  0  0  0  0  0
   18.5217  -53.9796   39.0478 C   0  0  0  0  0  0  0  0  0  0  0  0
   19.0870  -53.7646   35.4011 C   0  0  0  0  0  0  0  0  0  0  0  0
   20.1622  -53.2375   34.7856 N   0  0  0  0  0  0  0  0  0  0  0  0
   20.3989  -53.5256   33.4940 C   0  0  0  0  0  0  0  0  0  0  0  0
   19.5757  -54.3475   32.7680 C   0  0  0  0  0  0  0  0  0  0  0  0
   18.4986  -54.8824   33.3676 N   0  0  0  0  0  0  0  0  0  0  0  0
   18.2705  -54.5865   34.6623 C   0  0  0  0  0  0  0  0  0  0  0  0
   17.1438  -55.2550   34.9761 N   0  0  0  0  0  0  0  0  0  0  0  0
   16.6884  -55.9335   33.9368 N   0  0  0  0  0  0  0  0  0  0  0  0
   17.5289  -55.7116   32.9123 C   0  0  0  0  0  0  0  0  0  0  0  0
   15.4349  -55.4148   38.5211 C   0  0  0  0  0  0  0  0  0  0  0  0
   14.8285  -54.8676   39.4750 O   0  0  0  0  0  0  0  0  0  0  0  0
   16.6035  -54.8747   37.9384 N   0  0  0  0  0  0  0  0  0  0  0  0
   17.0425  -55.3975   37.1485 H   0  0  0  0  0  0  0  0  0  0  0  0
   15.4947  -57.8266   36.9411 S   0  0  0  0  0  0  0  0  0  0  0  0
   14.8487  -56.6821   38.0283 C   0  0  0  0  0  0  0  0  0  0  0  0
   13.6304  -57.2227   38.3484 C   0  0  0  0  0  0  0  0  0  0  0  0
   13.3001  -58.3856   37.7828 C   0  0  0  0  0  0  0  0  0  0  0  0
   14.2104  -58.9466   36.9242 C   0  0  0  0  0  0  0  0  0  0  0  0
   11.6240  -59.3058   38.1093 Br  0  0  0  0  0  0  0  0  0  0  0  0
 19 20  1  0  0  0
 19 23  1  0  0  0
 20 21  2  0  0  0
 20 15  1  0  0  0
 21 22  1  0  0  0
 22 23  2  0  0  0
 22 24  1  0  0  0
 15 16  2  0  0  0
 15 17  1  0  0  0
 17  1  1  0  0  0
  1  2  1  0  0  0
  1  5  1  0  0  0
  2  3  1  0  0  0
  3  4  1  0  0  0
  3  6  1  0  0  0
  4  5  1  0  0  0
  6  7  2  0  0  0
  6 11  1  0  0  0
  7  8  1  0  0  0
  8  9  2  0  0  0
  9 10  1  0  0  0
 10 11  1  0  0  0
 10 14  1  0  0  0
 11 12  2  0  0  0
 12 13  1  0  0  0
 13 14  2  0  0  0
 17 18  1  0  0  0
M  END
> <minimizedAffinity>
-8.46822

$$$$
1160


 25 28  0  0  0  0  0  0  0  0999 V2000
   15.7895  -54.8240   38.8291 C   0  0  0  0  0  0  0  0  0  0  0  0
   15.4914  -55.8121   37.9660 N   0  0  0  0  0  0  0  0  0  0  0  0
   14.4050  -56.4831   38.3860 C   0  0  0  0  0  0  0  0  0  0  0  0
   14.0449  -55.8791   39.5309 N   0  0  0  0  0  0  0  0  0  0  0  0
   14.8823  -54.8961   39.7741 O   0  0  0  0  0  0  0  0  0  0  0  0
   13.7389  -57.6236   37.7569 C   0  0  0  0  0  0  0  0  0  0  0  0
   13.9288  -58.0591   36.5000 N   0  0  0  0  0  0  0  0  0  0  0  0
   13.1546  -59.1231   36.2613 N   0  0  0  0  0  0  0  0  0  0  0  0
   12.4473  -59.3863   37.3830 C   0  0  0  0  0  0  0  0  0  0  0  0
   12.8230  -58.4511   38.2867 N   0  0  0  0  0  0  0  0  0  0  0  0
   13.0800  -59.8724   35.0183 C   0  0  0  0  0  0  0  0  0  0  0  0
   13.7778  -59.1067   33.9635 C   0  0  0  0  0  0  0  0  0  0  0  0
   13.1159  -58.3092   33.2640 O   0  0  0  0  0  0  0  0  0  0  0  0
   15.1667  -59.2824   33.7619 N   0  0  0  0  0  0  0  0  0  0  0  0
   15.8133  -58.4614   33.6017 H   0  0  0  0  0  0  0  0  0  0  0  0
   15.6434  -60.2165   33.7584 H   0  0  0  0  0  0  0  0  0  0  0  0
   16.7117  -52.7659   37.6611 C   0  0  0  0  0  0  0  0  0  0  0  0
   16.9231  -53.8376   38.7394 C   0  0  0  0  0  0  0  0  0  0  0  0
   16.6786  -52.4180   39.0832 C   0  0  0  0  0  0  0  0  0  0  0  0
   20.0274  -51.4526   36.0875 S   0  0  0  0  0  0  0  0  0  0  0  0
   19.5568  -52.8458   35.2367 C   0  0  0  0  0  0  0  0  0  0  0  0
   18.3976  -53.2250   35.8613 C   0  0  0  0  0  0  0  0  0  0  0  0
   17.9829  -52.4542   36.8926 C   0  0  0  0  0  0  0  0  0  0  0  0
   18.7548  -51.3735   37.2136 C   0  0  0  0  0  0  0  0  0  0  0  0
   20.4158  -53.7193   33.7444 Br  0  0  0  0  0  0  0  0  0  0  0  0
 20 21  1  0  0  0
 20 24  1  0  0  0
 21 22  2  0  0  0
 21 25  1  0  0  0
 22 23  1  0  0  0
 23 24  2  0  0  0
 23 17  1  0  0  0
 17 18  1  0  0  0
 17 19  1  0  0  0
 18 19  1  0  0  0
 18  1  1  0  0  0
  1  2  2  0  0  0
  1  5  1  0  0  0
  2  3  1  0  0  0
  3  4  2  0  0  0
  3  6  1  0  0  0
  4  5  1  0  0  0
  6  7  2  0  0  0
  6 10  1  0  0  0
  7  8  1  0  0  0
  8  9  1  0  0  0
  8 11  1  0  0  0
  9 10  2  0  0  0
 11 12  1  0  0  0
 12 13  2  0  0  0
 12 14  1  0  0  0
 14 15  1  0  0  0
 14 16  1  0  0  0
M  END
> <minimizedAffinity>
-8.79681

$$$$
1161


 29 32  0  0  0  0  0  0  0  0999 V2000
   15.6589  -58.1158   34.9956 N   0  0  0  0  0  0  0  0  0  0  0  0
   16.2587  -57.0198   34.4728 C   0  0  0  0  0  0  0  0  0  0  0  0
   16.6694  -56.1967   35.4772 C   0  0  0  0  0  0  0  0  0  0  0  0
   17.3145  -55.0075   35.1902 C   0  0  0  0  0  0  0  0  0  0  0  0
   17.5357  -54.6677   33.8752 C   0  0  0  0  0  0  0  0  0  0  0  0
   17.1329  -55.4793   32.8458 C   0  0  0  0  0  0  0  0  0  0  0  0
   16.4931  -56.6562   33.1657 C   0  0  0  0  0  0  0  0  0  0  0  0
   16.3181  -56.7877   36.6235 N   0  0  0  0  0  0  0  0  0  0  0  0
   15.6980  -57.9645   36.3221 C   0  0  0  0  0  0  0  0  0  0  0  0
   15.2533  -58.7181   37.2577 N   0  0  0  0  0  0  0  0  0  0  0  0
   14.7650  -59.6089   37.1858 H   0  0  0  0  0  0  0  0  0  0  0  0
   15.1078  -59.1938   34.2132 C   0  0  0  0  0  0  0  0  0  0  0  0
   13.6337  -59.0888   34.0857 C   0  0  0  0  0  0  0  0  0  0  0  0
   13.1086  -58.2488   33.3140 O   0  0  0  0  0  0  0  0  0  0  0  0
   12.3034  -61.5934   34.6041 S   0  0  0  0  0  0  0  0  0  0  0  0
   11.2166  -61.8031   35.8939 C   0  0  0  0  0  0  0  0  0  0  0  0
   11.2122  -60.5718   36.4888 C   0  0  0  0  0  0  0  0  0  0  0  0
   11.9844  -59.6226   35.9558 C   0  0  0  0  0  0  0  0  0  0  0  0
   12.7259  -59.9523   34.8492 C   0  0  0  0  0  0  0  0  0  0  0  0
   10.2574  -63.3819   36.3689 Br  0  0  0  0  0  0  0  0  0  0  0  0
   16.5827  -56.2472   37.9496 C   0  0  0  0  0  0  0  0  0  0  0  0
   16.3997  -54.7230   37.8902 C   0  0  0  0  0  0  0  0  0  0  0  0
   16.8395  -54.0821   39.0958 N   0  0  0  0  0  0  0  0  0  0  0  0
   18.2801  -54.0006   39.2293 C   0  0  0  0  0  0  0  0  0  0  0  0
   18.9252  -53.4020   38.0115 C   0  0  0  0  0  0  0  0  0  0  0  0
   18.2666  -52.1456   37.5500 C   0  0  0  0  0  0  0  0  0  0  0  0
   16.8236  -52.0075   37.8804 C   0  0  0  0  0  0  0  0  0  0  0  0
   16.3526  -52.7240   39.0955 C   0  0  0  0  0  0  0  0  0  0  0  0
   16.5057  -54.6089   39.9318 H   0  0  0  0  0  0  0  0  0  0  0  0
 15 16  1  0  0  0
 15 19  1  0  0  0
 16 17  2  0  0  0
 16 20  1  0  0  0
 17 18  1  0  0  0
 18 19  2  0  0  0
 19 13  1  0  0  0
 13 14  2  0  0  0
 13 12  1  0  0  0
 12  1  1  0  0  0
  1  2  1  0  0  0
  1  9  1  0  0  0
  2  3  1  0  0  0
  2  7  2  0  0  0
  3  4  2  0  0  0
  3  8  1  0  0  0
  4  5  1  0  0  0
  5  6  2  0  0  0
  6  7  1  0  0  0
  8  9  1  0  0  0
  8 21  1  0  0  0
  9 10  2  0  0  0
 21 22  1  0  0  0
 22 23  1  0  0  0
 23 24  1  0  0  0
 23 28  1  0  0  0
 24 25  1  0  0  0
 25 26  1  0  0  0
 26 27  1  0  0  0
 27 28  1  0  0  0
 10 11  1  0  0  0
 23 29  1  0  0  0
M  CHG 1  23   1
M  END
> <minimizedAffinity>
-8.90391

$$$$
1177


 33 36  0  0  0  0  0  0  0  0999 V2000
   18.4014  -57.5790   31.5723 C   0  0  0  0  0  0  0  0  0  0  0  0
   18.6141  -56.3984   32.1212 C   0  0  0  0  0  0  0  0  0  0  0  0
   17.9130  -55.7746   33.2921 C   0  0  0  0  0  0  0  0  0  0  0  0
   18.9278  -54.9826   33.9140 N   0  0  0  0  0  0  0  0  0  0  0  0
   19.7379  -54.5026   32.8049 C   0  0  0  0  0  0  0  0  0  0  0  0
   20.4673  -53.4771   32.8845 O   0  0  0  0  0  0  0  0  0  0  0  0
   19.5518  -55.3810   31.6641 C   0  0  0  0  0  0  0  0  0  0  0  0
   20.0894  -55.2836   30.5112 O   0  0  0  0  0  0  0  0  0  0  0  0
   17.3892  -58.4085   32.1074 O   0  0  0  0  0  0  0  0  0  0  0  0
   20.8974  -58.0348   30.3010 S   0  0  0  0  0  0  0  0  0  0  0  0
   21.0396  -58.6289   28.7084 C   0  0  0  0  0  0  0  0  0  0  0  0
   19.7780  -58.7934   28.3583 N   0  0  0  0  0  0  0  0  0  0  0  0
   18.8258  -58.5040   29.1953 C   0  0  0  0  0  0  0  0  0  0  0  0
   19.1905  -58.0334   30.4295 C   0  0  0  0  0  0  0  0  0  0  0  0
   17.3710  -58.6557   28.7702 C   0  0  0  0  0  0  0  0  0  0  0  0
   22.2884  -58.8980   27.9012 C   0  0  0  0  0  0  0  0  0  0  0  0
   17.2385  -56.7690   34.1162 C   0  0  0  0  0  0  0  0  0  0  0  0
   15.8579  -56.9442   33.9327 C   0  0  0  0  0  0  0  0  0  0  0  0
   15.1174  -57.8646   34.6296 C   0  0  0  0  0  0  0  0  0  0  0  0
   15.7341  -58.6667   35.5579 C   0  0  0  0  0  0  0  0  0  0  0  0
   17.0972  -58.5239   35.7665 C   0  0  0  0  0  0  0  0  0  0  0  0
   17.8092  -57.5877   35.0471 C   0  0  0  0  0  0  0  0  0  0  0  0
   13.2390  -58.0816   34.3593 Br  0  0  0  0  0  0  0  0  0  0  0  0
   19.1475  -54.6184   35.2824 C   0  0  0  0  0  0  0  0  0  0  0  0
   18.4953  -53.3563   35.7455 C   0  0  0  0  0  0  0  0  0  0  0  0
   17.1544  -53.6571   36.4326 C   0  0  0  0  0  0  0  0  0  0  0  0
   17.4024  -54.5218   37.5365 N   0  0  0  0  0  0  0  0  0  0  0  0
   17.7821  -53.8929   38.7611 C   0  0  0  0  0  0  0  0  0  0  0  0
   16.6302  -53.2322   39.4806 C   0  0  0  0  0  0  0  0  0  0  0  0
   15.4916  -53.3920   38.6592 O   0  0  0  0  0  0  0  0  0  0  0  0
   15.2317  -54.7770   38.6730 C   0  0  0  0  0  0  0  0  0  0  0  0
   16.2899  -55.4163   37.7981 C   0  0  0  0  0  0  0  0  0  0  0  0
   18.2120  -55.1547   37.2579 H   0  0  0  0  0  0  0  0  0  0  0  0
 10 11  1  0  0  0
 10 14  1  0  0  0
 11 12  2  0  0  0
 11 16  1  0  0  0
 12 13  1  0  0  0
 13 14  2  0  0  0
 13 15  1  0  0  0
 14  1  1  0  0  0
  1  2  2  0  0  0
  1  9  1  0  0  0
  2  3  1  0  0  0
  2  7  1  0  0  0
  3  4  1  0  0  0
  3 17  1  0  0  0
  4  5  1  0  0  0
  4 24  1  0  0  0
  5  6  2  0  0  0
  5  7  1  0  0  0
  7  8  2  0  0  0
 24 25  1  0  0  0
 25 26  1  0  0  0
 26 27  1  0  0  0
 27 28  1  0  0  0
 27 32  1  0  0  0
 28 29  1  0  0  0
 29 30  1  0  0  0
 30 31  1  0  0  0
 31 32  1  0  0  0
 17 18  2  0  0  0
 17 22  1  0  0  0
 18 19  1  0  0  0
 19 20  2  0  0  0
 19 23  1  0  0  0
 20 21  1  0  0  0
 21 22  2  0  0  0
 27 33  1  0  0  0
M  CHG 1   9  -1
M  CHG 1  27   1
M  END
> <minimizedAffinity>
-7.91982

$$$$
1178


 33 36  0  0  0  0  0  0  0  0999 V2000
   13.7914  -59.7897   34.2801 C   0  0  0  0  0  0  0  0  0  0  0  0
   13.8227  -59.0072   35.3180 C   0  0  0  0  0  0  0  0  0  0  0  0
   14.5971  -57.7302   35.4140 C   0  0  0  0  0  0  0  0  0  0  0  0
   14.9684  -57.6926   36.8035 N   0  0  0  0  0  0  0  0  0  0  0  0
   13.8623  -58.2734   37.5076 C   0  0  0  0  0  0  0  0  0  0  0  0
   13.5810  -58.0928   38.7061 O   0  0  0  0  0  0  0  0  0  0  0  0
   13.1124  -59.1148   36.5857 C   0  0  0  0  0  0  0  0  0  0  0  0
   12.0735  -59.8089   36.7577 O   0  0  0  0  0  0  0  0  0  0  0  0
   14.5240  -59.4410   33.1328 O   0  0  0  0  0  0  0  0  0  0  0  0
   11.2959  -61.2403   34.2251 S   0  0  0  0  0  0  0  0  0  0  0  0
   11.2379  -62.9429   34.2286 C   0  0  0  0  0  0  0  0  0  0  0  0
   12.5128  -63.2708   34.2830 N   0  0  0  0  0  0  0  0  0  0  0  0
   13.4200  -62.3431   34.3187 C   0  0  0  0  0  0  0  0  0  0  0  0
   12.9952  -61.0367   34.2976 C   0  0  0  0  0  0  0  0  0  0  0  0
   14.9074  -62.6855   34.3375 C   0  0  0  0  0  0  0  0  0  0  0  0
   10.0561  -63.8736   34.1821 C   0  0  0  0  0  0  0  0  0  0  0  0
   15.7106  -57.7158   34.4538 C   0  0  0  0  0  0  0  0  0  0  0  0
   16.8078  -58.5326   34.4651 C   0  0  0  0  0  0  0  0  0  0  0  0
   17.8326  -58.4834   33.5474 C   0  0  0  0  0  0  0  0  0  0  0  0
   17.7666  -57.5537   32.5407 C   0  0  0  0  0  0  0  0  0  0  0  0
   16.6926  -56.7055   32.4755 C   0  0  0  0  0  0  0  0  0  0  0  0
   15.6850  -56.7820   33.4090 C   0  0  0  0  0  0  0  0  0  0  0  0
   19.1946  -57.4890   31.2636 Br  0  0  0  0  0  0  0  0  0  0  0  0
   16.1901  -57.1534   37.3217 C   0  0  0  0  0  0  0  0  0  0  0  0
   16.2007  -55.6980   37.5398 C   0  0  0  0  0  0  0  0  0  0  0  0
   17.4011  -54.9649   37.2309 C   0  0  0  0  0  0  0  0  0  0  0  0
   18.2164  -54.2109   38.0587 N   0  0  0  0  0  0  0  0  0  0  0  0
   17.3936  -53.2563   38.8907 C   0  0  0  0  0  0  0  0  0  0  0  0
   17.0326  -52.0700   38.0592 C   0  0  0  0  0  0  0  0  0  0  0  0
   18.2050  -51.3631   37.8164 O   0  0  0  0  0  0  0  0  0  0  0  0
   18.9445  -52.1654   36.9185 C   0  0  0  0  0  0  0  0  0  0  0  0
   19.3230  -53.4721   37.5588 C   0  0  0  0  0  0  0  0  0  0  0  0
   18.6093  -54.8174   38.8188 H   0  0  0  0  0  0  0  0  0  0  0  0
 10 11  1  0  0  0
 10 14  1  0  0  0
 11 12  2  0  0  0
 11 16  1  0  0  0
 12 13  1  0  0  0
 13 14  2  0  0  0
 13 15  1  0  0  0
 14  1  1  0  0  0
  1  2  2  0  0  0
  1  9  1  0  0  0
  2  3  1  0  0  0
  2  7  1  0  0  0
  3  4  1  0  0  0
  3 17  1  0  0  0
  4  5  1  0  0  0
  4 24  1  0  0  0
  5  6  2  0  0  0
  5  7  1  0  0  0
  7  8  2  0  0  0
 24 25  1  0  0  0
 25 26  1  0  0  0
 26 27  1  0  0  0
 27 28  1  0  0  0
 27 32  1  0  0  0
 28 29  1  0  0  0
 29 30  1  0  0  0
 30 31  1  0  0  0
 31 32  1  0  0  0
 17 18  2  0  0  0
 17 22  1  0  0  0
 18 19  1  0  0  0
 19 20  2  0  0  0
 20 21  1  0  0  0
 20 23  1  0  0  0
 21 22  2  0  0  0
 27 33  1  0  0  0
M  CHG 1   9  -1
M  CHG 1  27   1
M  END
> <minimizedAffinity>
-8.40802

$$$$
1180


 32 35  0  0  0  0  0  0  0  0999 V2000
   16.1241  -59.8237   33.3046 C   0  0  0  0  0  0  0  0  0  0  0  0
   15.3027  -59.1756   34.1034 C   0  0  0  0  0  0  0  0  0  0  0  0
   15.4223  -57.7961   34.6662 C   0  0  0  0  0  0  0  0  0  0  0  0
   15.0759  -58.0265   36.0150 N   0  0  0  0  0  0  0  0  0  0  0  0
   13.8478  -58.8440   35.8818 C   0  0  0  0  0  0  0  0  0  0  0  0
   12.8740  -58.8864   36.6804 O   0  0  0  0  0  0  0  0  0  0  0  0
   14.0050  -59.5882   34.6368 C   0  0  0  0  0  0  0  0  0  0  0  0
   13.2294  -60.4236   34.0774 O   0  0  0  0  0  0  0  0  0  0  0  0
   17.2880  -59.2169   32.8674 O   0  0  0  0  0  0  0  0  0  0  0  0
   15.6976  -62.6148   33.8870 S   0  0  0  0  0  0  0  0  0  0  0  0
   15.1033  -63.7052   32.7242 C   0  0  0  0  0  0  0  0  0  0  0  0
   14.9649  -62.9370   31.6620 N   0  0  0  0  0  0  0  0  0  0  0  0
   15.2713  -61.6785   31.7222 C   0  0  0  0  0  0  0  0  0  0  0  0
   15.7390  -61.1899   32.9191 C   0  0  0  0  0  0  0  0  0  0  0  0
   15.0768  -60.7657   30.5203 C   0  0  0  0  0  0  0  0  0  0  0  0
   14.8106  -65.1746   32.8651 C   0  0  0  0  0  0  0  0  0  0  0  0
   16.5022  -56.9900   34.2128 C   0  0  0  0  0  0  0  0  0  0  0  0
   16.3038  -56.1442   33.1176 C   0  0  0  0  0  0  0  0  0  0  0  0
   17.2954  -55.3481   32.6065 C   0  0  0  0  0  0  0  0  0  0  0  0
   18.5355  -55.3924   33.2079 C   0  0  0  0  0  0  0  0  0  0  0  0
   18.7520  -56.2206   34.2896 C   0  0  0  0  0  0  0  0  0  0  0  0
   17.7408  -57.0113   34.7848 C   0  0  0  0  0  0  0  0  0  0  0  0
   19.9749  -54.3132   32.5578 Br  0  0  0  0  0  0  0  0  0  0  0  0
   15.4728  -57.6740   37.3357 C   0  0  0  0  0  0  0  0  0  0  0  0
   15.1068  -56.3668   37.8947 C   0  0  0  0  0  0  0  0  0  0  0  0
   16.0679  -55.4548   38.3655 N   0  0  0  0  0  0  0  0  0  0  0  0
   16.9044  -54.8717   37.3379 C   0  0  0  0  0  0  0  0  0  0  0  0
   17.9527  -54.0357   38.0649 C   0  0  0  0  0  0  0  0  0  0  0  0
   17.5699  -53.7930   39.3840 O   0  0  0  0  0  0  0  0  0  0  0  0
   16.2709  -53.2512   39.3061 C   0  0  0  0  0  0  0  0  0  0  0  0
   15.2743  -54.2785   38.8510 C   0  0  0  0  0  0  0  0  0  0  0  0
   16.5682  -55.8087   39.1874 H   0  0  0  0  0  0  0  0  0  0  0  0
 10 11  1  0  0  0
 10 14  1  0  0  0
 11 12  2  0  0  0
 11 16  1  0  0  0
 12 13  1  0  0  0
 13 14  2  0  0  0
 13 15  1  0  0  0
 14  1  1  0  0  0
  1  2  2  0  0  0
  1  9  1  0  0  0
  2  3  1  0  0  0
  2  7  1  0  0  0
  3  4  1  0  0  0
  3 17  1  0  0  0
  4  5  1  0  0  0
  4 24  1  0  0  0
  5  6  2  0  0  0
  5  7  1  0  0  0
  7  8  2  0  0  0
 24 25  1  0  0  0
 25 26  1  0  0  0
 26 27  1  0  0  0
 26 31  1  0  0  0
 27 28  1  0  0  0
 28 29  1  0  0  0
 29 30  1  0  0  0
 30 31  1  0  0  0
 17 18  2  0  0  0
 17 22  1  0  0  0
 18 19  1  0  0  0
 19 20  2  0  0  0
 20 21  1  0  0  0
 20 23  1  0  0  0
 21 22  2  0  0  0
 26 32  1  0  0  0
M  CHG 1   9  -1
M  CHG 1  26   1
M  END
> <minimizedAffinity>
-8.02433

$$$$
1192


 27 30  0  0  0  0  0  0  0  0999 V2000
   16.9932  -58.8901   35.8102 S   0  0  0  0  0  0  0  0  0  0  0  0
   17.5770  -57.6303   34.7987 C   0  0  0  0  0  0  0  0  0  0  0  0
   16.4801  -57.3293   34.0374 C   0  0  0  0  0  0  0  0  0  0  0  0
   15.3574  -58.0290   34.2638 C   0  0  0  0  0  0  0  0  0  0  0  0
   15.3971  -58.9887   35.2392 C   0  0  0  0  0  0  0  0  0  0  0  0
   14.1313  -59.7593   35.4770 C   0  0  0  0  0  0  0  0  0  0  0  0
   13.0622  -58.7966   35.7332 N   0  0  0  0  0  0  0  0  0  0  0  0
   12.9356  -57.8054   34.7100 C   0  0  0  0  0  0  0  0  0  0  0  0
   13.9842  -57.9537   33.6132 C   0  0  0  0  0  0  0  0  0  0  0  0
   13.4387  -58.1088   36.9683 C   0  0  0  0  0  0  0  0  0  0  0  0
   16.7043  -56.2435   33.0430 C   0  0  0  0  0  0  0  0  0  0  0  0
   15.7702  -55.8671   32.2751 O   0  0  0  0  0  0  0  0  0  0  0  0
   17.9849  -55.6368   32.9719 N   0  0  0  0  0  0  0  0  0  0  0  0
   18.9501  -55.6453   34.0318 C   0  0  0  0  0  0  0  0  0  0  0  0
   18.8500  -56.9541   34.6582 N   0  0  0  0  0  0  0  0  0  0  0  0
   12.1757  -59.2958   35.9487 H   0  0  0  0  0  0  0  0  0  0  0  0
   18.2281  -55.1484   32.0635 H   0  0  0  0  0  0  0  0  0  0  0  0
   19.6811  -57.4570   35.0302 H   0  0  0  0  0  0  0  0  0  0  0  0
   18.6989  -54.5920   35.0455 C   0  0  0  0  0  0  0  0  0  0  0  0
   17.7136  -54.7215   36.0027 C   0  0  0  0  0  0  0  0  0  0  0  0
   17.4671  -53.7553   36.9517 C   0  0  0  0  0  0  0  0  0  0  0  0
   18.2219  -52.6002   36.9658 C   0  0  0  0  0  0  0  0  0  0  0  0
   19.2091  -52.4489   36.0217 C   0  0  0  0  0  0  0  0  0  0  0  0
   19.4508  -53.4238   35.0730 C   0  0  0  0  0  0  0  0  0  0  0  0
   20.2358  -50.8258   36.0789 Br  0  0  0  0  0  0  0  0  0  0  0  0
   17.9785  -51.6222   37.9195 O   0  0  0  0  0  0  0  0  0  0  0  0
   16.1108  -53.9453   38.2623 Br  0  0  0  0  0  0  0  0  0  0  0  0
  1  2  1  0  0  0
  1  5  1  0  0  0
  2  3  2  0  0  0
  2 15  1  0  0  0
  3  4  1  0  0  0
  3 11  1  0  0  0
  4  5  2  0  0  0
  4  9  1  0  0  0
  5  6  1  0  0  0
  6  7  1  0  0  0
  7  8  1  0  0  0
  7 10  1  0  0  0
  8  9  1  0  0  0
 11 12  2  0  0  0
 11 13  1  0  0  0
 13 14  1  0  0  0
 14 15  1  0  0  0
 14 19  1  0  0  0
 19 20  2  0  0  0
 19 24  1  0  0  0
 20 21  1  0  0  0
 21 22  2  0  0  0
 21 27  1  0  0  0
 22 23  1  0  0  0
 22 26  1  0  0  0
 23 24  2  0  0  0
 23 25  1  0  0  0
  7 16  1  0  0  0
 13 17  1  0  0  0
 15 18  1  0  0  0
M  CHG 1   7   1
M  CHG 1  26  -1
M  END
> <minimizedAffinity>
-7.99397

$$$$
1193


 29 32  0  0  0  0  0  0  0  0999 V2000
   19.2282  -58.3286   33.9909 S   0  0  0  0  0  0  0  0  0  0  0  0
   17.7037  -58.0669   34.7125 C   0  0  0  0  0  0  0  0  0  0  0  0
   16.9751  -57.5096   33.6988 C   0  0  0  0  0  0  0  0  0  0  0  0
   17.6058  -57.3351   32.5100 C   0  0  0  0  0  0  0  0  0  0  0  0
   18.9173  -57.7331   32.4355 C   0  0  0  0  0  0  0  0  0  0  0  0
   19.7206  -57.5919   31.1855 C   0  0  0  0  0  0  0  0  0  0  0  0
   18.9619  -57.7132   29.9884 N   0  0  0  0  0  0  0  0  0  0  0  0
   17.5472  -57.6324   30.1215 C   0  0  0  0  0  0  0  0  0  0  0  0
   17.0420  -56.7422   31.2131 C   0  0  0  0  0  0  0  0  0  0  0  0
   19.4596  -56.8093   28.9583 C   0  0  0  0  0  0  0  0  0  0  0  0
   15.5662  -57.1865   34.0814 C   0  0  0  0  0  0  0  0  0  0  0  0
   14.7865  -56.6611   33.2218 O   0  0  0  0  0  0  0  0  0  0  0  0
   15.1117  -57.4648   35.3913 N   0  0  0  0  0  0  0  0  0  0  0  0
   16.0346  -57.4895   36.5046 C   0  0  0  0  0  0  0  0  0  0  0  0
   17.1525  -58.3072   36.0353 N   0  0  0  0  0  0  0  0  0  0  0  0
   19.1689  -58.6859   29.6000 H   0  0  0  0  0  0  0  0  0  0  0  0
   14.0993  -57.6555   35.5616 H   0  0  0  0  0  0  0  0  0  0  0  0
   17.5964  -59.0634   36.5821 H   0  0  0  0  0  0  0  0  0  0  0  0
   16.4896  -56.0930   36.7325 C   0  0  0  0  0  0  0  0  0  0  0  0
   16.0182  -55.3645   37.8034 C   0  0  0  0  0  0  0  0  0  0  0  0
   16.4277  -54.0686   38.0321 C   0  0  0  0  0  0  0  0  0  0  0  0
   17.3369  -53.4767   37.1652 C   0  0  0  0  0  0  0  0  0  0  0  0
   17.8249  -54.1814   36.0861 C   0  0  0  0  0  0  0  0  0  0  0  0
   17.4017  -55.4581   35.8874 C   0  0  0  0  0  0  0  0  0  0  0  0
   17.7647  -52.1683   37.3761 O   0  0  0  0  0  0  0  0  0  0  0  0
   15.7846  -53.0498   39.5089 Br  0  0  0  0  0  0  0  0  0  0  0  0
   18.7281  -53.5475   35.2531 O   0  0  0  0  0  0  0  0  0  0  0  0
   19.8879  -54.1089   34.7247 C   0  0  0  0  0  0  0  0  0  0  0  0
   19.9311  -53.9786   33.2178 C   0  0  0  0  0  0  0  0  0  0  0  0
  1  2  1  0  0  0
  1  5  1  0  0  0
  2  3  2  0  0  0
  2 15  1  0  0  0
  3  4  1  0  0  0
  3 11  1  0  0  0
  4  5  2  0  0  0
  4  9  1  0  0  0
  5  6  1  0  0  0
  6  7  1  0  0  0
  7  8  1  0  0  0
  7 10  1  0  0  0
  8  9  1  0  0  0
 11 12  2  0  0  0
 11 13  1  0  0  0
 13 14  1  0  0  0
 14 15  1  0  0  0
 14 19  1  0  0  0
 19 20  2  0  0  0
 19 24  1  0  0  0
 20 21  1  0  0  0
 21 22  2  0  0  0
 21 26  1  0  0  0
 22 23  1  0  0  0
 22 25  1  0  0  0
 23 24  2  0  0  0
 23 27  1  0  0  0
 27 28  1  0  0  0
 28 29  1  0  0  0
  7 16  1  0  0  0
 13 17  1  0  0  0
 15 18  1  0  0  0
M  CHG 1   7   1
M  CHG 1  25  -1
M  END
> <minimizedAffinity>
-7.92807

$$$$
1206


 25 28  0  0  0  0  0  0  0  0999 V2000
   19.5212  -53.8468   36.6103 S   0  0  0  0  0  0  0  0  0  0  0  0
   18.4564  -53.3320   37.9826 C   0  0  0  0  0  0  0  0  0  0  0  0
   17.6782  -54.6048   38.1771 C   0  0  0  0  0  0  0  0  0  0  0  0
   17.4659  -55.3020   36.9451 N   0  0  0  0  0  0  0  0  0  0  0  0
   18.3346  -55.0182   35.9609 C   0  0  0  0  0  0  0  0  0  0  0  0
   18.0060  -55.7150   34.8670 N   0  0  0  0  0  0  0  0  0  0  0  0
   16.9129  -56.4603   35.1442 C   0  0  0  0  0  0  0  0  0  0  0  0
   16.5605  -56.2132   36.4496 C   0  0  0  0  0  0  0  0  0  0  0  0
   17.4864  -52.2579   37.5533 C   0  0  0  0  0  0  0  0  0  0  0  0
   18.6775  -55.6930   33.6129 C   0  0  0  0  0  0  0  0  0  0  0  0
   19.2813  -54.5561   33.1286 C   0  0  0  0  0  0  0  0  0  0  0  0
   19.9386  -54.5082   31.9172 C   0  0  0  0  0  0  0  0  0  0  0  0
   20.0050  -55.6409   31.1366 C   0  0  0  0  0  0  0  0  0  0  0  0
   19.4085  -56.8039   31.5909 C   0  0  0  0  0  0  0  0  0  0  0  0
   18.7577  -56.8249   32.8077 C   0  0  0  0  0  0  0  0  0  0  0  0
   20.9076  -55.6124   29.4497 Br  0  0  0  0  0  0  0  0  0  0  0  0
   15.4321  -56.8169   37.1175 C   0  0  0  0  0  0  0  0  0  0  0  0
   14.7049  -57.7972   36.4202 C   0  0  0  0  0  0  0  0  0  0  0  0
   13.6467  -58.4398   37.0093 C   0  0  0  0  0  0  0  0  0  0  0  0
   13.2333  -58.1771   38.2910 C   0  0  0  0  0  0  0  0  0  0  0  0
   13.9287  -57.2221   38.9953 C   0  0  0  0  0  0  0  0  0  0  0  0
   15.0100  -56.5655   38.3955 C   0  0  0  0  0  0  0  0  0  0  0  0
   12.1309  -58.8834   38.8266 N   0  0  0  0  0  0  0  0  0  0  0  0
   11.2237  -59.2915   38.0927 O   0  0  0  0  0  0  0  0  0  0  0  0
   12.0737  -59.1137   40.1671 O   0  0  0  0  0  0  0  0  0  0  0  0
  1  2  1  0  0  0
  1  5  1  0  0  0
  2  3  1  0  0  0
  2  9  1  0  0  0
  3  4  1  0  0  0
  4  5  1  0  0  0
  4  8  1  0  0  0
  5  6  2  0  0  0
  6  7  1  0  0  0
  6 10  1  0  0  0
  7  8  2  0  0  0
  8 17  1  0  0  0
 17 18  2  0  0  0
 17 22  1  0  0  0
 18 19  1  0  0  0
 19 20  2  0  0  0
 20 21  1  0  0  0
 20 23  1  0  0  0
 21 22  2  0  0  0
 23 24  2  0  0  0
 23 25  1  0  0  0
 10 11  2  0  0  0
 10 15  1  0  0  0
 11 12  1  0  0  0
 12 13  2  0  0  0
 13 14  1  0  0  0
 13 16  1  0  0  0
 14 15  2  0  0  0
M  CHG 1  25  -1
M  END
> <minimizedAffinity>
-8.87937

$$$$
1209


 24 27  0  0  0  0  0  0  0  0999 V2000
   19.8682  -53.7149   34.9934 S   0  0  0  0  0  0  0  0  0  0  0  0
   19.9789  -51.9584   35.4369 C   0  0  0  0  0  0  0  0  0  0  0  0
   19.1217  -51.7529   36.6728 C   0  0  0  0  0  0  0  0  0  0  0  0
   19.3748  -52.8609   37.6739 C   0  0  0  0  0  0  0  0  0  0  0  0
   18.5090  -53.9670   37.2992 N   0  0  0  0  0  0  0  0  0  0  0  0
   18.6472  -54.4545   36.0637 C   0  0  0  0  0  0  0  0  0  0  0  0
   17.7500  -55.4881   35.8941 N   0  0  0  0  0  0  0  0  0  0  0  0
   17.0604  -55.6428   37.0122 C   0  0  0  0  0  0  0  0  0  0  0  0
   17.5519  -54.6758   37.8858 C   0  0  0  0  0  0  0  0  0  0  0  0
   17.6592  -56.2127   34.6696 C   0  0  0  0  0  0  0  0  0  0  0  0
   16.7201  -55.8724   33.7119 C   0  0  0  0  0  0  0  0  0  0  0  0
   16.6263  -56.5347   32.5042 C   0  0  0  0  0  0  0  0  0  0  0  0
   17.5075  -57.5699   32.2619 C   0  0  0  0  0  0  0  0  0  0  0  0
   18.4393  -57.9024   33.2222 C   0  0  0  0  0  0  0  0  0  0  0  0
   18.5506  -57.2551   34.4334 C   0  0  0  0  0  0  0  0  0  0  0  0
   17.4528  -58.5508   30.6108 Br  0  0  0  0  0  0  0  0  0  0  0  0
   16.0039  -56.5797   37.3598 C   0  0  0  0  0  0  0  0  0  0  0  0
   14.8996  -56.1254   38.0953 C   0  0  0  0  0  0  0  0  0  0  0  0
   13.8762  -56.9594   38.4517 C   0  0  0  0  0  0  0  0  0  0  0  0
   13.8505  -58.2946   38.1190 C   0  0  0  0  0  0  0  0  0  0  0  0
   14.9260  -58.7486   37.4000 C   0  0  0  0  0  0  0  0  0  0  0  0
   15.9865  -57.9115   37.0243 C   0  0  0  0  0  0  0  0  0  0  0  0
   12.7932  -59.1098   38.4985 O   0  0  0  0  0  0  0  0  0  0  0  0
   11.8338  -59.5261   37.5446 C   0  0  0  0  0  0  0  0  0  0  0  0
  1  2  1  0  0  0
  1  6  1  0  0  0
  2  3  1  0  0  0
  3  4  1  0  0  0
  4  5  1  0  0  0
  5  6  2  0  0  0
  5  9  1  0  0  0
  6  7  1  0  0  0
  7  8  1  0  0  0
  7 10  1  0  0  0
  8  9  2  0  0  0
  8 17  1  0  0  0
 17 18  2  0  0  0
 17 22  1  0  0  0
 18 19  1  0  0  0
 19 20  2  0  0  0
 20 21  1  0  0  0
 20 23  1  0  0  0
 21 22  2  0  0  0
 23 24  1  0  0  0
 10 11  2  0  0  0
 10 15  1  0  0  0
 11 12  1  0  0  0
 12 13  2  0  0  0
 13 14  1  0  0  0
 13 16  1  0  0  0
 14 15  2  0  0  0
M  END
> <minimizedAffinity>
-8.92849

$$$$
1211


 26 29  0  0  0  0  0  0  0  0999 V2000
   17.8026  -58.8133   34.1156 S   0  0  0  0  0  0  0  0  0  0  0  0
   16.2840  -59.3410   35.0011 C   0  0  0  0  0  0  0  0  0  0  0  0
   15.1391  -58.7531   34.1732 C   0  0  0  0  0  0  0  0  0  0  0  0
   15.2104  -57.2346   34.2979 C   0  0  0  0  0  0  0  0  0  0  0  0
   16.1650  -56.7695   33.3223 N   0  0  0  0  0  0  0  0  0  0  0  0
   17.3104  -57.3805   33.1647 C   0  0  0  0  0  0  0  0  0  0  0  0
   18.0255  -56.6878   32.1075 N   0  0  0  0  0  0  0  0  0  0  0  0
   17.6414  -55.3151   32.3559 C   0  0  0  0  0  0  0  0  0  0  0  0
   16.1054  -55.6586   32.3671 C   0  0  0  0  0  0  0  0  0  0  0  0
   17.9482  -54.4238   31.3775 O   0  0  0  0  0  0  0  0  0  0  0  0
   17.8909  -53.4960   31.7632 H   0  0  0  0  0  0  0  0  0  0  0  0
   18.8053  -57.2695   31.0872 C   0  0  0  0  0  0  0  0  0  0  0  0
   18.1763  -58.2082   30.2332 C   0  0  0  0  0  0  0  0  0  0  0  0
   18.8735  -58.8705   29.2378 C   0  0  0  0  0  0  0  0  0  0  0  0
   20.2079  -58.6438   29.0399 C   0  0  0  0  0  0  0  0  0  0  0  0
   20.8492  -57.7354   29.8560 C   0  0  0  0  0  0  0  0  0  0  0  0
   20.1325  -57.0637   30.8652 C   0  0  0  0  0  0  0  0  0  0  0  0
   21.2163  -59.5482   27.6935 Br  0  0  0  0  0  0  0  0  0  0  0  0
   18.0312  -54.9318   33.7176 C   0  0  0  0  0  0  0  0  0  0  0  0
   17.1625  -54.3268   34.6096 C   0  0  0  0  0  0  0  0  0  0  0  0
   17.6191  -53.9589   35.8845 C   0  0  0  0  0  0  0  0  0  0  0  0
   18.8840  -54.1694   36.2859 C   0  0  0  0  0  0  0  0  0  0  0  0
   19.7945  -54.7864   35.4030 C   0  0  0  0  0  0  0  0  0  0  0  0
   19.3055  -55.1340   34.1558 C   0  0  0  0  0  0  0  0  0  0  0  0
   19.3847  -53.8104   37.5645 O   0  0  0  0  0  0  0  0  0  0  0  0
   18.5822  -53.9701   38.7151 C   0  0  0  0  0  0  0  0  0  0  0  0
  1  2  1  0  0  0
  1  6  1  0  0  0
  2  3  1  0  0  0
  3  4  1  0  0  0
  4  5  1  0  0  0
  5  6  2  0  0  0
  5  9  1  0  0  0
  6  7  1  0  0  0
  7  8  1  0  0  0
  7 12  1  0  0  0
  8  9  1  0  0  0
  8 10  1  0  0  0
  8 19  1  0  0  0
 19 20  2  0  0  0
 19 24  1  0  0  0
 20 21  1  0  0  0
 21 22  2  0  0  0
 22 23  1  0  0  0
 22 25  1  0  0  0
 23 24  2  0  0  0
 25 26  1  0  0  0
 12 13  2  0  0  0
 12 17  1  0  0  0
 13 14  1  0  0  0
 14 15  2  0  0  0
 15 16  1  0  0  0
 15 18  1  0  0  0
 16 17  2  0  0  0
 10 11  1  0  0  0
M  END
> <minimizedAffinity>
-7.23362

$$$$
1217


 28 31  0  0  0  0  0  0  0  0999 V2000
   14.5027  -57.6612   33.3007 S   0  0  0  0  0  0  0  0  0  0  0  0
   12.9671  -58.3061   33.9167 C   0  0  0  0  0  0  0  0  0  0  0  0
   12.9832  -58.2974   35.4321 C   0  0  0  0  0  0  0  0  0  0  0  0
   14.1219  -59.1719   35.9265 C   0  0  0  0  0  0  0  0  0  0  0  0
   15.3831  -58.4915   35.7387 N   0  0  0  0  0  0  0  0  0  0  0  0
   16.4291  -58.1544   36.6487 C   0  0  0  0  0  0  0  0  0  0  0  0
   17.6268  -58.2912   35.7218 C   0  0  0  0  0  0  0  0  0  0  0  0
   17.1156  -57.8131   34.4569 N   0  0  0  0  0  0  0  0  0  0  0  0
   15.8396  -57.9844   34.4721 C   0  0  0  0  0  0  0  0  0  0  0  0
   16.4889  -59.0837   37.6820 O   0  0  0  0  0  0  0  0  0  0  0  0
   15.9746  -59.8889   37.4457 H   0  0  0  0  0  0  0  0  0  0  0  0
   16.4154  -56.7676   37.1539 C   0  0  0  0  0  0  0  0  0  0  0  0
   17.2834  -55.7782   36.8148 C   0  0  0  0  0  0  0  0  0  0  0  0
   17.1996  -54.5061   37.3846 C   0  0  0  0  0  0  0  0  0  0  0  0
   16.2307  -54.2037   38.3183 C   0  0  0  0  0  0  0  0  0  0  0  0
   15.3564  -55.1873   38.6650 C   0  0  0  0  0  0  0  0  0  0  0  0
   15.4386  -56.4326   38.1071 C   0  0  0  0  0  0  0  0  0  0  0  0
   16.1323  -52.4538   39.0970 Br  0  0  0  0  0  0  0  0  0  0  0  0
   17.8515  -57.2222   33.3958 C   0  0  0  0  0  0  0  0  0  0  0  0
   18.1038  -58.0150   32.2840 C   0  0  0  0  0  0  0  0  0  0  0  0
   18.8442  -57.5124   31.2092 C   0  0  0  0  0  0  0  0  0  0  0  0
   19.3293  -56.2173   31.2577 C   0  0  0  0  0  0  0  0  0  0  0  0
   19.0979  -55.4050   32.3420 C   0  0  0  0  0  0  0  0  0  0  0  0
   18.3459  -55.9705   33.3903 C   0  0  0  0  0  0  0  0  0  0  0  0
   19.5548  -54.1028   32.4507 O   0  0  0  0  0  0  0  0  0  0  0  0
   20.3392  -53.5908   33.4898 C   0  0  0  0  0  0  0  0  0  0  0  0
   17.6212  -59.3054   32.2412 O   0  0  0  0  0  0  0  0  0  0  0  0
   16.9585  -59.8883   31.1438 C   0  0  0  0  0  0  0  0  0  0  0  0
  1  2  1  0  0  0
  1  9  1  0  0  0
  2  3  1  0  0  0
  3  4  1  0  0  0
  4  5  1  0  0  0
  5  6  1  0  0  0
  5  9  1  0  0  0
  6  7  1  0  0  0
  6 10  1  0  0  0
  6 12  1  0  0  0
  7  8  1  0  0  0
  8  9  2  0  0  0
  8 19  1  0  0  0
 19 20  2  0  0  0
 19 24  1  0  0  0
 20 21  1  0  0  0
 20 27  1  0  0  0
 21 22  2  0  0  0
 22 23  1  0  0  0
 23 24  2  0  0  0
 23 25  1  0  0  0
 25 26  1  0  0  0
 27 28  1  0  0  0
 12 13  2  0  0  0
 12 17  1  0  0  0
 13 14  1  0  0  0
 14 15  2  0  0  0
 15 16  1  0  0  0
 15 18  1  0  0  0
 16 17  2  0  0  0
 10 11  1  0  0  0
M  END
> <minimizedAffinity>
-7.47391

$$$$
1219


 27 30  0  0  0  0  0  0  0  0999 V2000
   13.9926  -57.3419   34.1570 S   0  0  0  0  0  0  0  0  0  0  0  0
   12.9558  -58.8423   34.4068 C   0  0  0  0  0  0  0  0  0  0  0  0
   13.8407  -60.0741   34.3255 C   0  0  0  0  0  0  0  0  0  0  0  0
   14.7778  -59.9921   33.1484 C   0  0  0  0  0  0  0  0  0  0  0  0
   15.9061  -59.1820   33.4811 N   0  0  0  0  0  0  0  0  0  0  0  0
   17.3425  -59.2346   33.2811 C   0  0  0  0  0  0  0  0  0  0  0  0
   17.8823  -58.4642   34.4729 C   0  0  0  0  0  0  0  0  0  0  0  0
   16.7616  -57.5457   34.7573 N   0  0  0  0  0  0  0  0  0  0  0  0
   15.6902  -57.9631   34.2100 C   0  0  0  0  0  0  0  0  0  0  0  0
   17.8211  -60.5290   33.2337 O   0  0  0  0  0  0  0  0  0  0  0  0
   18.3183  -60.8278   34.0082 H   0  0  0  0  0  0  0  0  0  0  0  0
   16.8756  -56.3690   35.5526 C   0  0  0  0  0  0  0  0  0  0  0  0
   16.5680  -56.2578   36.8766 C   0  0  0  0  0  0  0  0  0  0  0  0
   16.7217  -55.0810   37.5966 C   0  0  0  0  0  0  0  0  0  0  0  0
   17.2066  -53.9535   36.9656 C   0  0  0  0  0  0  0  0  0  0  0  0
   17.5302  -54.0296   35.6158 C   0  0  0  0  0  0  0  0  0  0  0  0
   17.3678  -55.2187   34.9160 C   0  0  0  0  0  0  0  0  0  0  0  0
   17.4482  -52.2847   37.8700 Br  0  0  0  0  0  0  0  0  0  0  0  0
   17.7513  -58.5137   32.0521 C   0  0  0  0  0  0  0  0  0  0  0  0
   18.6406  -57.4606   32.1387 C   0  0  0  0  0  0  0  0  0  0  0  0
   18.9980  -56.8113   30.9571 C   0  0  0  0  0  0  0  0  0  0  0  0
   18.4881  -57.2008   29.7555 C   0  0  0  0  0  0  0  0  0  0  0  0
   17.5978  -58.2542   29.6538 C   0  0  0  0  0  0  0  0  0  0  0  0
   17.2440  -58.9011   30.8439 C   0  0  0  0  0  0  0  0  0  0  0  0
   19.9108  -55.7290   31.0356 N   0  0  0  0  0  0  0  0  0  0  0  0
   20.9279  -55.6739   30.3181 O   0  0  0  0  0  0  0  0  0  0  0  0
   19.7110  -54.6956   31.9064 O   0  0  0  0  0  0  0  0  0  0  0  0
  1  2  1  0  0  0
  1  9  1  0  0  0
  2  3  1  0  0  0
  3  4  1  0  0  0
  4  5  1  0  0  0
  5  6  1  0  0  0
  5  9  1  0  0  0
  6  7  1  0  0  0
  6 10  1  0  0  0
  6 19  1  0  0  0
  7  8  1  0  0  0
  8  9  2  0  0  0
  8 12  1  0  0  0
 12 13  2  0  0  0
 12 17  1  0  0  0
 13 14  1  0  0  0
 14 15  2  0  0  0
 15 16  1  0  0  0
 15 18  1  0  0  0
 16 17  2  0  0  0
 19 20  2  0  0  0
 19 24  1  0  0  0
 20 21  1  0  0  0
 21 22  2  0  0  0
 21 25  1  0  0  0
 22 23  1  0  0  0
 23 24  2  0  0  0
 25 26  2  0  0  0
 25 27  1  0  0  0
 10 11  1  0  0  0
M  CHG 1  27  -1
M  END
> <minimizedAffinity>
-8.97577

$$$$
1220


 27 30  0  0  0  0  0  0  0  0999 V2000
   15.2621  -57.4567   33.7265 S   0  0  0  0  0  0  0  0  0  0  0  0
   15.5658  -59.2405   33.4025 C   0  0  0  0  0  0  0  0  0  0  0  0
   16.5862  -59.4843   32.3718 C   0  0  0  0  0  0  0  0  0  0  0  0
   17.0682  -58.3635   31.5452 C   0  0  0  0  0  0  0  0  0  0  0  0
   17.4630  -57.1786   32.1895 N   0  0  0  0  0  0  0  0  0  0  0  0
   18.4022  -56.1420   31.8862 C   0  0  0  0  0  0  0  0  0  0  0  0
   18.8631  -55.7660   33.2772 C   0  0  0  0  0  0  0  0  0  0  0  0
   17.6521  -55.9497   34.0482 N   0  0  0  0  0  0  0  0  0  0  0  0
   16.8903  -56.7359   33.4470 C   0  0  0  0  0  0  0  0  0  0  0  0
   17.7160  -55.0326   31.3855 O   0  0  0  0  0  0  0  0  0  0  0  0
   18.1096  -54.2250   31.7540 H   0  0  0  0  0  0  0  0  0  0  0  0
   17.3706  -55.3099   35.2986 C   0  0  0  0  0  0  0  0  0  0  0  0
   17.5201  -53.9329   35.3855 C   0  0  0  0  0  0  0  0  0  0  0  0
   17.2846  -53.2455   36.5740 C   0  0  0  0  0  0  0  0  0  0  0  0
   16.8945  -53.9208   37.7091 C   0  0  0  0  0  0  0  0  0  0  0  0
   16.7421  -55.2844   37.6386 C   0  0  0  0  0  0  0  0  0  0  0  0
   16.9874  -55.9488   36.4304 C   0  0  0  0  0  0  0  0  0  0  0  0
   16.5878  -52.9673   39.3517 Br  0  0  0  0  0  0  0  0  0  0  0  0
   19.5327  -56.5195   31.0169 C   0  0  0  0  0  0  0  0  0  0  0  0
   20.3311  -55.4900   30.5280 C   0  0  0  0  0  0  0  0  0  0  0  0
   21.4113  -55.7419   29.7120 C   0  0  0  0  0  0  0  0  0  0  0  0
   21.7568  -57.0287   29.3387 C   0  0  0  0  0  0  0  0  0  0  0  0
   20.9689  -58.0551   29.8234 C   0  0  0  0  0  0  0  0  0  0  0  0
   19.8717  -57.7961   30.6516 C   0  0  0  0  0  0  0  0  0  0  0  0
   22.8736  -57.2616   28.5010 N   0  0  0  0  0  0  0  0  0  0  0  0
   23.2816  -58.3900   28.2037 O   0  0  0  0  0  0  0  0  0  0  0  0
   23.5474  -56.1872   27.9786 O   0  0  0  0  0  0  0  0  0  0  0  0
  1  2  1  0  0  0
  1  9  1  0  0  0
  2  3  1  0  0  0
  3  4  1  0  0  0
  4  5  1  0  0  0
  5  6  1  0  0  0
  5  9  1  0  0  0
  6  7  1  0  0  0
  6 10  1  0  0  0
  6 19  1  0  0  0
  7  8  1  0  0  0
  8  9  2  0  0  0
  8 12  1  0  0  0
 12 13  2  0  0  0
 12 17  1  0  0  0
 13 14  1  0  0  0
 14 15  2  0  0  0
 15 16  1  0  0  0
 15 18  1  0  0  0
 16 17  2  0  0  0
 19 20  2  0  0  0
 19 24  1  0  0  0
 20 21  1  0  0  0
 21 22  2  0  0  0
 22 23  1  0  0  0
 22 25  1  0  0  0
 23 24  2  0  0  0
 25 26  2  0  0  0
 25 27  1  0  0  0
 10 11  1  0  0  0
M  CHG 1  27  -1
M  END
> <minimizedAffinity>
-9.04336

$$$$
1222


 24 27  0  0  0  0  0  0  0  0999 V2000
   13.9862  -57.2790   33.9403 S   0  0  0  0  0  0  0  0  0  0  0  0
   12.9130  -58.7035   34.4272 C   0  0  0  0  0  0  0  0  0  0  0  0
   13.6670  -59.9996   34.2795 C   0  0  0  0  0  0  0  0  0  0  0  0
   14.7392  -59.9652   33.2120 C   0  0  0  0  0  0  0  0  0  0  0  0
   15.8698  -59.1926   33.5504 N   0  0  0  0  0  0  0  0  0  0  0  0
   17.3358  -59.1913   33.4035 C   0  0  0  0  0  0  0  0  0  0  0  0
   17.6763  -58.5996   34.7505 C   0  0  0  0  0  0  0  0  0  0  0  0
   16.6733  -57.5513   34.8655 N   0  0  0  0  0  0  0  0  0  0  0  0
   15.6535  -57.9421   34.2614 C   0  0  0  0  0  0  0  0  0  0  0  0
   17.8638  -60.4397   33.2793 O   0  0  0  0  0  0  0  0  0  0  0  0
   17.4470  -61.0236   32.5978 H   0  0  0  0  0  0  0  0  0  0  0  0
   16.8697  -56.2726   35.5068 C   0  0  0  0  0  0  0  0  0  0  0  0
   17.3391  -55.1526   34.8962 C   0  0  0  0  0  0  0  0  0  0  0  0
   17.5576  -53.9530   35.5621 C   0  0  0  0  0  0  0  0  0  0  0  0
   17.2950  -53.8680   36.9039 C   0  0  0  0  0  0  0  0  0  0  0  0
   16.8168  -55.0038   37.5284 C   0  0  0  0  0  0  0  0  0  0  0  0
   16.6029  -56.1834   36.8710 C   0  0  0  0  0  0  0  0  0  0  0  0
   17.5701  -52.2548   37.9077 Br  0  0  0  0  0  0  0  0  0  0  0  0
   17.7575  -58.2433   32.3194 C   0  0  0  0  0  0  0  0  0  0  0  0
   17.0909  -58.1384   31.1137 C   0  0  0  0  0  0  0  0  0  0  0  0
   17.5434  -57.2295   30.1660 C   0  0  0  0  0  0  0  0  0  0  0  0
   18.6453  -56.4107   30.3766 C   0  0  0  0  0  0  0  0  0  0  0  0
   19.3100  -56.5085   31.5686 C   0  0  0  0  0  0  0  0  0  0  0  0
   18.8602  -57.4222   32.5209 C   0  0  0  0  0  0  0  0  0  0  0  0
  1  2  1  0  0  0
  1  9  1  0  0  0
  2  3  1  0  0  0
  3  4  1  0  0  0
  4  5  1  0  0  0
  5  6  1  0  0  0
  5  9  1  0  0  0
  6  7  1  0  0  0
  6 10  1  0  0  0
  6 19  1  0  0  0
  7  8  1  0  0  0
  8  9  2  0  0  0
  8 12  1  0  0  0
 12 13  2  0  0  0
 12 17  1  0  0  0
 13 14  1  0  0  0
 14 15  2  0  0  0
 15 16  1  0  0  0
 15 18  1  0  0  0
 16 17  2  0  0  0
 19 20  2  0  0  0
 19 24  1  0  0  0
 20 21  1  0  0  0
 21 22  2  0  0  0
 22 23  1  0  0  0
 23 24  2  0  0  0
 10 11  1  0  0  0
M  END
> <minimizedAffinity>
-8.52904

$$$$
1224


 26 29  0  0  0  0  0  0  0  0999 V2000
   14.0998  -57.2916   34.1014 S   0  0  0  0  0  0  0  0  0  0  0  0
   13.0117  -58.7728   34.1792 C   0  0  0  0  0  0  0  0  0  0  0  0
   13.6264  -59.7711   33.2092 C   0  0  0  0  0  0  0  0  0  0  0  0
   14.9319  -60.3061   33.7078 C   0  0  0  0  0  0  0  0  0  0  0  0
   15.9722  -59.3322   33.8330 N   0  0  0  0  0  0  0  0  0  0  0  0
   17.4101  -59.2912   33.5507 C   0  0  0  0  0  0  0  0  0  0  0  0
   17.8260  -58.5308   34.8241 C   0  0  0  0  0  0  0  0  0  0  0  0
   16.7878  -57.5199   34.9069 N   0  0  0  0  0  0  0  0  0  0  0  0
   15.7466  -57.9936   34.3527 C   0  0  0  0  0  0  0  0  0  0  0  0
   17.9216  -60.5674   33.5422 O   0  0  0  0  0  0  0  0  0  0  0  0
   18.2811  -60.8450   34.4180 H   0  0  0  0  0  0  0  0  0  0  0  0
   17.7365  -58.4873   32.3595 C   0  0  0  0  0  0  0  0  0  0  0  0
   17.0013  -58.4423   31.1957 C   0  0  0  0  0  0  0  0  0  0  0  0
   17.3905  -57.6434   30.1333 C   0  0  0  0  0  0  0  0  0  0  0  0
   18.5190  -56.8806   30.2234 C   0  0  0  0  0  0  0  0  0  0  0  0
   19.2664  -56.9143   31.3802 C   0  0  0  0  0  0  0  0  0  0  0  0
   18.8698  -57.7095   32.4252 C   0  0  0  0  0  0  0  0  0  0  0  0
   19.1144  -55.7529   28.7857 Br  0  0  0  0  0  0  0  0  0  0  0  0
   17.0012  -56.2330   35.5300 C   0  0  0  0  0  0  0  0  0  0  0  0
   16.6907  -56.0558   36.8751 C   0  0  0  0  0  0  0  0  0  0  0  0
   16.8797  -54.8409   37.4965 C   0  0  0  0  0  0  0  0  0  0  0  0
   17.3805  -53.7402   36.8349 C   0  0  0  0  0  0  0  0  0  0  0  0
   17.6887  -53.9063   35.5061 C   0  0  0  0  0  0  0  0  0  0  0  0
   17.4944  -55.1460   34.8761 C   0  0  0  0  0  0  0  0  0  0  0  0
   17.5598  -52.5301   37.4961 O   0  0  0  0  0  0  0  0  0  0  0  0
   18.5854  -51.6115   37.2471 C   0  0  0  0  0  0  0  0  0  0  0  0
  1  2  1  0  0  0
  1  9  1  0  0  0
  2  3  1  0  0  0
  3  4  1  0  0  0
  4  5  1  0  0  0
  5  6  1  0  0  0
  5  9  1  0  0  0
  6  7  1  0  0  0
  6 10  1  0  0  0
  6 12  1  0  0  0
  7  8  1  0  0  0
  8  9  2  0  0  0
  8 19  1  0  0  0
 19 20  2  0  0  0
 19 24  1  0  0  0
 20 21  1  0  0  0
 21 22  2  0  0  0
 22 23  1  0  0  0
 22 25  1  0  0  0
 23 24  2  0  0  0
 25 26  1  0  0  0
 12 13  2  0  0  0
 12 17  1  0  0  0
 13 14  1  0  0  0
 14 15  2  0  0  0
 15 16  1  0  0  0
 15 18  1  0  0  0
 16 17  2  0  0  0
 10 11  1  0  0  0
M  END
> <minimizedAffinity>
-6.82063

$$$$
1226


 24 27  0  0  0  0  0  0  0  0999 V2000
   16.7654  -56.9103   36.7578 S   0  0  0  0  0  0  0  0  0  0  0  0
   15.6396  -58.3116   36.5091 C   0  0  0  0  0  0  0  0  0  0  0  0
   14.9267  -58.0542   35.1778 C   0  0  0  0  0  0  0  0  0  0  0  0
   15.9798  -58.1180   34.0600 C   0  0  0  0  0  0  0  0  0  0  0  0
   16.6235  -56.8013   33.9783 N   0  0  0  0  0  0  0  0  0  0  0  0
   17.0099  -55.9814   32.9035 C   0  0  0  0  0  0  0  0  0  0  0  0
   17.2834  -54.6193   33.5328 C   0  0  0  0  0  0  0  0  0  0  0  0
   17.2653  -54.8719   34.9409 N   0  0  0  0  0  0  0  0  0  0  0  0
   16.9337  -56.0782   35.1611 C   0  0  0  0  0  0  0  0  0  0  0  0
   15.9043  -55.7832   32.0466 O   0  0  0  0  0  0  0  0  0  0  0  0
   15.7292  -56.6604   31.6160 H   0  0  0  0  0  0  0  0  0  0  0  0
   18.1624  -56.3662   32.0914 C   0  0  0  0  0  0  0  0  0  0  0  0
   18.9813  -55.3278   31.6505 C   0  0  0  0  0  0  0  0  0  0  0  0
   20.1277  -55.5203   30.9021 C   0  0  0  0  0  0  0  0  0  0  0  0
   20.5079  -56.7873   30.5544 C   0  0  0  0  0  0  0  0  0  0  0  0
   19.7079  -57.8318   30.9820 C   0  0  0  0  0  0  0  0  0  0  0  0
   18.5571  -57.6239   31.7367 C   0  0  0  0  0  0  0  0  0  0  0  0
   22.1023  -57.1261   29.5225 Br  0  0  0  0  0  0  0  0  0  0  0  0
   17.5432  -53.8445   35.9061 C   0  0  0  0  0  0  0  0  0  0  0  0
   18.7695  -53.2628   35.9166 C   0  0  0  0  0  0  0  0  0  0  0  0
   19.0027  -52.2496   36.8412 C   0  0  0  0  0  0  0  0  0  0  0  0
   18.0480  -51.8194   37.7350 C   0  0  0  0  0  0  0  0  0  0  0  0
   16.8177  -52.4425   37.6875 C   0  0  0  0  0  0  0  0  0  0  0  0
   16.5531  -53.4461   36.7877 C   0  0  0  0  0  0  0  0  0  0  0  0
  1  2  1  0  0  0
  1  9  1  0  0  0
  2  3  1  0  0  0
  3  4  1  0  0  0
  4  5  1  0  0  0
  5  6  1  0  0  0
  5  9  1  0  0  0
  6  7  1  0  0  0
  6 10  1  0  0  0
  6 12  1  0  0  0
  7  8  1  0  0  0
  8  9  2  0  0  0
  8 19  1  0  0  0
 19 20  2  0  0  0
 19 24  1  0  0  0
 20 21  1  0  0  0
 21 22  2  0  0  0
 22 23  1  0  0  0
 23 24  2  0  0  0
 12 13  2  0  0  0
 12 17  1  0  0  0
 13 14  1  0  0  0
 14 15  2  0  0  0
 15 16  1  0  0  0
 15 18  1  0  0  0
 16 17  2  0  0  0
 10 11  1  0  0  0
M  END
> <minimizedAffinity>
-8.94708

$$$$
1231


 37 40  0  0  0  0  0  0  0  0999 V2000
   17.5508  -55.4427   35.9013 C   0  0  0  0  0  0  0  0  0  0  0  0
   18.1346  -54.2780   36.2105 N   0  0  0  0  0  0  0  0  0  0  0  0
   17.6469  -53.9401   37.4175 N   0  0  0  0  0  0  0  0  0  0  0  0
   16.8167  -54.8204   37.8476 N   0  0  0  0  0  0  0  0  0  0  0  0
   16.6873  -55.8428   36.9267 C   0  0  0  0  0  0  0  0  0  0  0  0
   19.1004  -53.4799   35.5311 C   0  0  0  0  0  0  0  0  0  0  0  0
   19.8067  -53.7821   34.4223 N   0  0  0  0  0  0  0  0  0  0  0  0
   20.5737  -52.8226   34.0617 O   0  0  0  0  0  0  0  0  0  0  0  0
   20.4175  -51.8479   34.9012 N   0  0  0  0  0  0  0  0  0  0  0  0
   19.5008  -52.2000   35.8514 C   0  0  0  0  0  0  0  0  0  0  0  0
   19.0498  -51.3967   36.9232 N   0  0  0  0  0  0  0  0  0  0  0  0
   19.4138  -50.4193   36.7715 H   0  0  0  0  0  0  0  0  0  0  0  0
   19.3200  -51.7377   37.8624 H   0  0  0  0  0  0  0  0  0  0  0  0
   17.9970  -51.3250   36.8746 H   0  0  0  0  0  0  0  0  0  0  0  0
   15.8414  -56.9924   37.1158 C   0  0  0  0  0  0  0  0  0  0  0  0
   16.4373  -58.1329   37.2524 O   0  0  0  0  0  0  0  0  0  0  0  0
   14.4521  -57.0474   37.1730 N   0  0  0  0  0  0  0  0  0  0  0  0
   13.7701  -56.2756   37.0825 H   0  0  0  0  0  0  0  0  0  0  0  0
   13.7952  -58.3109   37.3755 N   0  0  0  0  0  0  0  0  0  0  0  0
   13.0798  -58.5405   38.4043 C   0  0  0  0  0  0  0  0  0  0  0  0
   12.3981  -59.8045   38.6467 C   0  0  0  0  0  0  0  0  0  0  0  0
   11.9938  -60.1789   39.9082 C   0  0  0  0  0  0  0  0  0  0  0  0
   11.3414  -61.3693   40.1528 C   0  0  0  0  0  0  0  0  0  0  0  0
   11.0659  -62.2426   39.1322 C   0  0  0  0  0  0  0  0  0  0  0  0
   11.4636  -61.8934   37.8323 C   0  0  0  0  0  0  0  0  0  0  0  0
   12.1137  -60.6965   37.6208 C   0  0  0  0  0  0  0  0  0  0  0  0
   10.4094  -63.4341   39.4008 O   0  0  0  0  0  0  0  0  0  0  0  0
   10.7994  -61.8451   41.9228 Br  0  0  0  0  0  0  0  0  0  0  0  0
   11.1566  -62.8133   36.8571 O   0  0  0  0  0  0  0  0  0  0  0  0
   10.9666  -62.5321   35.4926 C   0  0  0  0  0  0  0  0  0  0  0  0
   17.7674  -56.2500   34.6905 C   0  0  0  0  0  0  0  0  0  0  0  0
   16.4977  -56.2046   33.4435 S   0  0  0  0  0  0  0  0  0  0  0  0
   15.6579  -59.1990   33.8613 S   0  0  0  0  0  0  0  0  0  0  0  0
   13.9401  -59.7958   33.8184 C   0  0  0  0  0  0  0  0  0  0  0  0
   13.2168  -58.4938   33.9485 C   0  0  0  0  0  0  0  0  0  0  0  0
   14.0159  -57.3925   33.7603 N   0  0  0  0  0  0  0  0  0  0  0  0
   15.2493  -57.4627   33.6812 C   0  0  0  0  0  0  0  0  0  0  0  0
 33 34  1  0  0  0
 33 37  1  0  0  0
 34 35  1  0  0  0
 35 36  1  0  0  0
 36 37  2  0  0  0
 37 32  1  0  0  0
 32 31  1  0  0  0
 31  1  1  0  0  0
  1  2  1  0  0  0
  1  5  2  0  0  0
  2  3  1  0  0  0
  2  6  1  0  0  0
  3  4  2  0  0  0
  4  5  1  0  0  0
  5 15  1  0  0  0
 15 16  2  0  0  0
 15 17  1  0  0  0
 17 19  1  0  0  0
 19 20  2  0  0  0
 20 21  1  0  0  0
 21 22  2  0  0  0
 21 26  1  0  0  0
 22 23  1  0  0  0
 23 24  2  0  0  0
 23 28  1  0  0  0
 24 25  1  0  0  0
 24 27  1  0  0  0
 25 26  2  0  0  0
 25 29  1  0  0  0
 29 30  1  0  0  0
  6  7  2  0  0  0
  6 10  1  0  0  0
  7  8  1  0  0  0
  8  9  1  0  0  0
  9 10  2  0  0  0
 10 11  1  0  0  0
 17 18  1  0  0  0
 11 12  1  0  0  0
 11 13  1  0  0  0
 11 14  1  0  0  0
M  CHG 1  11   1
M  CHG 1  27  -1
M  END
> <minimizedAffinity>
-8.42045

$$$$
1236


 30 34  0  0  0  0  0  0  0  0999 V2000
   16.4898  -57.9834   34.3448 C   0  0  0  0  0  0  0  0  0  0  0  0
   19.5864  -58.4750   30.5224 S   0  0  0  0  0  0  0  0  0  0  0  0
   18.4768  -57.6602   29.2769 C   0  0  0  0  0  0  0  0  0  0  0  0
   17.2414  -57.5997   30.1382 C   0  0  0  0  0  0  0  0  0  0  0  0
   17.5852  -57.2119   31.4769 N   0  0  0  0  0  0  0  0  0  0  0  0
   18.8578  -57.6347   31.9134 C   0  0  0  0  0  0  0  0  0  0  0  0
   19.2697  -57.3757   33.0809 N   0  0  0  0  0  0  0  0  0  0  0  0
   18.4726  -56.6649   34.0484 C   0  0  0  0  0  0  0  0  0  0  0  0
   18.9679  -56.0532   35.0269 O   0  0  0  0  0  0  0  0  0  0  0  0
   16.9972  -56.6741   33.8511 C   0  0  0  0  0  0  0  0  0  0  0  0
   16.7559  -56.4651   32.4050 C   0  0  0  0  0  0  0  0  0  0  0  0
   15.8916  -55.6925   31.9248 O   0  0  0  0  0  0  0  0  0  0  0  0
   15.4222  -58.5940   33.4710 C   0  0  0  0  0  0  0  0  0  0  0  0
   14.0507  -58.4152   33.9742 C   0  0  0  0  0  0  0  0  0  0  0  0
   13.4680  -57.2814   33.8489 O   0  0  0  0  0  0  0  0  0  0  0  0
   13.3572  -59.5162   34.6129 N   0  0  0  0  0  0  0  0  0  0  0  0
   12.1297  -59.4399   35.3555 C   0  0  0  0  0  0  0  0  0  0  0  0
   12.0925  -60.4921   36.4357 C   0  0  0  0  0  0  0  0  0  0  0  0
   12.8007  -61.8758   35.4254 S   0  0  0  0  0  0  0  0  0  0  0  0
   13.9017  -60.8139   34.4930 C   0  0  0  0  0  0  0  0  0  0  0  0
   14.9743  -61.0586   33.8453 N   0  0  0  0  0  0  0  0  0  0  0  0
   15.7161  -60.0206   33.1853 C   0  0  0  0  0  0  0  0  0  0  0  0
   16.6080  -60.3641   32.3696 O   0  0  0  0  0  0  0  0  0  0  0  0
   16.0447  -57.8307   35.7479 C   0  0  0  0  0  0  0  0  0  0  0  0
   15.8892  -56.5711   36.3129 C   0  0  0  0  0  0  0  0  0  0  0  0
   15.4716  -56.4169   37.6183 C   0  0  0  0  0  0  0  0  0  0  0  0
   15.1964  -57.5194   38.3963 C   0  0  0  0  0  0  0  0  0  0  0  0
   15.3498  -58.7531   37.8404 C   0  0  0  0  0  0  0  0  0  0  0  0
   15.7670  -58.9236   36.5363 C   0  0  0  0  0  0  0  0  0  0  0  0
   15.2549  -54.6906   38.4027 Br  0  0  0  0  0  0  0  0  0  0  0  0
  2  3  1  0  0  0
  2  6  1  0  0  0
  3  4  1  0  0  0
  4  5  1  0  0  0
  5  6  1  0  0  0
  5 11  1  0  0  0
  6  7  2  0  0  0
  7  8  1  0  0  0
  8  9  2  0  0  0
  8 10  1  0  0  0
 10 11  1  0  0  0
 10  1  1  0  0  0
 11 12  2  0  0  0
  1 13  1  0  0  0
  1 24  1  0  0  0
 13 14  1  0  0  0
 13 22  1  0  0  0
 14 15  2  0  0  0
 14 16  1  0  0  0
 16 17  1  0  0  0
 16 20  1  0  0  0
 17 18  1  0  0  0
 18 19  1  0  0  0
 19 20  1  0  0  0
 20 21  2  0  0  0
 21 22  1  0  0  0
 22 23  2  0  0  0
 24 25  2  0  0  0
 24 29  1  0  0  0
 25 26  1  0  0  0
 26 27  2  0  0  0
 26 30  1  0  0  0
 27 28  1  0  0  0
 28 29  2  0  0  0
M  END
> <minimizedAffinity>
-7.72580

$$$$
1237


 30 34  0  0  0  0  0  0  0  0999 V2000
   16.2854  -57.4465   34.0593 C   0  0  0  0  0  0  0  0  0  0  0  0
   13.7267  -61.8960   32.6633 S   0  0  0  0  0  0  0  0  0  0  0  0
   15.2470  -62.6165   33.4232 C   0  0  0  0  0  0  0  0  0  0  0  0
   15.2670  -61.8256   34.6931 C   0  0  0  0  0  0  0  0  0  0  0  0
   14.8451  -60.4915   34.4872 N   0  0  0  0  0  0  0  0  0  0  0  0
   13.9400  -60.2677   33.4288 C   0  0  0  0  0  0  0  0  0  0  0  0
   13.4488  -59.1092   33.1233 N   0  0  0  0  0  0  0  0  0  0  0  0
   13.7807  -57.9338   33.9131 C   0  0  0  0  0  0  0  0  0  0  0  0
   12.8987  -57.0422   33.8603 O   0  0  0  0  0  0  0  0  0  0  0  0
   15.0271  -57.9550   34.6255 C   0  0  0  0  0  0  0  0  0  0  0  0
   15.2177  -59.3190   35.2471 C   0  0  0  0  0  0  0  0  0  0  0  0
   15.6859  -59.4442   36.3931 O   0  0  0  0  0  0  0  0  0  0  0  0
   17.3402  -58.3468   33.5757 C   0  0  0  0  0  0  0  0  0  0  0  0
   17.2055  -58.4299   32.0554 C   0  0  0  0  0  0  0  0  0  0  0  0
   16.3209  -59.1557   31.5470 O   0  0  0  0  0  0  0  0  0  0  0  0
   18.0971  -57.6711   31.2061 N   0  0  0  0  0  0  0  0  0  0  0  0
   17.9251  -57.3622   29.8287 C   0  0  0  0  0  0  0  0  0  0  0  0
   18.5898  -56.0562   29.4706 C   0  0  0  0  0  0  0  0  0  0  0  0
   20.1173  -56.2860   30.4980 S   0  0  0  0  0  0  0  0  0  0  0  0
   19.2917  -57.1905   31.7952 C   0  0  0  0  0  0  0  0  0  0  0  0
   19.6199  -57.3903   33.0101 N   0  0  0  0  0  0  0  0  0  0  0  0
   18.7341  -58.1595   33.8779 C   0  0  0  0  0  0  0  0  0  0  0  0
   19.2776  -58.6410   34.8882 O   0  0  0  0  0  0  0  0  0  0  0  0
   16.8162  -56.2482   34.8167 C   0  0  0  0  0  0  0  0  0  0  0  0
   17.2380  -55.1218   34.1521 C   0  0  0  0  0  0  0  0  0  0  0  0
   17.7180  -54.0578   34.8729 C   0  0  0  0  0  0  0  0  0  0  0  0
   17.7987  -54.0595   36.2297 C   0  0  0  0  0  0  0  0  0  0  0  0
   17.3853  -55.1707   36.9220 C   0  0  0  0  0  0  0  0  0  0  0  0
   16.8975  -56.2530   36.1890 C   0  0  0  0  0  0  0  0  0  0  0  0
   18.4714  -52.5664   37.2292 Br  0  0  0  0  0  0  0  0  0  0  0  0
  2  3  1  0  0  0
  2  6  1  0  0  0
  3  4  1  0  0  0
  4  5  1  0  0  0
  5  6  1  0  0  0
  5 11  1  0  0  0
  6  7  2  0  0  0
  7  8  1  0  0  0
  8  9  2  0  0  0
  8 10  1  0  0  0
 10 11  1  0  0  0
 10  1  1  0  0  0
 11 12  2  0  0  0
  1 13  1  0  0  0
  1 24  1  0  0  0
 13 14  1  0  0  0
 13 22  1  0  0  0
 14 15  2  0  0  0
 14 16  1  0  0  0
 16 17  1  0  0  0
 16 20  1  0  0  0
 17 18  1  0  0  0
 18 19  1  0  0  0
 19 20  1  0  0  0
 20 21  2  0  0  0
 21 22  1  0  0  0
 22 23  2  0  0  0
 24 25  2  0  0  0
 24 29  1  0  0  0
 25 26  1  0  0  0
 26 27  2  0  0  0
 27 28  1  0  0  0
 27 30  1  0  0  0
 28 29  2  0  0  0
M  END
> <minimizedAffinity>
-7.82636

$$$$
1248


 21 24  0  0  0  0  0  0  0  0999 V2000
   18.5764  -51.8665   37.3893 S   0  0  0  0  0  0  0  0  0  0  0  0
   19.4864  -52.0864   35.9494 C   0  0  0  0  0  0  0  0  0  0  0  0
   18.9711  -53.2251   35.4887 N   0  0  0  0  0  0  0  0  0  0  0  0
   19.6651  -53.4580   34.3236 C   0  0  0  0  0  0  0  0  0  0  0  0
   20.5485  -52.4799   34.1295 N   0  0  0  0  0  0  0  0  0  0  0  0
   20.4670  -51.6110   35.1162 N   0  0  0  0  0  0  0  0  0  0  0  0
   18.0466  -53.7973   36.1478 N   0  0  0  0  0  0  0  0  0  0  0  0
   17.5954  -53.2806   37.2739 C   0  0  0  0  0  0  0  0  0  0  0  0
   16.5517  -53.7616   38.1850 C   0  0  0  0  0  0  0  0  0  0  0  0
   15.9822  -53.0752   39.1831 N   0  0  0  0  0  0  0  0  0  0  0  0
   15.0708  -53.8530   39.7896 N   0  0  0  0  0  0  0  0  0  0  0  0
   15.0501  -55.0538   39.1777 C   0  0  0  0  0  0  0  0  0  0  0  0
   15.9974  -54.9932   38.1523 C   0  0  0  0  0  0  0  0  0  0  0  0
   16.3696  -56.4238   36.9812 Br  0  0  0  0  0  0  0  0  0  0  0  0
   14.4834  -53.5567   40.6020 H   0  0  0  0  0  0  0  0  0  0  0  0
   19.4767  -54.6073   33.4148 C   0  0  0  0  0  0  0  0  0  0  0  0
   18.9560  -55.7665   33.8579 N   0  0  0  0  0  0  0  0  0  0  0  0
   18.7890  -56.8110   33.0165 C   0  0  0  0  0  0  0  0  0  0  0  0
   19.1467  -56.7031   31.7009 C   0  0  0  0  0  0  0  0  0  0  0  0
   19.6601  -55.5477   31.2758 N   0  0  0  0  0  0  0  0  0  0  0  0
   19.8388  -54.4884   32.0951 C   0  0  0  0  0  0  0  0  0  0  0  0
  1  2  1  0  0  0
  1  8  1  0  0  0
  2  3  1  0  0  0
  2  6  2  0  0  0
  3  4  1  0  0  0
  3  7  1  0  0  0
  4  5  2  0  0  0
  4 16  1  0  0  0
  5  6  1  0  0  0
 16 17  2  0  0  0
 16 21  1  0  0  0
 17 18  1  0  0  0
 18 19  2  0  0  0
 19 20  1  0  0  0
 20 21  2  0  0  0
  7  8  2  0  0  0
  8  9  1  0  0  0
  9 10  2  0  0  0
  9 13  1  0  0  0
 10 11  1  0  0  0
 11 12  1  0  0  0
 12 13  2  0  0  0
 13 14  1  0  0  0
 11 15  1  0  0  0
M  END
> <minimizedAffinity>
-8.09632

$$$$
1255


 34 38  0  0  0  0  0  0  0  0999 V2000
   16.2116  -57.8866   34.2949 C   0  0  0  0  0  0  0  0  0  0  0  0
   18.4231  -57.6446   30.1432 S   0  0  0  0  0  0  0  0  0  0  0  0
   18.3209  -58.1588   31.8497 C   0  0  0  0  0  0  0  0  0  0  0  0
   18.8906  -57.6912   32.9124 N   0  0  0  0  0  0  0  0  0  0  0  0
   18.6279  -58.3070   34.1943 C   0  0  0  0  0  0  0  0  0  0  0  0
   19.4066  -58.3428   35.1457 O   0  0  0  0  0  0  0  0  0  0  0  0
   17.2579  -58.9630   34.3584 C   0  0  0  0  0  0  0  0  0  0  0  0
   17.2165  -59.8724   33.1701 C   0  0  0  0  0  0  0  0  0  0  0  0
   16.9970  -61.1148   33.2558 O   0  0  0  0  0  0  0  0  0  0  0  0
   17.4474  -59.2679   31.8644 N   0  0  0  0  0  0  0  0  0  0  0  0
   16.9328  -59.6480   30.6544 N   0  0  0  0  0  0  0  0  0  0  0  0
   17.3188  -58.9027   29.5193 C   0  0  0  0  0  0  0  0  0  0  0  0
   16.9598  -59.0704   28.2500 C   0  0  0  0  0  0  0  0  0  0  0  0
   16.2612  -60.4848   30.5230 H   0  0  0  0  0  0  0  0  0  0  0  0
   14.8702  -58.2076   34.8213 C   0  0  0  0  0  0  0  0  0  0  0  0
   14.6624  -59.5247   35.4041 C   0  0  0  0  0  0  0  0  0  0  0  0
   14.6408  -59.6659   36.6739 O   0  0  0  0  0  0  0  0  0  0  0  0
   14.4731  -60.7017   34.5763 N   0  0  0  0  0  0  0  0  0  0  0  0
   14.7041  -61.9997   34.9017 N   0  0  0  0  0  0  0  0  0  0  0  0
   14.4309  -62.9774   33.9129 C   0  0  0  0  0  0  0  0  0  0  0  0
   14.5587  -64.2851   33.9678 C   0  0  0  0  0  0  0  0  0  0  0  0
   13.8483  -62.0435   32.5002 S   0  0  0  0  0  0  0  0  0  0  0  0
   13.9816  -60.4457   33.2802 C   0  0  0  0  0  0  0  0  0  0  0  0
   13.7111  -59.2712   32.8330 N   0  0  0  0  0  0  0  0  0  0  0  0
   13.9016  -58.1081   33.6555 C   0  0  0  0  0  0  0  0  0  0  0  0
   13.3280  -57.0235   33.4793 O   0  0  0  0  0  0  0  0  0  0  0  0
   15.0761  -62.3435   35.8538 H   0  0  0  0  0  0  0  0  0  0  0  0
   16.7046  -56.6128   34.8922 C   0  0  0  0  0  0  0  0  0  0  0  0
   17.0267  -55.5325   34.1035 C   0  0  0  0  0  0  0  0  0  0  0  0
   17.4828  -54.3548   34.6493 C   0  0  0  0  0  0  0  0  0  0  0  0
   17.6226  -54.2491   36.0148 C   0  0  0  0  0  0  0  0  0  0  0  0
   17.3071  -55.3217   36.8516 C   0  0  0  0  0  0  0  0  0  0  0  0
   16.8527  -56.4851   36.2654 C   0  0  0  0  0  0  0  0  0  0  0  0
   18.2536  -52.6255   36.8042 Br  0  0  0  0  0  0  0  0  0  0  0  0
  2  3  1  0  0  0
  2 12  1  0  0  0
  3  4  2  0  0  0
  3 10  1  0  0  0
  4  5  1  0  0  0
  5  6  2  0  0  0
  5  7  1  0  0  0
  7  8  1  0  0  0
  7  1  1  0  0  0
  8  9  2  0  0  0
  8 10  1  0  0  0
 10 11  1  0  0  0
 11 12  1  0  0  0
 12 13  2  0  0  0
  1 15  1  0  0  0
  1 28  1  0  0  0
 15 16  1  0  0  0
 15 25  1  0  0  0
 16 17  2  0  0  0
 16 18  1  0  0  0
 18 19  1  0  0  0
 18 23  1  0  0  0
 19 20  1  0  0  0
 20 21  2  0  0  0
 20 22  1  0  0  0
 22 23  1  0  0  0
 23 24  2  0  0  0
 24 25  1  0  0  0
 25 26  2  0  0  0
 28 29  2  0  0  0
 28 33  1  0  0  0
 29 30  1  0  0  0
 30 31  2  0  0  0
 31 32  1  0  0  0
 31 34  1  0  0  0
 32 33  2  0  0  0
 11 14  1  0  0  0
 19 27  1  0  0  0
M  END
> <minimizedAffinity>
-8.64162

$$$$
1256


 30 33  0  0  0  0  0  0  0  0999 V2000
   15.8605  -58.4905   32.9337 S   0  0  0  0  0  0  0  0  0  0  0  0
   17.0437  -57.5707   32.1047 C   0  0  0  0  0  0  0  0  0  0  0  0
   17.4395  -57.4786   30.7968 N   0  0  0  0  0  0  0  0  0  0  0  0
   18.4020  -56.6203   30.4217 C   0  0  0  0  0  0  0  0  0  0  0  0
   18.8240  -56.4677   29.2600 O   0  0  0  0  0  0  0  0  0  0  0  0
   18.9391  -55.8653   31.4376 C   0  0  0  0  0  0  0  0  0  0  0  0
   18.5512  -55.9513   32.7422 C   0  0  0  0  0  0  0  0  0  0  0  0
   17.5633  -56.8376   33.0939 N   0  0  0  0  0  0  0  0  0  0  0  0
   17.0885  -56.9997   34.2678 N   0  0  0  0  0  0  0  0  0  0  0  0
   16.1302  -57.8473   34.5140 C   0  0  0  0  0  0  0  0  0  0  0  0
   15.4520  -58.1573   35.7542 N   0  0  0  0  0  0  0  0  0  0  0  0
   14.0980  -58.5597   35.7515 C   0  0  0  0  0  0  0  0  0  0  0  0
   13.5993  -58.7322   37.1670 C   0  0  0  0  0  0  0  0  0  0  0  0
   14.1172  -57.7152   37.9733 O   0  0  0  0  0  0  0  0  0  0  0  0
   15.4811  -57.9304   38.2054 C   0  0  0  0  0  0  0  0  0  0  0  0
   16.2513  -58.0196   36.9243 C   0  0  0  0  0  0  0  0  0  0  0  0
   19.2085  -55.0726   33.7079 C   0  0  0  0  0  0  0  0  0  0  0  0
   19.7827  -54.0002   33.2923 O   0  0  0  0  0  0  0  0  0  0  0  0
   19.2737  -55.3105   35.0960 N   0  0  0  0  0  0  0  0  0  0  0  0
   18.8575  -56.1614   35.5196 H   0  0  0  0  0  0  0  0  0  0  0  0
   19.9473  -54.3516   35.9638 C   0  0  0  0  0  0  0  0  0  0  0  0
   18.9589  -53.5318   36.7070 C   0  0  0  0  0  0  0  0  0  0  0  0
   19.1514  -52.1623   36.7998 C   0  0  0  0  0  0  0  0  0  0  0  0
   18.2654  -51.4007   37.5200 C   0  0  0  0  0  0  0  0  0  0  0  0
   17.1845  -51.9479   38.1601 C   0  0  0  0  0  0  0  0  0  0  0  0
   16.9847  -53.3128   38.0722 C   0  0  0  0  0  0  0  0  0  0  0  0
   17.8804  -54.0784   37.3436 C   0  0  0  0  0  0  0  0  0  0  0  0
   15.5008  -54.1538   38.9291 Br  0  0  0  0  0  0  0  0  0  0  0  0
   20.2416  -51.6236   36.1535 O   0  0  0  0  0  0  0  0  0  0  0  0
   20.3333  -50.2025   36.0529 C   0  0  0  0  0  0  0  0  0  0  0  0
  1  2  1  0  0  0
  1 10  1  0  0  0
  2  3  2  0  0  0
  2  8  1  0  0  0
  3  4  1  0  0  0
  4  5  2  0  0  0
  4  6  1  0  0  0
  6  7  2  0  0  0
  7  8  1  0  0  0
  7 17  1  0  0  0
  8  9  1  0  0  0
  9 10  2  0  0  0
 10 11  1  0  0  0
 11 12  1  0  0  0
 11 16  1  0  0  0
 12 13  1  0  0  0
 13 14  1  0  0  0
 14 15  1  0  0  0
 15 16  1  0  0  0
 17 18  2  0  0  0
 17 19  1  0  0  0
 19 21  1  0  0  0
 21 22  1  0  0  0
 22 23  2  0  0  0
 22 27  1  0  0  0
 23 24  1  0  0  0
 23 29  1  0  0  0
 24 25  2  0  0  0
 25 26  1  0  0  0
 26 27  2  0  0  0
 26 28  1  0  0  0
 29 30  1  0  0  0
 19 20  1  0  0  0
M  END
> <minimizedAffinity>
-9.49712

$$$$
1265


 24 27  0  0  0  0  0  0  0  0999 V2000
   16.2204  -56.9056   37.0642 S   0  0  0  0  0  0  0  0  0  0  0  0
   16.4103  -56.6796   35.3008 C   0  0  0  0  0  0  0  0  0  0  0  0
   16.1393  -57.2309   34.1628 N   0  0  0  0  0  0  0  0  0  0  0  0
   16.6157  -56.4556   33.0796 C   0  0  0  0  0  0  0  0  0  0  0  0
   17.2591  -55.2689   33.7189 C   0  0  0  0  0  0  0  0  0  0  0  0
   17.0947  -55.4567   35.1800 N   0  0  0  0  0  0  0  0  0  0  0  0
   17.4131  -54.8020   36.3755 C   0  0  0  0  0  0  0  0  0  0  0  0
   17.0499  -55.3830   37.4967 C   0  0  0  0  0  0  0  0  0  0  0  0
   18.1243  -53.4842   36.4574 C   0  0  0  0  0  0  0  0  0  0  0  0
   17.6798  -52.4773   37.2845 C   0  0  0  0  0  0  0  0  0  0  0  0
   18.2926  -51.2474   37.3950 C   0  0  0  0  0  0  0  0  0  0  0  0
   19.4168  -50.9695   36.6520 C   0  0  0  0  0  0  0  0  0  0  0  0
   19.8773  -51.9528   35.8224 C   0  0  0  0  0  0  0  0  0  0  0  0
   19.2439  -53.2052   35.7170 C   0  0  0  0  0  0  0  0  0  0  0  0
   15.4071  -58.5076   34.0834 C   0  0  0  0  0  0  0  0  0  0  0  0
   13.9728  -58.1907   34.2341 C   0  0  0  0  0  0  0  0  0  0  0  0
   13.4202  -57.3274   33.5230 O   0  0  0  0  0  0  0  0  0  0  0  0
   13.1716  -58.8898   35.2285 C   0  0  0  0  0  0  0  0  0  0  0  0
   13.4262  -58.7379   36.5928 C   0  0  0  0  0  0  0  0  0  0  0  0
   12.6866  -59.3958   37.5578 C   0  0  0  0  0  0  0  0  0  0  0  0
   11.6761  -60.2170   37.1330 C   0  0  0  0  0  0  0  0  0  0  0  0
   11.3838  -60.4003   35.7939 C   0  0  0  0  0  0  0  0  0  0  0  0
   12.1453  -59.7243   34.8383 C   0  0  0  0  0  0  0  0  0  0  0  0
   10.6551  -61.1243   38.4797 Br  0  0  0  0  0  0  0  0  0  0  0  0
  1  2  1  0  0  0
  1  8  1  0  0  0
  2  3  2  0  0  0
  2  6  1  0  0  0
  3  4  1  0  0  0
  3 15  1  0  0  0
  4  5  1  0  0  0
  5  6  1  0  0  0
  6  7  1  0  0  0
  7  8  2  0  0  0
  7  9  1  0  0  0
  9 10  2  0  0  0
  9 14  1  0  0  0
 10 11  1  0  0  0
 11 12  2  0  0  0
 12 13  1  0  0  0
 13 14  2  0  0  0
 15 16  1  0  0  0
 16 17  2  0  0  0
 16 18  1  0  0  0
 18 19  2  0  0  0
 18 23  1  0  0  0
 19 20  1  0  0  0
 20 21  2  0  0  0
 21 22  1  0  0  0
 21 24  1  0  0  0
 22 23  2  0  0  0
M  END
> <minimizedAffinity>
-9.27144

$$$$
1266


 28 31  0  0  0  0  0  0  0  0999 V2000
   18.1077  -55.9118   34.8248 C   0  0  0  0  0  0  0  0  0  0  0  0
   17.4363  -55.3366   33.6656 N   0  0  0  0  0  0  0  0  0  0  0  0
   16.3495  -55.9965   33.1116 C   0  0  0  0  0  0  0  0  0  0  0  0
   15.5196  -56.9194   33.9791 C   0  0  0  0  0  0  0  0  0  0  0  0
   16.2310  -57.4804   35.0436 N   0  0  0  0  0  0  0  0  0  0  0  0
   17.6451  -57.2660   35.1075 C   0  0  0  0  0  0  0  0  0  0  0  0
   15.6884  -58.2581   36.0988 C   0  0  0  0  0  0  0  0  0  0  0  0
   16.6268  -58.7702   36.8612 O   0  0  0  0  0  0  0  0  0  0  0  0
   17.2763  -54.3188   33.8075 H   0  0  0  0  0  0  0  0  0  0  0  0
   14.3639  -58.5795   36.4906 C   0  0  0  0  0  0  0  0  0  0  0  0
   13.5616  -59.2734   35.5523 C   0  0  0  0  0  0  0  0  0  0  0  0
   12.3545  -59.7317   35.8822 N   0  0  0  0  0  0  0  0  0  0  0  0
   11.8457  -59.5600   37.1037 C   0  0  0  0  0  0  0  0  0  0  0  0
   12.5745  -58.8971   38.0535 C   0  0  0  0  0  0  0  0  0  0  0  0
   13.8405  -58.4017   37.7488 C   0  0  0  0  0  0  0  0  0  0  0  0
   12.0542  -58.7375   39.3766 N   0  0  0  0  0  0  0  0  0  0  0  0
   10.7682  -59.2837   39.6735 C   0  0  0  0  0  0  0  0  0  0  0  0
   10.3850  -59.6014   40.8179 O   0  0  0  0  0  0  0  0  0  0  0  0
    9.8322  -59.4824   38.5242 C   0  0  0  0  0  0  0  0  0  0  0  0
   10.5745  -60.0453   37.4306 O   0  0  0  0  0  0  0  0  0  0  0  0
   12.5839  -58.2484   40.1138 H   0  0  0  0  0  0  0  0  0  0  0  0
   19.9758  -53.6614   34.8056 Cl  0  0  0  0  0  0  0  0  0  0  0  0
   18.6426  -53.7697   35.9737 C   0  0  0  0  0  0  0  0  0  0  0  0
   17.8493  -54.9274   35.9341 C   0  0  0  0  0  0  0  0  0  0  0  0
   16.8277  -55.0093   36.8345 C   0  0  0  0  0  0  0  0  0  0  0  0
   16.6043  -53.9842   37.7367 C   0  0  0  0  0  0  0  0  0  0  0  0
   17.3852  -52.8420   37.7781 C   0  0  0  0  0  0  0  0  0  0  0  0
   18.4310  -52.7413   36.8666 C   0  0  0  0  0  0  0  0  0  0  0  0
 22 23  1  0  0  0
 23 24  2  0  0  0
 23 28  1  0  0  0
 24 25  1  0  0  0
 24  1  1  0  0  0
 25 26  2  0  0  0
 26 27  1  0  0  0
 27 28  2  0  0  0
  1  2  1  0  0  0
  1  6  1  0  0  0
  2  3  1  0  0  0
  3  4  1  0  0  0
  4  5  1  0  0  0
  5  6  1  0  0  0
  5  7  1  0  0  0
  7  8  2  0  0  0
  7 10  1  0  0  0
 10 11  2  0  0  0
 10 15  1  0  0  0
 11 12  1  0  0  0
 12 13  2  0  0  0
 13 14  1  0  0  0
 13 20  1  0  0  0
 14 15  2  0  0  0
 14 16  1  0  0  0
 16 17  1  0  0  0
 17 18  2  0  0  0
 17 19  1  0  0  0
 19 20  1  0  0  0
  2  9  1  0  0  0
 16 21  1  0  0  0
M  END
> <minimizedAffinity>
-9.16489

$$$$
1271


 35 38  0  0  0  0  0  0  0  0999 V2000
   14.6893  -57.7912   36.9375 C   0  0  0  0  0  0  0  0  0  0  0  0
   13.3924  -58.0921   37.0852 N   0  0  0  0  0  0  0  0  0  0  0  0
   13.0730  -58.8696   36.0825 N   0  0  0  0  0  0  0  0  0  0  0  0
   14.1274  -59.0744   35.2973 N   0  0  0  0  0  0  0  0  0  0  0  0
   15.1734  -58.4231   35.7814 C   0  0  0  0  0  0  0  0  0  0  0  0
   14.0856  -59.8540   34.1172 C   0  0  0  0  0  0  0  0  0  0  0  0
   14.2333  -59.3220   32.8717 N   0  0  0  0  0  0  0  0  0  0  0  0
   14.1411  -60.2929   32.0188 O   0  0  0  0  0  0  0  0  0  0  0  0
   13.9420  -61.4177   32.6057 N   0  0  0  0  0  0  0  0  0  0  0  0
   13.8999  -61.1912   33.9256 C   0  0  0  0  0  0  0  0  0  0  0  0
   13.7031  -62.1326   34.9470 N   0  0  0  0  0  0  0  0  0  0  0  0
   12.8861  -62.7750   35.0416 H   0  0  0  0  0  0  0  0  0  0  0  0
   14.4259  -62.2167   35.6943 H   0  0  0  0  0  0  0  0  0  0  0  0
   16.1904  -55.8339   37.4243 N   0  0  0  0  0  0  0  0  0  0  0  0
   15.4412  -56.9543   37.8542 C   0  0  0  0  0  0  0  0  0  0  0  0
   15.4207  -57.2391   39.0734 O   0  0  0  0  0  0  0  0  0  0  0  0
   16.2481  -55.5495   36.4100 H   0  0  0  0  0  0  0  0  0  0  0  0
   16.9037  -55.0324   38.3157 N   0  0  0  0  0  0  0  0  0  0  0  0
   17.5021  -55.3777   39.0850 H   0  0  0  0  0  0  0  0  0  0  0  0
   16.8110  -53.5998   38.1630 C   0  0  0  0  0  0  0  0  0  0  0  0
   15.8105  -52.9737   38.7297 C   0  0  0  0  0  0  0  0  0  0  0  0
   20.2130  -53.8208   34.0781 Br  0  0  0  0  0  0  0  0  0  0  0  0
   19.3766  -52.9389   35.5412 C   0  0  0  0  0  0  0  0  0  0  0  0
   18.4285  -53.5749   36.3044 C   0  0  0  0  0  0  0  0  0  0  0  0
   17.8220  -52.9214   37.3762 C   0  0  0  0  0  0  0  0  0  0  0  0
   18.2157  -51.6377   37.6185 C   0  0  0  0  0  0  0  0  0  0  0  0
   19.1790  -50.9875   36.8468 C   0  0  0  0  0  0  0  0  0  0  0  0
   19.7640  -51.6360   35.8030 C   0  0  0  0  0  0  0  0  0  0  0  0
   16.5337  -58.2618   35.3216 C   0  0  0  0  0  0  0  0  0  0  0  0
   16.9044  -56.9377   34.8613 N   0  0  0  0  0  0  0  0  0  0  0  0
   18.3178  -56.8929   34.4991 C   0  0  0  0  0  0  0  0  0  0  0  0
   18.7126  -58.0595   33.6209 C   0  0  0  0  0  0  0  0  0  0  0  0
   17.8487  -58.0829   32.3726 C   0  0  0  0  0  0  0  0  0  0  0  0
   16.8839  -56.9313   32.3654 C   0  0  0  0  0  0  0  0  0  0  0  0
   16.1822  -56.6337   33.6294 C   0  0  0  0  0  0  0  0  0  0  0  0
 22 23  1  0  0  0
 23 24  2  0  0  0
 23 28  1  0  0  0
 24 25  1  0  0  0
 25 26  2  0  0  0
 25 20  1  0  0  0
 26 27  1  0  0  0
 27 28  2  0  0  0
 20 21  2  0  0  0
 20 18  1  0  0  0
 18 14  1  0  0  0
 14 15  1  0  0  0
 15 16  2  0  0  0
 15  1  1  0  0  0
  1  2  1  0  0  0
  1  5  2  0  0  0
  2  3  2  0  0  0
  3  4  1  0  0  0
  4  5  1  0  0  0
  4  6  1  0  0  0
  5 29  1  0  0  0
 29 30  1  0  0  0
 30 31  1  0  0  0
 30 35  1  0  0  0
 31 32  1  0  0  0
 32 33  1  0  0  0
 33 34  1  0  0  0
 34 35  1  0  0  0
  6  7  2  0  0  0
  6 10  1  0  0  0
  7  8  1  0  0  0
  8  9  1  0  0  0
  9 10  2  0  0  0
 10 11  1  0  0  0
 18 19  1  0  0  0
 14 17  1  0  0  0
 11 12  1  0  0  0
 11 13  1  0  0  0
M  END
> <minimizedAffinity>
-10.02385

$$$$
1280


 35 38  0  0  0  0  0  0  0  0999 V2000
   16.0773  -58.2090   35.5445 C   0  0  0  0  0  0  0  0  0  0  0  0
   14.8583  -58.6256   34.8806 N   0  0  0  0  0  0  0  0  0  0  0  0
   14.5343  -57.6154   33.9410 C   0  0  0  0  0  0  0  0  0  0  0  0
   13.3996  -57.3644   33.5223 O   0  0  0  0  0  0  0  0  0  0  0  0
   15.8019  -56.9539   33.5858 C   0  0  0  0  0  0  0  0  0  0  0  0
   15.9734  -56.0080   32.7792 O   0  0  0  0  0  0  0  0  0  0  0  0
   16.8207  -57.6387   34.3716 C   0  0  0  0  0  0  0  0  0  0  0  0
   18.1030  -57.7370   34.0506 C   0  0  0  0  0  0  0  0  0  0  0  0
   18.8969  -58.4932   34.9448 O   0  0  0  0  0  0  0  0  0  0  0  0
   17.6777  -53.8264   38.1806 Br  0  0  0  0  0  0  0  0  0  0  0  0
   16.4107  -55.2290   37.8348 C   0  0  0  0  0  0  0  0  0  0  0  0
   16.6776  -56.1977   36.8602 C   0  0  0  0  0  0  0  0  0  0  0  0
   15.7792  -57.2203   36.5911 C   0  0  0  0  0  0  0  0  0  0  0  0
   14.6240  -57.2343   37.3231 C   0  0  0  0  0  0  0  0  0  0  0  0
   14.3417  -56.2815   38.2934 C   0  0  0  0  0  0  0  0  0  0  0  0
   15.2417  -55.2749   38.5497 C   0  0  0  0  0  0  0  0  0  0  0  0
   18.6987  -57.1245   32.8683 C   0  0  0  0  0  0  0  0  0  0  0  0
   19.1569  -55.8420   32.8109 C   0  0  0  0  0  0  0  0  0  0  0  0
   19.6722  -55.3147   31.6128 C   0  0  0  0  0  0  0  0  0  0  0  0
   19.7435  -56.0451   30.4576 C   0  0  0  0  0  0  0  0  0  0  0  0
   19.2822  -57.3430   30.5137 C   0  0  0  0  0  0  0  0  0  0  0  0
   18.7783  -57.8671   31.6751 C   0  0  0  0  0  0  0  0  0  0  0  0
   19.1648  -54.9926   34.0250 C   0  0  0  0  0  0  0  0  0  0  0  0
   20.2547  -55.5276   29.2673 O   0  0  0  0  0  0  0  0  0  0  0  0
   19.9628  -56.1391   28.0373 C   0  0  0  0  0  0  0  0  0  0  0  0
   14.1478  -59.8528   35.1728 C   0  0  0  0  0  0  0  0  0  0  0  0
   14.5532  -61.0029   34.3057 C   0  0  0  0  0  0  0  0  0  0  0  0
   13.7462  -61.2073   33.0806 C   0  0  0  0  0  0  0  0  0  0  0  0
   14.4678  -61.1877   31.8583 N   0  0  0  0  0  0  0  0  0  0  0  0
   15.8614  -60.7354   32.0025 C   0  0  0  0  0  0  0  0  0  0  0  0
   16.2691  -60.2405   30.6132 C   0  0  0  0  0  0  0  0  0  0  0  0
   15.3602  -60.6157   29.6404 O   0  0  0  0  0  0  0  0  0  0  0  0
   15.0896  -61.9826   29.7099 C   0  0  0  0  0  0  0  0  0  0  0  0
   14.5009  -62.3713   31.0786 C   0  0  0  0  0  0  0  0  0  0  0  0
   14.0165  -60.4387   31.2495 H   0  0  0  0  0  0  0  0  0  0  0  0
 10 11  1  0  0  0
 11 12  2  0  0  0
 11 16  1  0  0  0
 12 13  1  0  0  0
 13 14  2  0  0  0
 13  1  1  0  0  0
 14 15  1  0  0  0
 15 16  2  0  0  0
  1  2  1  0  0  0
  1  7  1  0  0  0
  2  3  1  0  0  0
  2 26  1  0  0  0
  3  4  2  0  0  0
  3  5  1  0  0  0
  5  6  2  0  0  0
  5  7  1  0  0  0
  7  8  2  0  0  0
  8  9  1  0  0  0
  8 17  1  0  0  0
 17 18  2  0  0  0
 17 22  1  0  0  0
 18 19  1  0  0  0
 18 23  1  0  0  0
 19 20  2  0  0  0
 20 21  1  0  0  0
 20 24  1  0  0  0
 21 22  2  0  0  0
 24 25  1  0  0  0
 26 27  1  0  0  0
 27 28  1  0  0  0
 28 29  1  0  0  0
 29 30  1  0  0  0
 29 34  1  0  0  0
 30 31  1  0  0  0
 31 32  1  0  0  0
 32 33  1  0  0  0
 33 34  1  0  0  0
 29 35  1  0  0  0
M  CHG 1   9  -1
M  CHG 1  29   1
M  END
> <minimizedAffinity>
-9.48318

$$$$
1282


 30 33  0  0  0  0  0  0  0  0999 V2000
   14.6221  -57.5410   37.5269 C   0  0  0  0  0  0  0  0  0  0  0  0
   14.0623  -57.6171   36.1195 C   0  0  0  0  0  0  0  0  0  0  0  0
   13.2205  -58.7966   36.1696 N   0  0  0  0  0  0  0  0  0  0  0  0
   13.0876  -59.2823   37.5281 C   0  0  0  0  0  0  0  0  0  0  0  0
   13.4622  -58.0371   38.3430 C   0  0  0  0  0  0  0  0  0  0  0  0
   11.6970  -59.6762   37.7484 C   0  0  0  0  0  0  0  0  0  0  0  0
   11.0417  -59.2357   38.7041 O   0  0  0  0  0  0  0  0  0  0  0  0
   11.1122  -60.5858   36.8301 N   0  0  0  0  0  0  0  0  0  0  0  0
   11.6081  -60.6449   35.4736 C   0  0  0  0  0  0  0  0  0  0  0  0
   12.5290  -59.5322   35.1500 C   0  0  0  0  0  0  0  0  0  0  0  0
   12.7202  -59.2106   33.9477 O   0  0  0  0  0  0  0  0  0  0  0  0
   10.3270  -61.2232   37.0930 H   0  0  0  0  0  0  0  0  0  0  0  0
   16.2370  -55.7120   37.3559 C   0  0  0  0  0  0  0  0  0  0  0  0
   16.9514  -56.4818   36.6139 O   0  0  0  0  0  0  0  0  0  0  0  0
   15.0135  -56.1859   37.8709 N   0  0  0  0  0  0  0  0  0  0  0  0
   14.4397  -55.5766   38.4698 H   0  0  0  0  0  0  0  0  0  0  0  0
   19.8179  -51.9366   36.2691 Br  0  0  0  0  0  0  0  0  0  0  0  0
   18.2951  -52.6124   37.2105 C   0  0  0  0  0  0  0  0  0  0  0  0
   17.8327  -53.8737   36.9554 C   0  0  0  0  0  0  0  0  0  0  0  0
   16.7278  -54.3729   37.6343 C   0  0  0  0  0  0  0  0  0  0  0  0
   16.1247  -53.5714   38.5524 C   0  0  0  0  0  0  0  0  0  0  0  0
   16.6010  -52.2941   38.8034 C   0  0  0  0  0  0  0  0  0  0  0  0
   17.6937  -51.8037   38.1319 C   0  0  0  0  0  0  0  0  0  0  0  0
   12.2036  -61.9940   35.1314 C   0  0  0  0  0  0  0  0  0  0  0  0
   11.5951  -62.6130   33.9423 C   0  0  0  0  0  0  0  0  0  0  0  0
   10.2638  -62.3778   33.6497 C   0  0  0  0  0  0  0  0  0  0  0  0
    9.6877  -62.9527   32.5404 C   0  0  0  0  0  0  0  0  0  0  0  0
   10.3874  -63.7761   31.6787 C   0  0  0  0  0  0  0  0  0  0  0  0
   11.7144  -64.0126   31.9677 C   0  0  0  0  0  0  0  0  0  0  0  0
   12.3097  -63.4439   33.0770 C   0  0  0  0  0  0  0  0  0  0  0  0
 17 18  1  0  0  0
 18 19  2  0  0  0
 18 23  1  0  0  0
 19 20  1  0  0  0
 20 21  2  0  0  0
 20 13  1  0  0  0
 21 22  1  0  0  0
 22 23  2  0  0  0
 13 14  2  0  0  0
 13 15  1  0  0  0
 15  1  1  0  0  0
  1  2  1  0  0  0
  1  5  1  0  0  0
  2  3  1  0  0  0
  3  4  1  0  0  0
  3 10  1  0  0  0
  4  5  1  0  0  0
  4  6  1  0  0  0
  6  7  2  0  0  0
  6  8  1  0  0  0
  8  9  1  0  0  0
  9 10  1  0  0  0
  9 24  1  0  0  0
 10 11  2  0  0  0
 24 25  1  0  0  0
 25 26  2  0  0  0
 25 30  1  0  0  0
 26 27  1  0  0  0
 27 28  2  0  0  0
 28 29  1  0  0  0
 29 30  2  0  0  0
 15 16  1  0  0  0
  8 12  1  0  0  0
M  END
> <minimizedAffinity>
-9.59003

$$$$
1284


 35 38  0  0  0  0  0  0  0  0999 V2000
   13.9135  -59.7924   36.1895 C   0  0  0  0  0  0  0  0  0  0  0  0
   13.0497  -59.8539   35.0704 N   0  0  0  0  0  0  0  0  0  0  0  0
   13.2734  -58.7327   34.2314 C   0  0  0  0  0  0  0  0  0  0  0  0
   12.5927  -58.4499   33.1968 O   0  0  0  0  0  0  0  0  0  0  0  0
   14.3989  -57.9866   34.7509 C   0  0  0  0  0  0  0  0  0  0  0  0
   14.8106  -56.9340   34.1923 O   0  0  0  0  0  0  0  0  0  0  0  0
   14.8641  -58.6779   35.9380 C   0  0  0  0  0  0  0  0  0  0  0  0
   15.9040  -58.3141   36.6537 C   0  0  0  0  0  0  0  0  0  0  0  0
   16.2063  -59.0131   37.7996 O   0  0  0  0  0  0  0  0  0  0  0  0
   11.2421  -62.2859   40.0606 Br  0  0  0  0  0  0  0  0  0  0  0  0
   11.9308  -60.7124   39.2272 C   0  0  0  0  0  0  0  0  0  0  0  0
   12.6384  -60.7173   38.0641 C   0  0  0  0  0  0  0  0  0  0  0  0
   13.1545  -59.6005   37.4296 C   0  0  0  0  0  0  0  0  0  0  0  0
   12.9300  -58.3656   38.0321 C   0  0  0  0  0  0  0  0  0  0  0  0
   12.2142  -58.3237   39.2132 C   0  0  0  0  0  0  0  0  0  0  0  0
   11.7119  -59.4598   39.8233 C   0  0  0  0  0  0  0  0  0  0  0  0
   16.7344  -57.2046   36.2562 C   0  0  0  0  0  0  0  0  0  0  0  0
   16.7305  -55.9524   36.8957 C   0  0  0  0  0  0  0  0  0  0  0  0
   17.6370  -55.1594   36.3114 N   0  0  0  0  0  0  0  0  0  0  0  0
   18.1985  -55.8608   35.3441 N   0  0  0  0  0  0  0  0  0  0  0  0
   17.6845  -57.0981   35.2788 C   0  0  0  0  0  0  0  0  0  0  0  0
   15.8407  -55.6086   38.0426 C   0  0  0  0  0  0  0  0  0  0  0  0
   17.9605  -53.8206   36.6591 C   0  0  0  0  0  0  0  0  0  0  0  0
   19.1575  -53.2829   36.2052 C   0  0  0  0  0  0  0  0  0  0  0  0
   19.5309  -51.9859   36.4957 C   0  0  0  0  0  0  0  0  0  0  0  0
   18.7114  -51.1576   37.2637 C   0  0  0  0  0  0  0  0  0  0  0  0
   17.5187  -51.6933   37.7161 C   0  0  0  0  0  0  0  0  0  0  0  0
   17.1708  -52.9846   37.4140 C   0  0  0  0  0  0  0  0  0  0  0  0
   12.0597  -60.9242   34.7630 C   0  0  0  0  0  0  0  0  0  0  0  0
   12.7835  -62.2118   34.4645 C   0  0  0  0  0  0  0  0  0  0  0  0
   13.0064  -62.4464   33.0040 C   0  0  0  0  0  0  0  0  0  0  0  0
   14.3467  -62.3056   32.5397 N   0  0  0  0  0  0  0  0  0  0  0  0
   14.6350  -61.1357   31.7771 C   0  0  0  0  0  0  0  0  0  0  0  0
   15.2823  -62.3377   33.6755 C   0  0  0  0  0  0  0  0  0  0  0  0
   14.6135  -63.1581   31.9599 H   0  0  0  0  0  0  0  0  0  0  0  0
 10 11  1  0  0  0
 11 12  2  0  0  0
 11 16  1  0  0  0
 12 13  1  0  0  0
 13 14  2  0  0  0
 13  1  1  0  0  0
 14 15  1  0  0  0
 15 16  2  0  0  0
  1  2  1  0  0  0
  1  7  1  0  0  0
  2  3  1  0  0  0
  2 29  1  0  0  0
  3  4  2  0  0  0
  3  5  1  0  0  0
  5  6  2  0  0  0
  5  7  1  0  0  0
  7  8  2  0  0  0
  8  9  1  0  0  0
  8 17  1  0  0  0
 17 18  2  0  0  0
 17 21  1  0  0  0
 18 19  1  0  0  0
 18 22  1  0  0  0
 19 20  1  0  0  0
 19 23  1  0  0  0
 20 21  2  0  0  0
 23 24  2  0  0  0
 23 28  1  0  0  0
 24 25  1  0  0  0
 25 26  2  0  0  0
 26 27  1  0  0  0
 27 28  2  0  0  0
 29 30  1  0  0  0
 30 31  1  0  0  0
 31 32  1  0  0  0
 32 33  1  0  0  0
 32 34  1  0  0  0
 32 35  1  0  0  0
M  CHG 1   9  -1
M  CHG 1  32   1
M  END
> <minimizedAffinity>
-9.10150

$$$$
1285


 34 37  0  0  0  0  0  0  0  0999 V2000
   16.0915  -58.3116   35.3586 C   0  0  0  0  0  0  0  0  0  0  0  0
   14.7774  -58.6804   34.8694 N   0  0  0  0  0  0  0  0  0  0  0  0
   14.3673  -57.6860   33.9056 C   0  0  0  0  0  0  0  0  0  0  0  0
   13.2162  -57.3874   33.5664 O   0  0  0  0  0  0  0  0  0  0  0  0
   15.6161  -57.1080   33.4182 C   0  0  0  0  0  0  0  0  0  0  0  0
   15.7779  -56.1889   32.5611 O   0  0  0  0  0  0  0  0  0  0  0  0
   16.7165  -57.7717   34.0976 C   0  0  0  0  0  0  0  0  0  0  0  0
   17.9854  -57.8500   33.7310 C   0  0  0  0  0  0  0  0  0  0  0  0
   18.8863  -58.5111   34.6136 O   0  0  0  0  0  0  0  0  0  0  0  0
   18.4514  -57.3000   32.4824 C   0  0  0  0  0  0  0  0  0  0  0  0
   18.4139  -57.8587   31.2541 N   0  0  0  0  0  0  0  0  0  0  0  0
   18.9279  -56.9742   30.3647 C   0  0  0  0  0  0  0  0  0  0  0  0
   19.2984  -55.8400   31.0209 N   0  0  0  0  0  0  0  0  0  0  0  0
   19.0006  -56.0533   32.3243 C   0  0  0  0  0  0  0  0  0  0  0  0
   19.2448  -55.0615   33.4078 C   0  0  0  0  0  0  0  0  0  0  0  0
   19.0588  -57.2095   29.0205 C   0  0  0  0  0  0  0  0  0  0  0  0
   18.6399  -58.4315   28.5425 C   0  0  0  0  0  0  0  0  0  0  0  0
   18.1178  -59.3362   29.4445 C   0  0  0  0  0  0  0  0  0  0  0  0
   18.0087  -59.0483   30.7783 C   0  0  0  0  0  0  0  0  0  0  0  0
   19.6304  -56.1973   28.0859 C   0  0  0  0  0  0  0  0  0  0  0  0
   18.1260  -53.6952   36.9389 Br  0  0  0  0  0  0  0  0  0  0  0  0
   16.9708  -55.1969   37.1840 C   0  0  0  0  0  0  0  0  0  0  0  0
   16.9287  -56.1815   36.2466 C   0  0  0  0  0  0  0  0  0  0  0  0
   16.0886  -57.2869   36.4112 C   0  0  0  0  0  0  0  0  0  0  0  0
   15.3103  -57.3418   37.5471 C   0  0  0  0  0  0  0  0  0  0  0  0
   15.3532  -56.3358   38.5045 C   0  0  0  0  0  0  0  0  0  0  0  0
   16.1907  -55.2620   38.3132 C   0  0  0  0  0  0  0  0  0  0  0  0
   13.9933  -59.8362   35.2701 C   0  0  0  0  0  0  0  0  0  0  0  0
   13.5586  -60.7045   34.1397 C   0  0  0  0  0  0  0  0  0  0  0  0
   14.6421  -61.0388   33.1455 C   0  0  0  0  0  0  0  0  0  0  0  0
   14.0473  -61.4486   31.8951 N   0  0  0  0  0  0  0  0  0  0  0  0
   15.0097  -61.3385   30.8144 C   0  0  0  0  0  0  0  0  0  0  0  0
   13.6952  -62.8515   31.9937 C   0  0  0  0  0  0  0  0  0  0  0  0
   13.1614  -60.9392   31.6867 H   0  0  0  0  0  0  0  0  0  0  0  0
 21 22  1  0  0  0
 22 23  2  0  0  0
 22 27  1  0  0  0
 23 24  1  0  0  0
 24 25  2  0  0  0
 24  1  1  0  0  0
 25 26  1  0  0  0
 26 27  2  0  0  0
  1  2  1  0  0  0
  1  7  1  0  0  0
  2  3  1  0  0  0
  2 28  1  0  0  0
  3  4  2  0  0  0
  3  5  1  0  0  0
  5  6  2  0  0  0
  5  7  1  0  0  0
  7  8  2  0  0  0
  8  9  1  0  0  0
  8 10  1  0  0  0
 10 11  1  0  0  0
 10 14  2  0  0  0
 11 12  1  0  0  0
 11 19  1  0  0  0
 12 13  2  0  0  0
 12 16  1  0  0  0
 13 14  1  0  0  0
 14 15  1  0  0  0
 16 17  2  0  0  0
 16 20  1  0  0  0
 17 18  1  0  0  0
 18 19  2  0  0  0
 28 29  1  0  0  0
 29 30  1  0  0  0
 30 31  1  0  0  0
 31 32  1  0  0  0
 31 33  1  0  0  0
 31 34  1  0  0  0
M  CHG 1   9  -1
M  CHG 1  31   1
M  END
> <minimizedAffinity>
-9.77916

$$$$
1295


 26 29  0  0  0  0  0  0  0  0999 V2000
   17.4773  -56.1537   36.2883 C   0  0  0  0  0  0  0  0  0  0  0  0
   17.6894  -54.7733   36.6641 C   0  0  0  0  0  0  0  0  0  0  0  0
   16.8823  -54.1557   37.5777 C   0  0  0  0  0  0  0  0  0  0  0  0
   15.8044  -54.8400   38.2285 N   0  0  0  0  0  0  0  0  0  0  0  0
   15.6267  -56.2034   37.8660 C   0  0  0  0  0  0  0  0  0  0  0  0
   16.3847  -56.8161   36.9999 C   0  0  0  0  0  0  0  0  0  0  0  0
   15.9367  -58.2387   36.8916 C   0  0  0  0  0  0  0  0  0  0  0  0
   16.4913  -59.0790   36.1214 O   0  0  0  0  0  0  0  0  0  0  0  0
   14.8921  -58.3677   37.7471 O   0  0  0  0  0  0  0  0  0  0  0  0
   14.5782  -57.1738   38.3796 C   0  0  0  0  0  0  0  0  0  0  0  0
   17.1093  -52.8412   37.8990 N   0  0  0  0  0  0  0  0  0  0  0  0
   18.1103  -52.1634   37.3271 C   0  0  0  0  0  0  0  0  0  0  0  0
   18.3010  -50.9535   37.6380 O   0  0  0  0  0  0  0  0  0  0  0  0
   18.8987  -52.7792   36.4304 N   0  0  0  0  0  0  0  0  0  0  0  0
   18.7460  -54.0496   36.0641 C   0  0  0  0  0  0  0  0  0  0  0  0
   19.4781  -54.6338   35.2273 O   0  0  0  0  0  0  0  0  0  0  0  0
   19.9810  -51.9971   35.8309 C   0  0  0  0  0  0  0  0  0  0  0  0
   16.2149  -52.2406   38.8777 C   0  0  0  0  0  0  0  0  0  0  0  0
   15.2147  -54.3350   38.9138 H   0  0  0  0  0  0  0  0  0  0  0  0
   17.6114  -57.4313   30.2566 Br  0  0  0  0  0  0  0  0  0  0  0  0
   17.5401  -57.0109   32.1320 C   0  0  0  0  0  0  0  0  0  0  0  0
   16.5524  -56.2063   32.6388 C   0  0  0  0  0  0  0  0  0  0  0  0
   16.5311  -55.9193   34.0150 C   0  0  0  0  0  0  0  0  0  0  0  0
   17.4757  -56.4287   34.8546 C   0  0  0  0  0  0  0  0  0  0  0  0
   18.4598  -57.2331   34.3370 C   0  0  0  0  0  0  0  0  0  0  0  0
   18.4922  -57.5267   32.9625 C   0  0  0  0  0  0  0  0  0  0  0  0
 20 21  1  0  0  0
 21 22  2  0  0  0
 21 26  1  0  0  0
 22 23  1  0  0  0
 23 24  2  0  0  0
 24 25  1  0  0  0
 24  1  1  0  0  0
 25 26  2  0  0  0
  1  2  1  0  0  0
  1  6  1  0  0  0
  2  3  2  0  0  0
  2 15  1  0  0  0
  3  4  1  0  0  0
  3 11  1  0  0  0
  4  5  1  0  0  0
  5  6  2  0  0  0
  5 10  1  0  0  0
  6  7  1  0  0  0
  7  8  2  0  0  0
  7  9  1  0  0  0
  9 10  1  0  0  0
 11 12  1  0  0  0
 11 18  1  0  0  0
 12 13  2  0  0  0
 12 14  1  0  0  0
 14 15  1  0  0  0
 14 17  1  0  0  0
 15 16  2  0  0  0
  4 19  1  0  0  0
M  END
> <minimizedAffinity>
-9.80850

$$$$
1299


 36 39  0  0  0  0  0  0  0  0999 V2000
   16.2100  -56.9423   35.5656 C   0  0  0  0  0  0  0  0  0  0  0  0
   16.1502  -57.1825   34.2166 N   0  0  0  0  0  0  0  0  0  0  0  0
   16.8539  -56.2218   33.6550 N   0  0  0  0  0  0  0  0  0  0  0  0
   17.3452  -55.4090   34.5315 N   0  0  0  0  0  0  0  0  0  0  0  0
   16.9656  -55.8200   35.7745 C   0  0  0  0  0  0  0  0  0  0  0  0
   15.4736  -58.2397   33.5684 C   0  0  0  0  0  0  0  0  0  0  0  0
   14.1426  -58.4648   33.4384 N   0  0  0  0  0  0  0  0  0  0  0  0
   13.9651  -59.5479   32.7708 O   0  0  0  0  0  0  0  0  0  0  0  0
   15.0830  -60.1003   32.4213 N   0  0  0  0  0  0  0  0  0  0  0  0
   16.0684  -59.2999   32.9097 C   0  0  0  0  0  0  0  0  0  0  0  0
   17.4543  -59.5490   32.7457 N   0  0  0  0  0  0  0  0  0  0  0  0
   18.0928  -58.7339   32.6894 H   0  0  0  0  0  0  0  0  0  0  0  0
   17.8684  -60.4970   32.6799 H   0  0  0  0  0  0  0  0  0  0  0  0
   14.1486  -57.8439   36.8018 N   0  0  0  0  0  0  0  0  0  0  0  0
   15.5297  -57.8252   36.5047 C   0  0  0  0  0  0  0  0  0  0  0  0
   16.2144  -58.7000   37.1601 O   0  0  0  0  0  0  0  0  0  0  0  0
   13.4220  -57.2219   36.3834 H   0  0  0  0  0  0  0  0  0  0  0  0
   12.4826  -58.9600   38.0619 C   0  0  0  0  0  0  0  0  0  0  0  0
   13.7157  -58.8122   37.7690 N   0  0  0  0  0  0  0  0  0  0  0  0
   10.8443  -59.9614   43.0500 Br  0  0  0  0  0  0  0  0  0  0  0  0
   11.2968  -60.4924   41.2730 C   0  0  0  0  0  0  0  0  0  0  0  0
   11.1971  -61.8294   40.9450 C   0  0  0  0  0  0  0  0  0  0  0  0
   11.5239  -62.2029   39.6657 C   0  0  0  0  0  0  0  0  0  0  0  0
   11.9402  -61.2703   38.7332 C   0  0  0  0  0  0  0  0  0  0  0  0
   12.0399  -59.9525   39.0527 C   0  0  0  0  0  0  0  0  0  0  0  0
   11.7133  -59.5692   40.3352 C   0  0  0  0  0  0  0  0  0  0  0  0
   11.3874  -64.0638   39.2019 Br  0  0  0  0  0  0  0  0  0  0  0  0
   10.7842  -62.7936   41.8532 O   0  0  0  0  0  0  0  0  0  0  0  0
   10.5313  -62.5858   42.8029 H   0  0  0  0  0  0  0  0  0  0  0  0
   17.2746  -55.2056   37.0649 C   0  0  0  0  0  0  0  0  0  0  0  0
   17.9006  -53.8961   36.9649 N   0  0  0  0  0  0  0  0  0  0  0  0
   16.9513  -52.8555   37.3395 C   0  0  0  0  0  0  0  0  0  0  0  0
   17.0285  -52.5295   38.8042 C   0  0  0  0  0  0  0  0  0  0  0  0
   17.5628  -53.5410   39.5807 O   0  0  0  0  0  0  0  0  0  0  0  0
   18.8462  -53.9248   39.2228 C   0  0  0  0  0  0  0  0  0  0  0  0
   19.1061  -53.7797   37.7479 C   0  0  0  0  0  0  0  0  0  0  0  0
 20 21  1  0  0  0
 21 22  2  0  0  0
 21 26  1  0  0  0
 22 23  1  0  0  0
 22 28  1  0  0  0
 23 24  2  0  0  0
 23 27  1  0  0  0
 24 25  1  0  0  0
 25 26  2  0  0  0
 25 18  1  0  0  0
 18 19  2  0  0  0
 19 14  1  0  0  0
 14 15  1  0  0  0
 15 16  2  0  0  0
 15  1  1  0  0  0
  1  2  1  0  0  0
  1  5  2  0  0  0
  2  3  1  0  0  0
  2  6  1  0  0  0
  3  4  2  0  0  0
  4  5  1  0  0  0
  5 30  1  0  0  0
 30 31  1  0  0  0
 31 32  1  0  0  0
 31 36  1  0  0  0
 32 33  1  0  0  0
 33 34  1  0  0  0
 34 35  1  0  0  0
 35 36  1  0  0  0
  6  7  2  0  0  0
  6 10  1  0  0  0
  7  8  1  0  0  0
  8  9  1  0  0  0
  9 10  2  0  0  0
 10 11  1  0  0  0
 14 17  1  0  0  0
 11 12  1  0  0  0
 11 13  1  0  0  0
 28 29  1  0  0  0
M  END
> <minimizedAffinity>
-8.98727

$$$$
1300


 22 25  0  0  0  0  0  0  0  0999 V2000
   17.2763  -57.0682   34.1713 N   0  0  0  0  0  0  0  0  0  0  0  0
   18.2866  -58.0093   33.8591 C   0  0  0  0  0  0  0  0  0  0  0  0
   19.0041  -58.6278   34.6721 O   0  0  0  0  0  0  0  0  0  0  0  0
   18.3977  -58.1810   32.3949 C   0  0  0  0  0  0  0  0  0  0  0  0
   19.5065  -57.2609   31.9320 C   0  0  0  0  0  0  0  0  0  0  0  0
   18.8431  -56.0093   32.0374 O   0  0  0  0  0  0  0  0  0  0  0  0
   17.8028  -56.3091   31.1178 C   0  0  0  0  0  0  0  0  0  0  0  0
   17.1705  -57.4837   31.8150 C   0  0  0  0  0  0  0  0  0  0  0  0
   16.4516  -56.9801   33.0066 C   0  0  0  0  0  0  0  0  0  0  0  0
   15.2613  -56.5267   33.0037 O   0  0  0  0  0  0  0  0  0  0  0  0
   18.6121  -56.7168   29.9501 C   0  0  0  0  0  0  0  0  0  0  0  0
   19.6699  -57.3427   30.4593 C   0  0  0  0  0  0  0  0  0  0  0  0
   15.6297  -58.6093   36.1849 Br  0  0  0  0  0  0  0  0  0  0  0  0
   16.3050  -56.8295   36.3980 C   0  0  0  0  0  0  0  0  0  0  0  0
   17.0390  -56.3178   35.3526 C   0  0  0  0  0  0  0  0  0  0  0  0
   17.5298  -55.0214   35.5161 C   0  0  0  0  0  0  0  0  0  0  0  0
   17.2796  -54.3139   36.6684 C   0  0  0  0  0  0  0  0  0  0  0  0
   16.5408  -54.8300   37.7201 C   0  0  0  0  0  0  0  0  0  0  0  0
   16.0523  -56.1124   37.5651 C   0  0  0  0  0  0  0  0  0  0  0  0
   16.2968  -54.0726   38.8989 N   0  0  0  0  0  0  0  0  0  0  0  0
   17.2352  -53.4130   39.3791 O   0  0  0  0  0  0  0  0  0  0  0  0
   15.0922  -54.0188   39.5450 O   0  0  0  0  0  0  0  0  0  0  0  0
 13 14  1  0  0  0
 14 15  2  0  0  0
 14 19  1  0  0  0
 15 16  1  0  0  0
 15  1  1  0  0  0
 16 17  2  0  0  0
 17 18  1  0  0  0
 18 19  2  0  0  0
 18 20  1  0  0  0
 20 21  2  0  0  0
 20 22  1  0  0  0
  1  2  1  0  0  0
  1  9  1  0  0  0
  2  3  2  0  0  0
  2  4  1  0  0  0
  4  5  1  0  0  0
  4  8  1  0  0  0
  5  6  1  0  0  0
  5 12  1  0  0  0
  6  7  1  0  0  0
  7  8  1  0  0  0
  7 11  1  0  0  0
  8  9  1  0  0  0
  9 10  2  0  0  0
 11 12  2  0  0  0
M  CHG 1  22  -1
M  END
> <minimizedAffinity>
-8.36546

$$$$
1301


 24 27  0  0  0  0  0  0  0  0999 V2000
   16.6837  -57.0716   36.4682 N   0  0  0  0  0  0  0  0  0  0  0  0
   16.1287  -58.3203   36.8652 C   0  0  0  0  0  0  0  0  0  0  0  0
   15.8762  -58.7053   38.0273 O   0  0  0  0  0  0  0  0  0  0  0  0
   15.8719  -59.1567   35.6536 C   0  0  0  0  0  0  0  0  0  0  0  0
   14.5300  -58.8875   35.0591 C   0  0  0  0  0  0  0  0  0  0  0  0
   14.7306  -57.6749   34.3533 O   0  0  0  0  0  0  0  0  0  0  0  0
   15.8001  -58.1415   33.5477 C   0  0  0  0  0  0  0  0  0  0  0  0
   16.7850  -58.5368   34.5985 C   0  0  0  0  0  0  0  0  0  0  0  0
   17.3616  -57.3353   35.2469 C   0  0  0  0  0  0  0  0  0  0  0  0
   18.3030  -56.6571   34.7852 O   0  0  0  0  0  0  0  0  0  0  0  0
   15.1443  -59.3472   32.9575 C   0  0  0  0  0  0  0  0  0  0  0  0
   14.3251  -59.8158   33.9155 C   0  0  0  0  0  0  0  0  0  0  0  0
   16.2628  -57.1504   32.5670 C   0  0  0  0  0  0  0  0  0  0  0  0
   18.5053  -52.1669   37.3204 Br  0  0  0  0  0  0  0  0  0  0  0  0
   17.2858  -53.5871   37.6617 C   0  0  0  0  0  0  0  0  0  0  0  0
   16.2956  -53.3930   38.5964 C   0  0  0  0  0  0  0  0  0  0  0  0
   15.4280  -54.4362   38.8228 C   0  0  0  0  0  0  0  0  0  0  0  0
   15.5596  -55.6399   38.1216 C   0  0  0  0  0  0  0  0  0  0  0  0
   16.5475  -55.8498   37.1808 C   0  0  0  0  0  0  0  0  0  0  0  0
   17.4130  -54.7915   36.9650 C   0  0  0  0  0  0  0  0  0  0  0  0
   16.1502  -52.1099   39.3442 C   0  0  0  0  0  0  0  0  0  0  0  0
   13.4053  -58.8299   36.0095 C   0  0  0  0  0  0  0  0  0  0  0  0
   13.2979  -59.9957   36.7642 O   0  0  0  0  0  0  0  0  0  0  0  0
   12.6431  -60.6464   36.3854 H   0  0  0  0  0  0  0  0  0  0  0  0
 14 15  1  0  0  0
 15 16  2  0  0  0
 15 20  1  0  0  0
 16 17  1  0  0  0
 16 21  1  0  0  0
 17 18  2  0  0  0
 18 19  1  0  0  0
 19 20  2  0  0  0
 19  1  1  0  0  0
  1  2  1  0  0  0
  1  9  1  0  0  0
  2  3  2  0  0  0
  2  4  1  0  0  0
  4  5  1  0  0  0
  4  8  1  0  0  0
  5  6  1  0  0  0
  5 12  1  0  0  0
  5 22  1  0  0  0
  6  7  1  0  0  0
  7  8  1  0  0  0
  7 11  1  0  0  0
  7 13  1  0  0  0
  8  9  1  0  0  0
  9 10  2  0  0  0
 11 12  2  0  0  0
 22 23  1  0  0  0
 23 24  1  0  0  0
M  END
> <minimizedAffinity>
-8.71246

$$$$
1310


 32 35  0  0  0  0  0  0  0  0999 V2000
   16.1959  -58.1172   35.4674 C   0  0  0  0  0  0  0  0  0  0  0  0
   14.8756  -58.5052   35.0208 N   0  0  0  0  0  0  0  0  0  0  0  0
   14.5158  -57.6141   33.9799 C   0  0  0  0  0  0  0  0  0  0  0  0
   13.3622  -57.2694   33.6212 O   0  0  0  0  0  0  0  0  0  0  0  0
   15.7732  -57.1588   33.3858 C   0  0  0  0  0  0  0  0  0  0  0  0
   15.9543  -56.3619   32.4370 O   0  0  0  0  0  0  0  0  0  0  0  0
   16.8360  -57.8389   34.1428 C   0  0  0  0  0  0  0  0  0  0  0  0
   18.0495  -58.0797   33.7019 C   0  0  0  0  0  0  0  0  0  0  0  0
   18.9374  -58.6988   34.5907 O   0  0  0  0  0  0  0  0  0  0  0  0
   18.4815  -57.7310   32.3336 C   0  0  0  0  0  0  0  0  0  0  0  0
   18.2253  -58.3423   31.2155 O   0  0  0  0  0  0  0  0  0  0  0  0
   18.7808  -57.7335   30.1921 C   0  0  0  0  0  0  0  0  0  0  0  0
   19.4677  -56.6215   30.6512 C   0  0  0  0  0  0  0  0  0  0  0  0
   19.2644  -56.6365   32.0176 C   0  0  0  0  0  0  0  0  0  0  0  0
   20.1430  -55.8051   29.7700 C   0  0  0  0  0  0  0  0  0  0  0  0
   20.1666  -56.0508   28.4158 C   0  0  0  0  0  0  0  0  0  0  0  0
   19.4885  -57.1529   27.9433 C   0  0  0  0  0  0  0  0  0  0  0  0
   18.8044  -57.9814   28.8312 C   0  0  0  0  0  0  0  0  0  0  0  0
   18.2010  -53.3196   36.9363 Br  0  0  0  0  0  0  0  0  0  0  0  0
   17.0077  -54.8115   37.1634 C   0  0  0  0  0  0  0  0  0  0  0  0
   17.0382  -55.8815   36.2668 C   0  0  0  0  0  0  0  0  0  0  0  0
   16.2123  -56.9706   36.3807 C   0  0  0  0  0  0  0  0  0  0  0  0
   15.3189  -56.9547   37.4651 C   0  0  0  0  0  0  0  0  0  0  0  0
   15.2775  -55.9069   38.3553 C   0  0  0  0  0  0  0  0  0  0  0  0
   16.1194  -54.8257   38.2167 C   0  0  0  0  0  0  0  0  0  0  0  0
   14.0149  -59.5976   35.4695 C   0  0  0  0  0  0  0  0  0  0  0  0
   13.8215  -60.6115   34.3579 C   0  0  0  0  0  0  0  0  0  0  0  0
   15.0868  -61.3562   34.0229 C   0  0  0  0  0  0  0  0  0  0  0  0
   15.5879  -60.9110   32.7623 N   0  0  0  0  0  0  0  0  0  0  0  0
   16.9032  -61.4300   32.4525 C   0  0  0  0  0  0  0  0  0  0  0  0
   14.7399  -61.1719   31.6387 C   0  0  0  0  0  0  0  0  0  0  0  0
   15.7013  -59.8552   32.8252 H   0  0  0  0  0  0  0  0  0  0  0  0
 19 20  1  0  0  0
 20 21  2  0  0  0
 20 25  1  0  0  0
 21 22  1  0  0  0
 22 23  2  0  0  0
 22  1  1  0  0  0
 23 24  1  0  0  0
 24 25  2  0  0  0
  1  2  1  0  0  0
  1  7  1  0  0  0
  2  3  1  0  0  0
  2 26  1  0  0  0
  3  4  2  0  0  0
  3  5  1  0  0  0
  5  6  2  0  0  0
  5  7  1  0  0  0
  7  8  2  0  0  0
  8  9  1  0  0  0
  8 10  1  0  0  0
 10 11  1  0  0  0
 10 14  2  0  0  0
 11 12  1  0  0  0
 12 13  2  0  0  0
 12 18  1  0  0  0
 13 14  1  0  0  0
 13 15  1  0  0  0
 15 16  2  0  0  0
 16 17  1  0  0  0
 17 18  2  0  0  0
 26 27  1  0  0  0
 27 28  1  0  0  0
 28 29  1  0  0  0
 29 30  1  0  0  0
 29 31  1  0  0  0
 29 32  1  0  0  0
M  CHG 1   9  -1
M  CHG 1  29   1
M  END
> <minimizedAffinity>
-9.09899

$$$$
1314


 32 35  0  0  0  0  0  0  0  0999 V2000
   16.8420  -57.2396   33.0257 C   0  0  0  0  0  0  0  0  0  0  0  0
   17.2769  -57.8065   31.9419 N   0  0  0  0  0  0  0  0  0  0  0  0
   16.6335  -58.9046   31.7411 N   0  0  0  0  0  0  0  0  0  0  0  0
   15.6862  -59.1451   32.7274 N   0  0  0  0  0  0  0  0  0  0  0  0
   15.7859  -58.1212   33.5458 C   0  0  0  0  0  0  0  0  0  0  0  0
   14.9691  -60.3377   32.6440 C   0  0  0  0  0  0  0  0  0  0  0  0
   14.5330  -60.8419   31.4190 N   0  0  0  0  0  0  0  0  0  0  0  0
   13.8137  -61.8690   31.6413 O   0  0  0  0  0  0  0  0  0  0  0  0
   13.7182  -62.1202   32.8855 N   0  0  0  0  0  0  0  0  0  0  0  0
   14.4376  -61.1671   33.5427 C   0  0  0  0  0  0  0  0  0  0  0  0
   14.5062  -61.1693   34.9737 N   0  0  0  0  0  0  0  0  0  0  0  0
   15.1294  -61.8621   35.4121 H   0  0  0  0  0  0  0  0  0  0  0  0
   13.9130  -60.5534   35.5259 H   0  0  0  0  0  0  0  0  0  0  0  0
   18.6101  -56.3677   34.6918 N   0  0  0  0  0  0  0  0  0  0  0  0
   17.3614  -56.1866   33.7992 C   0  0  0  0  0  0  0  0  0  0  0  0
   16.8931  -55.0554   33.8603 O   0  0  0  0  0  0  0  0  0  0  0  0
   19.0359  -57.2888   34.6332 H   0  0  0  0  0  0  0  0  0  0  0  0
   19.2704  -54.2085   35.7299 C   0  0  0  0  0  0  0  0  0  0  0  0
   18.7156  -55.2390   35.3105 N   0  0  0  0  0  0  0  0  0  0  0  0
   20.1446  -51.3295   36.0628 Br  0  0  0  0  0  0  0  0  0  0  0  0
   18.6295  -52.1024   36.8818 C   0  0  0  0  0  0  0  0  0  0  0  0
   18.2492  -53.3800   36.5486 C   0  0  0  0  0  0  0  0  0  0  0  0
   17.2078  -53.9869   37.1192 C   0  0  0  0  0  0  0  0  0  0  0  0
   16.4424  -53.3141   38.1216 C   0  0  0  0  0  0  0  0  0  0  0  0
   16.8093  -52.0639   38.4907 C   0  0  0  0  0  0  0  0  0  0  0  0
   17.9023  -51.4433   37.8782 C   0  0  0  0  0  0  0  0  0  0  0  0
   15.0380  -57.5852   34.6796 C   0  0  0  0  0  0  0  0  0  0  0  0
   14.8281  -58.0698   35.9083 N   0  0  0  0  0  0  0  0  0  0  0  0
   15.9614  -57.7641   36.7698 C   0  0  0  0  0  0  0  0  0  0  0  0
   15.4019  -57.2382   38.0577 C   0  0  0  0  0  0  0  0  0  0  0  0
   13.8888  -57.2050   37.8678 C   0  0  0  0  0  0  0  0  0  0  0  0
   13.7252  -58.2120   36.7026 C   0  0  0  0  0  0  0  0  0  0  0  0
 20 21  1  0  0  0
 21 22  2  0  0  0
 21 26  1  0  0  0
 22 23  1  0  0  0
 22 18  1  0  0  0
 23 24  2  0  0  0
 24 25  1  0  0  0
 25 26  2  0  0  0
 18 19  2  0  0  0
 19 14  1  0  0  0
 14 15  1  0  0  0
 15 16  2  0  0  0
 15  1  1  0  0  0
  1  2  1  0  0  0
  1  5  2  0  0  0
  2  3  2  0  0  0
  3  4  1  0  0  0
  4  5  1  0  0  0
  4  6  1  0  0  0
  5 27  1  0  0  0
 27 28  1  0  0  0
 28 29  1  0  0  0
 28 32  1  0  0  0
 29 30  1  0  0  0
 30 31  1  0  0  0
 31 32  1  0  0  0
  6  7  2  0  0  0
  6 10  1  0  0  0
  7  8  1  0  0  0
  8  9  1  0  0  0
  9 10  2  0  0  0
 10 11  1  0  0  0
 14 17  1  0  0  0
 11 12  1  0  0  0
 11 13  1  0  0  0
M  END
> <minimizedAffinity>
-9.36786

$$$$
1315


 30 33  0  0  0  0  0  0  0  0999 V2000
   19.2809  -55.2262   33.8504 N   0  0  0  0  0  0  0  0  0  0  0  0
   18.2294  -56.1067   33.9104 C   0  0  0  0  0  0  0  0  0  0  0  0
   17.8844  -56.3852   32.6197 C   0  0  0  0  0  0  0  0  0  0  0  0
   16.8257  -57.2624   32.3665 C   0  0  0  0  0  0  0  0  0  0  0  0
   16.1480  -57.8316   33.4236 C   0  0  0  0  0  0  0  0  0  0  0  0
   16.4947  -57.5534   34.7277 C   0  0  0  0  0  0  0  0  0  0  0  0
   17.5545  -56.6755   34.9690 C   0  0  0  0  0  0  0  0  0  0  0  0
   18.7138  -55.6896   31.8111 N   0  0  0  0  0  0  0  0  0  0  0  0
   19.5725  -54.9791   32.5454 C   0  0  0  0  0  0  0  0  0  0  0  0
   20.5723  -54.2623   32.0830 N   0  0  0  0  0  0  0  0  0  0  0  0
   20.7397  -54.1099   31.0922 H   0  0  0  0  0  0  0  0  0  0  0  0
   21.2375  -53.8589   32.7574 H   0  0  0  0  0  0  0  0  0  0  0  0
   19.9868  -54.7241   35.0096 C   0  0  0  0  0  0  0  0  0  0  0  0
   19.5431  -53.3948   35.4477 C   0  0  0  0  0  0  0  0  0  0  0  0
   20.0950  -52.3769   34.8268 O   0  0  0  0  0  0  0  0  0  0  0  0
   15.4203  -54.5559   38.7006 Br  0  0  0  0  0  0  0  0  0  0  0  0
   16.7655  -53.3765   37.9614 C   0  0  0  0  0  0  0  0  0  0  0  0
   17.6261  -53.8111   36.9947 C   0  0  0  0  0  0  0  0  0  0  0  0
   18.5903  -53.0083   36.4559 C   0  0  0  0  0  0  0  0  0  0  0  0
   18.6521  -51.6975   36.9538 C   0  0  0  0  0  0  0  0  0  0  0  0
   17.8077  -51.2262   37.9207 C   0  0  0  0  0  0  0  0  0  0  0  0
   16.8568  -52.0831   38.4234 C   0  0  0  0  0  0  0  0  0  0  0  0
   18.6395  -55.7969   30.3643 C   0  0  0  0  0  0  0  0  0  0  0  0
   19.5912  -56.7293   29.7358 C   0  0  0  0  0  0  0  0  0  0  0  0
   20.2496  -56.3523   28.5371 N   0  0  0  0  0  0  0  0  0  0  0  0
   20.8311  -57.5438   27.8674 C   0  0  0  0  0  0  0  0  0  0  0  0
   21.7563  -58.2977   28.7653 C   0  0  0  0  0  0  0  0  0  0  0  0
   22.8685  -57.4823   28.9811 O   0  0  0  0  0  0  0  0  0  0  0  0
   22.5172  -56.2755   29.5327 C   0  0  0  0  0  0  0  0  0  0  0  0
   21.4414  -55.5264   28.7935 C   0  0  0  0  0  0  0  0  0  0  0  0
 16 17  1  0  0  0
 17 18  2  0  0  0
 17 22  1  0  0  0
 18 19  1  0  0  0
 19 20  2  0  0  0
 19 14  1  0  0  0
 20 21  1  0  0  0
 21 22  2  0  0  0
 14 15  2  0  0  0
 14 13  1  0  0  0
 13  1  1  0  0  0
  1  2  1  0  0  0
  1  9  1  0  0  0
  2  3  1  0  0  0
  2  7  2  0  0  0
  3  4  2  0  0  0
  3  8  1  0  0  0
  4  5  1  0  0  0
  5  6  2  0  0  0
  6  7  1  0  0  0
  8  9  1  0  0  0
  8 23  1  0  0  0
  9 10  2  0  0  0
 23 24  1  0  0  0
 24 25  1  0  0  0
 25 26  1  0  0  0
 25 30  1  0  0  0
 26 27  1  0  0  0
 27 28  1  0  0  0
 28 29  1  0  0  0
 29 30  1  0  0  0
 10 11  1  0  0  0
 10 12  1  0  0  0
M  END
> <minimizedAffinity>
-9.02079

$$$$
1325


 31 34  0  0  0  0  0  0  0  0999 V2000
   16.2231  -56.1871   34.2958 C   0  0  0  0  0  0  0  0  0  0  0  0
   17.0093  -55.7224   35.4003 N   0  0  0  0  0  0  0  0  0  0  0  0
   17.8782  -54.7161   34.8001 C   0  0  0  0  0  0  0  0  0  0  0  0
   18.4025  -53.7470   35.3915 O   0  0  0  0  0  0  0  0  0  0  0  0
   18.0234  -55.0469   33.3948 C   0  0  0  0  0  0  0  0  0  0  0  0
   18.6848  -54.4453   32.4970 O   0  0  0  0  0  0  0  0  0  0  0  0
   17.2248  -56.2604   33.1938 C   0  0  0  0  0  0  0  0  0  0  0  0
   17.3792  -57.1302   32.2341 C   0  0  0  0  0  0  0  0  0  0  0  0
   16.4863  -58.2064   32.1612 O   0  0  0  0  0  0  0  0  0  0  0  0
   18.4659  -57.0065   31.2424 C   0  0  0  0  0  0  0  0  0  0  0  0
   18.3726  -56.3847   30.0723 O   0  0  0  0  0  0  0  0  0  0  0  0
   19.4976  -56.4415   29.4078 C   0  0  0  0  0  0  0  0  0  0  0  0
   20.4350  -57.1392   30.1402 C   0  0  0  0  0  0  0  0  0  0  0  0
   19.7532  -57.4838   31.2953 C   0  0  0  0  0  0  0  0  0  0  0  0
   21.7065  -57.3346   29.6496 C   0  0  0  0  0  0  0  0  0  0  0  0
   22.1163  -56.8591   28.4233 C   0  0  0  0  0  0  0  0  0  0  0  0
   21.1795  -56.1599   27.6840 C   0  0  0  0  0  0  0  0  0  0  0  0
   19.9035  -55.9554   28.1608 C   0  0  0  0  0  0  0  0  0  0  0  0
   12.4673  -61.0834   34.7877 Br  0  0  0  0  0  0  0  0  0  0  0  0
   13.6384  -59.5739   34.6470 C   0  0  0  0  0  0  0  0  0  0  0  0
   13.2300  -58.3927   34.0793 C   0  0  0  0  0  0  0  0  0  0  0  0
   14.0878  -57.3263   33.9915 C   0  0  0  0  0  0  0  0  0  0  0  0
   15.4124  -57.3667   34.4639 C   0  0  0  0  0  0  0  0  0  0  0  0
   15.7962  -58.5463   35.0222 C   0  0  0  0  0  0  0  0  0  0  0  0
   14.9324  -59.6210   35.1116 C   0  0  0  0  0  0  0  0  0  0  0  0
   17.0052  -56.0195   36.8154 C   0  0  0  0  0  0  0  0  0  0  0  0
   16.1942  -55.1717   37.7018 C   0  0  0  0  0  0  0  0  0  0  0  0
   16.7995  -53.9628   38.1963 N   0  0  0  0  0  0  0  0  0  0  0  0
   15.8894  -53.1656   38.9687 C   0  0  0  0  0  0  0  0  0  0  0  0
   18.0993  -54.1319   38.7809 C   0  0  0  0  0  0  0  0  0  0  0  0
   16.9681  -53.3823   37.3040 H   0  0  0  0  0  0  0  0  0  0  0  0
 19 20  1  0  0  0
 20 21  2  0  0  0
 20 25  1  0  0  0
 21 22  1  0  0  0
 22 23  2  0  0  0
 23 24  1  0  0  0
 23  1  1  0  0  0
 24 25  2  0  0  0
  1  2  1  0  0  0
  1  7  1  0  0  0
  2  3  1  0  0  0
  2 26  1  0  0  0
  3  4  2  0  0  0
  3  5  1  0  0  0
  5  6  2  0  0  0
  5  7  1  0  0  0
  7  8  2  0  0  0
  8  9  1  0  0  0
  8 10  1  0  0  0
 10 11  1  0  0  0
 10 14  2  0  0  0
 11 12  1  0  0  0
 12 13  2  0  0  0
 12 18  1  0  0  0
 13 14  1  0  0  0
 13 15  1  0  0  0
 15 16  2  0  0  0
 16 17  1  0  0  0
 17 18  2  0  0  0
 26 27  1  0  0  0
 27 28  1  0  0  0
 28 29  1  0  0  0
 28 30  1  0  0  0
 28 31  1  0  0  0
M  CHG 1   9  -1
M  CHG 1  28   1
M  END
> <minimizedAffinity>
-8.51045

$$$$
1329


 28 31  0  0  0  0  0  0  0  0999 V2000
   15.4400  -54.9453   38.7022 C   0  0  0  0  0  0  0  0  0  0  0  0
   16.3538  -54.1615   38.1269 C   0  0  0  0  0  0  0  0  0  0  0  0
   17.1926  -54.4880   37.0632 O   0  0  0  0  0  0  0  0  0  0  0  0
   17.9943  -53.4289   36.7366 C   0  0  0  0  0  0  0  0  0  0  0  0
   17.7268  -52.3478   37.5694 C   0  0  0  0  0  0  0  0  0  0  0  0
   18.4458  -51.1787   37.3773 C   0  0  0  0  0  0  0  0  0  0  0  0
   19.3948  -51.1041   36.3834 C   0  0  0  0  0  0  0  0  0  0  0  0
   19.6366  -52.2112   35.5662 C   0  0  0  0  0  0  0  0  0  0  0  0
   18.9416  -53.3795   35.7352 C   0  0  0  0  0  0  0  0  0  0  0  0
   20.6112  -52.0359   34.5960 O   0  0  0  0  0  0  0  0  0  0  0  0
   16.6638  -52.7815   38.4920 C   0  0  0  0  0  0  0  0  0  0  0  0
   16.1642  -52.0660   39.3984 O   0  0  0  0  0  0  0  0  0  0  0  0
   12.3881  -59.3181   38.7611 Br  0  0  0  0  0  0  0  0  0  0  0  0
   13.9191  -58.3228   38.1991 C   0  0  0  0  0  0  0  0  0  0  0  0
   14.1121  -57.0163   38.6398 C   0  0  0  0  0  0  0  0  0  0  0  0
   15.2194  -56.3013   38.2402 C   0  0  0  0  0  0  0  0  0  0  0  0
   16.1468  -56.8699   37.4017 C   0  0  0  0  0  0  0  0  0  0  0  0
   15.9413  -58.1616   36.9772 C   0  0  0  0  0  0  0  0  0  0  0  0
   14.8474  -58.9085   37.3522 C   0  0  0  0  0  0  0  0  0  0  0  0
   19.2882  -54.5349   34.9058 C   0  0  0  0  0  0  0  0  0  0  0  0
   18.2087  -55.2191   34.2925 N   0  0  0  0  0  0  0  0  0  0  0  0
   18.4144  -56.6472   34.4699 C   0  0  0  0  0  0  0  0  0  0  0  0
   18.0344  -57.4925   33.3036 C   0  0  0  0  0  0  0  0  0  0  0  0
   18.5468  -57.0666   32.0489 N   0  0  0  0  0  0  0  0  0  0  0  0
   19.0486  -55.7329   32.1020 C   0  0  0  0  0  0  0  0  0  0  0  0
   18.1220  -54.8732   32.8937 C   0  0  0  0  0  0  0  0  0  0  0  0
   17.5379  -57.2328   31.0238 C   0  0  0  0  0  0  0  0  0  0  0  0
   17.2632  -54.9464   34.6981 H   0  0  0  0  0  0  0  0  0  0  0  0
 13 14  1  0  0  0
 14 15  2  0  0  0
 14 19  1  0  0  0
 15 16  1  0  0  0
 16 17  2  0  0  0
 16  1  1  0  0  0
 17 18  1  0  0  0
 18 19  2  0  0  0
  1  2  2  0  0  0
  2  3  1  0  0  0
  2 11  1  0  0  0
  3  4  1  0  0  0
  4  5  2  0  0  0
  4  9  1  0  0  0
  5  6  1  0  0  0
  5 11  1  0  0  0
  6  7  2  0  0  0
  7  8  1  0  0  0
  8  9  2  0  0  0
  8 10  1  0  0  0
  9 20  1  0  0  0
 20 21  1  0  0  0
 21 22  1  0  0  0
 21 26  1  0  0  0
 22 23  1  0  0  0
 23 24  1  0  0  0
 24 25  1  0  0  0
 24 27  1  0  0  0
 25 26  1  0  0  0
 11 12  2  0  0  0
 21 28  1  0  0  0
M  CHG 1  10  -1
M  CHG 1  21   1
M  END
> <minimizedAffinity>
-11.21117

$$$$
1337


 32 35  0  0  0  0  0  0  0  0999 V2000
   15.3919  -57.2027   38.3012 N   0  0  0  0  0  0  0  0  0  0  0  0
   14.4740  -57.7078   37.3471 C   0  0  0  0  0  0  0  0  0  0  0  0
   13.3063  -57.2327   37.3465 O   0  0  0  0  0  0  0  0  0  0  0  0
   16.3583  -57.5923   38.3065 H   0  0  0  0  0  0  0  0  0  0  0  0
   14.9017  -58.7635   36.3913 C   0  0  0  0  0  0  0  0  0  0  0  0
   16.0253  -58.3599   35.7736 O   0  0  0  0  0  0  0  0  0  0  0  0
   16.2951  -58.8417   34.5316 C   0  0  0  0  0  0  0  0  0  0  0  0
   17.2907  -58.0314   33.9667 O   0  0  0  0  0  0  0  0  0  0  0  0
   16.6624  -56.9973   33.3170 C   0  0  0  0  0  0  0  0  0  0  0  0
   15.3063  -57.2542   33.2809 O   0  0  0  0  0  0  0  0  0  0  0  0
   15.1723  -58.6377   33.5418 C   0  0  0  0  0  0  0  0  0  0  0  0
   13.8474  -58.9781   34.1066 C   0  0  0  0  0  0  0  0  0  0  0  0
   13.3280  -60.1587   33.5277 O   0  0  0  0  0  0  0  0  0  0  0  0
   12.7800  -60.9063   34.5389 C   0  0  0  0  0  0  0  0  0  0  0  0
   13.5320  -60.5933   35.6412 O   0  0  0  0  0  0  0  0  0  0  0  0
   13.7645  -59.2127   35.5527 C   0  0  0  0  0  0  0  0  0  0  0  0
   12.9499  -62.3785   34.1441 C   0  0  0  0  0  0  0  0  0  0  0  0
   11.3005  -60.6864   34.7161 C   0  0  0  0  0  0  0  0  0  0  0  0
   17.1219  -56.8740   31.8637 C   0  0  0  0  0  0  0  0  0  0  0  0
   16.9358  -55.6501   33.9656 C   0  0  0  0  0  0  0  0  0  0  0  0
   15.0642  -56.1879   39.2579 C   0  0  0  0  0  0  0  0  0  0  0  0
   16.8690  -54.8249   38.1071 N   0  0  0  0  0  0  0  0  0  0  0  0
   15.7215  -54.8999   38.9166 C   0  0  0  0  0  0  0  0  0  0  0  0
   15.2005  -53.8693   39.3873 O   0  0  0  0  0  0  0  0  0  0  0  0
   17.2362  -55.7683   37.7546 H   0  0  0  0  0  0  0  0  0  0  0  0
   20.2309  -50.0771   36.1734 Br  0  0  0  0  0  0  0  0  0  0  0  0
   19.1413  -51.5181   36.8109 C   0  0  0  0  0  0  0  0  0  0  0  0
   19.4623  -52.8048   36.4395 C   0  0  0  0  0  0  0  0  0  0  0  0
   18.6915  -53.8528   36.8866 C   0  0  0  0  0  0  0  0  0  0  0  0
   17.5837  -53.7002   37.7087 C   0  0  0  0  0  0  0  0  0  0  0  0
   17.2894  -52.4028   38.0623 C   0  0  0  0  0  0  0  0  0  0  0  0
   18.0644  -51.3216   37.6152 C   0  0  0  0  0  0  0  0  0  0  0  0
 26 27  1  0  0  0
 27 28  2  0  0  0
 27 32  1  0  0  0
 28 29  1  0  0  0
 29 30  2  0  0  0
 30 31  1  0  0  0
 30 22  1  0  0  0
 31 32  2  0  0  0
 22 23  1  0  0  0
 23 24  2  0  0  0
 23 21  1  0  0  0
 21  1  1  0  0  0
  1  2  1  0  0  0
  2  3  2  0  0  0
  2  5  1  0  0  0
  5  6  1  0  0  0
  5 16  1  0  0  0
  6  7  1  0  0  0
  7  8  1  0  0  0
  7 11  1  0  0  0
  8  9  1  0  0  0
  9 10  1  0  0  0
  9 19  1  0  0  0
  9 20  1  0  0  0
 10 11  1  0  0  0
 11 12  1  0  0  0
 12 13  1  0  0  0
 12 16  1  0  0  0
 13 14  1  0  0  0
 14 15  1  0  0  0
 14 17  1  0  0  0
 14 18  1  0  0  0
 15 16  1  0  0  0
 22 25  1  0  0  0
  1  4  1  0  0  0
M  END
> <minimizedAffinity>
-10.17580

$$$$
1341


 28 31  0  0  0  0  0  0  0  0999 V2000
   17.3432  -54.8640   36.7780 C   0  0  0  0  0  0  0  0  0  0  0  0
   16.4242  -55.2664   37.6867 N   0  0  0  0  0  0  0  0  0  0  0  0
   16.0436  -56.5250   37.3851 C   0  0  0  0  0  0  0  0  0  0  0  0
   16.6980  -56.9619   36.2875 N   0  0  0  0  0  0  0  0  0  0  0  0
   17.4955  -55.9325   35.9220 C   0  0  0  0  0  0  0  0  0  0  0  0
   15.0346  -56.9933   38.3692 C   0  0  0  0  0  0  0  0  0  0  0  0
   14.7646  -55.8378   39.2700 C   0  0  0  0  0  0  0  0  0  0  0  0
   15.7278  -54.7866   38.8596 C   0  0  0  0  0  0  0  0  0  0  0  0
   20.3441  -49.6344   36.2653 Cl  0  0  0  0  0  0  0  0  0  0  0  0
   19.4685  -51.1521   36.4180 C   0  0  0  0  0  0  0  0  0  0  0  0
   19.8039  -52.2550   35.6632 C   0  0  0  0  0  0  0  0  0  0  0  0
   19.1111  -53.4459   35.7868 C   0  0  0  0  0  0  0  0  0  0  0  0
   18.0565  -53.5929   36.6662 C   0  0  0  0  0  0  0  0  0  0  0  0
   17.7196  -52.4911   37.4242 C   0  0  0  0  0  0  0  0  0  0  0  0
   18.4179  -51.2840   37.3016 C   0  0  0  0  0  0  0  0  0  0  0  0
   16.5907  -58.2461   35.6259 C   0  0  0  0  0  0  0  0  0  0  0  0
   17.4047  -58.2427   34.3771 C   0  0  0  0  0  0  0  0  0  0  0  0
   18.5324  -58.7379   34.4221 O   0  0  0  0  0  0  0  0  0  0  0  0
   16.8407  -57.6783   33.2314 N   0  0  0  0  0  0  0  0  0  0  0  0
   15.8514  -57.2593   33.2503 H   0  0  0  0  0  0  0  0  0  0  0  0
   17.4807  -57.6047   31.9667 C   0  0  0  0  0  0  0  0  0  0  0  0
   18.0015  -56.3746   31.5444 C   0  0  0  0  0  0  0  0  0  0  0  0
   18.6033  -56.2641   30.3321 C   0  0  0  0  0  0  0  0  0  0  0  0
   18.7203  -57.3540   29.4851 C   0  0  0  0  0  0  0  0  0  0  0  0
   18.2087  -58.5487   29.9052 C   0  0  0  0  0  0  0  0  0  0  0  0
   17.5824  -58.6943   31.1494 C   0  0  0  0  0  0  0  0  0  0  0  0
   19.3831  -57.2091   28.1644 C   0  0  0  0  0  0  0  0  0  0  0  0
   20.1757  -55.8983   28.1713 C   0  0  0  0  0  0  0  0  0  0  0  0
  9 10  1  0  0  0
 10 11  2  0  0  0
 10 15  1  0  0  0
 11 12  1  0  0  0
 12 13  2  0  0  0
 13 14  1  0  0  0
 13  1  1  0  0  0
 14 15  2  0  0  0
  1  2  1  0  0  0
  1  5  2  0  0  0
  2  3  1  0  0  0
  2  8  1  0  0  0
  3  4  2  0  0  0
  3  6  1  0  0  0
  4  5  1  0  0  0
  4 16  1  0  0  0
 16 17  1  0  0  0
 17 18  2  0  0  0
 17 19  1  0  0  0
 19 21  1  0  0  0
 21 22  2  0  0  0
 21 26  1  0  0  0
 22 23  1  0  0  0
 23 24  2  0  0  0
 24 25  1  0  0  0
 24 27  1  0  0  0
 25 26  2  0  0  0
 27 28  1  0  0  0
  6  7  1  0  0  0
  7  8  1  0  0  0
 19 20  1  0  0  0
M  END
> <minimizedAffinity>
-9.63127

$$$$
1343


 41 44  0  0  0  0  0  0  0  0999 V2000
   15.3210  -58.2957   36.1454 C   0  0  0  0  0  0  0  0  0  0  0  0
   14.3008  -59.1853   36.2537 N   0  0  0  0  0  0  0  0  0  0  0  0
   14.1502  -59.8210   35.0631 C   0  0  0  0  0  0  0  0  0  0  0  0
   13.3222  -60.7696   34.6107 N   0  0  0  0  0  0  0  0  0  0  0  0
   13.3882  -61.2368   33.3506 C   0  0  0  0  0  0  0  0  0  0  0  0
   14.3209  -60.7310   32.5145 N   0  0  0  0  0  0  0  0  0  0  0  0
   15.1757  -59.7879   32.8945 C   0  0  0  0  0  0  0  0  0  0  0  0
   15.1035  -59.3133   34.1893 C   0  0  0  0  0  0  0  0  0  0  0  0
   15.7760  -58.4081   34.8791 N   0  0  0  0  0  0  0  0  0  0  0  0
   16.1523  -59.2452   32.0531 O   0  0  0  0  0  0  0  0  0  0  0  0
   12.4918  -62.2552   32.8821 N   0  0  0  0  0  0  0  0  0  0  0  0
   17.0388  -59.7350   32.0266 H   0  0  0  0  0  0  0  0  0  0  0  0
   11.8544  -62.1447   32.0867 H   0  0  0  0  0  0  0  0  0  0  0  0
   12.5073  -63.1586   33.4007 H   0  0  0  0  0  0  0  0  0  0  0  0
   13.5176  -59.4118   37.4289 C   0  0  0  0  0  0  0  0  0  0  0  0
   12.9032  -60.6557   37.4670 O   0  0  0  0  0  0  0  0  0  0  0  0
   11.8341  -60.5873   38.3134 C   0  0  0  0  0  0  0  0  0  0  0  0
   11.5376  -59.1641   38.6413 C   0  0  0  0  0  0  0  0  0  0  0  0
   12.3902  -58.4172   37.6136 C   0  0  0  0  0  0  0  0  0  0  0  0
   12.8444  -57.2078   38.1383 O   0  0  0  0  0  0  0  0  0  0  0  0
   12.0879  -58.8262   39.8946 O   0  0  0  0  0  0  0  0  0  0  0  0
   12.7116  -56.4803   37.4769 H   0  0  0  0  0  0  0  0  0  0  0  0
   11.6020  -58.0827   40.3116 H   0  0  0  0  0  0  0  0  0  0  0  0
   10.6142  -61.1629   37.5914 C   0  0  0  0  0  0  0  0  0  0  0  0
   10.9756  -61.5870   36.3078 O   0  0  0  0  0  0  0  0  0  0  0  0
   11.8780  -61.2590   36.0604 H   0  0  0  0  0  0  0  0  0  0  0  0
   15.7961  -57.4326   37.1709 N   0  0  0  0  0  0  0  0  0  0  0  0
   15.4488  -57.5516   38.1353 H   0  0  0  0  0  0  0  0  0  0  0  0
   16.7496  -55.2754   37.2997 C   0  0  0  0  0  0  0  0  0  0  0  0
   16.7330  -56.4455   36.8084 N   0  0  0  0  0  0  0  0  0  0  0  0
   16.5006  -52.7605   39.0423 Br  0  0  0  0  0  0  0  0  0  0  0  0
   17.7361  -53.0343   37.6235 C   0  0  0  0  0  0  0  0  0  0  0  0
   17.7062  -54.2330   36.9440 C   0  0  0  0  0  0  0  0  0  0  0  0
   18.6195  -54.3872   35.9232 C   0  0  0  0  0  0  0  0  0  0  0  0
   19.5250  -53.4041   35.5834 C   0  0  0  0  0  0  0  0  0  0  0  0
   19.5552  -52.2049   36.2637 C   0  0  0  0  0  0  0  0  0  0  0  0
   18.6494  -52.0312   37.2883 C   0  0  0  0  0  0  0  0  0  0  0  0
   20.4442  -53.5682   34.5517 O   0  0  0  0  0  0  0  0  0  0  0  0
   20.1142  -53.9277   33.2476 C   0  0  0  0  0  0  0  0  0  0  0  0
   20.4741  -51.2141   35.9152 O   0  0  0  0  0  0  0  0  0  0  0  0
   20.2254  -49.8491   36.0666 C   0  0  0  0  0  0  0  0  0  0  0  0
 31 32  1  0  0  0
 32 33  2  0  0  0
 32 37  1  0  0  0
 33 34  1  0  0  0
 33 29  1  0  0  0
 34 35  2  0  0  0
 35 36  1  0  0  0
 35 38  1  0  0  0
 36 37  2  0  0  0
 36 40  1  0  0  0
 40 41  1  0  0  0
 38 39  1  0  0  0
 29 30  2  0  0  0
 30 27  1  0  0  0
 27  1  1  0  0  0
  1  2  1  0  0  0
  1  9  2  0  0  0
  2  3  1  0  0  0
  2 15  1  0  0  0
  3  4  2  0  0  0
  3  8  1  0  0  0
  4  5  1  0  0  0
  5  6  2  0  0  0
  5 11  1  0  0  0
  6  7  1  0  0  0
  7  8  2  0  0  0
  7 10  1  0  0  0
  8  9  1  0  0  0
 15 16  1  0  0  0
 15 19  1  0  0  0
 16 17  1  0  0  0
 17 18  1  0  0  0
 17 24  1  0  0  0
 18 19  1  0  0  0
 18 21  1  0  0  0
 19 20  1  0  0  0
 24 25  1  0  0  0
 27 28  1  0  0  0
 10 12  1  0  0  0
 11 13  1  0  0  0
 11 14  1  0  0  0
 20 22  1  0  0  0
 21 23  1  0  0  0
 25 26  1  0  0  0
M  END
> <minimizedAffinity>
-9.47591

$$$$
1355


 27 30  0  0  0  0  0  0  0  0999 V2000
   18.6348  -55.1366   32.2970 N   0  0  0  0  0  0  0  0  0  0  0  0
   18.9063  -56.1332   31.3431 C   0  0  0  0  0  0  0  0  0  0  0  0
   20.0837  -56.3170   30.9633 O   0  0  0  0  0  0  0  0  0  0  0  0
   17.6546  -54.9884   32.6092 H   0  0  0  0  0  0  0  0  0  0  0  0
   17.8171  -56.9542   30.7932 C   0  0  0  0  0  0  0  0  0  0  0  0
   18.3377  -58.1688   30.0475 C   0  0  0  0  0  0  0  0  0  0  0  0
   17.2279  -59.0881   29.6614 C   0  0  0  0  0  0  0  0  0  0  0  0
   16.9240  -60.1635   30.6526 C   0  0  0  0  0  0  0  0  0  0  0  0
   17.2604  -59.7453   32.0807 C   0  0  0  0  0  0  0  0  0  0  0  0
   16.5577  -58.5109   32.3447 N   0  0  0  0  0  0  0  0  0  0  0  0
   15.5648  -58.4097   33.1875 N   0  0  0  0  0  0  0  0  0  0  0  0
   15.1478  -57.1680   33.1978 N   0  0  0  0  0  0  0  0  0  0  0  0
   15.8950  -56.4909   32.3477 N   0  0  0  0  0  0  0  0  0  0  0  0
   16.7986  -57.3157   31.7904 C   0  0  0  0  0  0  0  0  0  0  0  0
   19.6939  -54.3139   32.8520 C   0  0  0  0  0  0  0  0  0  0  0  0
   18.5593  -53.9244   36.3162 C   0  0  0  0  0  0  0  0  0  0  0  0
   19.8930  -54.0085   36.4511 N   0  0  0  0  0  0  0  0  0  0  0  0
   20.4437  -54.1540   35.2643 O   0  0  0  0  0  0  0  0  0  0  0  0
   19.5153  -54.1686   34.3417 C   0  0  0  0  0  0  0  0  0  0  0  0
   18.3403  -54.0255   34.9933 N   0  0  0  0  0  0  0  0  0  0  0  0
   18.2913  -51.1788   37.4698 Cl  0  0  0  0  0  0  0  0  0  0  0  0
   17.3411  -52.5485   37.9915 C   0  0  0  0  0  0  0  0  0  0  0  0
   17.5677  -53.7598   37.3736 C   0  0  0  0  0  0  0  0  0  0  0  0
   16.8035  -54.8169   37.8067 C   0  0  0  0  0  0  0  0  0  0  0  0
   15.8597  -54.6950   38.8011 C   0  0  0  0  0  0  0  0  0  0  0  0
   15.6454  -53.4560   39.4173 C   0  0  0  0  0  0  0  0  0  0  0  0
   16.3968  -52.3864   39.0003 C   0  0  0  0  0  0  0  0  0  0  0  0
 21 22  1  0  0  0
 22 23  2  0  0  0
 22 27  1  0  0  0
 23 24  1  0  0  0
 23 16  1  0  0  0
 24 25  2  0  0  0
 25 26  1  0  0  0
 26 27  2  0  0  0
 16 17  2  0  0  0
 16 20  1  0  0  0
 17 18  1  0  0  0
 18 19  1  0  0  0
 19 20  2  0  0  0
 19 15  1  0  0  0
 15  1  1  0  0  0
  1  2  1  0  0  0
  2  3  2  0  0  0
  2  5  1  0  0  0
  5  6  1  0  0  0
  5 14  1  0  0  0
  6  7  1  0  0  0
  7  8  1  0  0  0
  8  9  1  0  0  0
  9 10  1  0  0  0
 10 11  1  0  0  0
 10 14  1  0  0  0
 11 12  2  0  0  0
 12 13  1  0  0  0
 13 14  2  0  0  0
  1  4  1  0  0  0
M  END
> <minimizedAffinity>
-9.58141

$$$$
1357


 24 27  0  0  0  0  0  0  0  0999 V2000
   16.1151  -56.7852   33.9695 C   0  0  0  0  0  0  0  0  0  0  0  0
   15.5138  -57.9661   33.5306 C   0  0  0  0  0  0  0  0  0  0  0  0
   15.8957  -59.3945   33.3594 C   0  0  0  0  0  0  0  0  0  0  0  0
   15.3498  -59.8157   34.6741 N   0  0  0  0  0  0  0  0  0  0  0  0
   15.6318  -58.8889   35.5353 C   0  0  0  0  0  0  0  0  0  0  0  0
   16.3547  -57.8703   34.8407 C   0  0  0  0  0  0  0  0  0  0  0  0
   15.2727  -58.9013   36.9351 N   0  0  0  0  0  0  0  0  0  0  0  0
   15.1032  -59.9371   32.3418 O   0  0  0  0  0  0  0  0  0  0  0  0
   15.9560  -60.5736   31.4610 C   0  0  0  0  0  0  0  0  0  0  0  0
   17.1506  -60.8959   32.3427 C   0  0  0  0  0  0  0  0  0  0  0  0
   17.1721  -59.7193   33.1321 O   0  0  0  0  0  0  0  0  0  0  0  0
   15.2668  -59.7848   37.4795 H   0  0  0  0  0  0  0  0  0  0  0  0
   15.0133  -58.0239   37.4230 H   0  0  0  0  0  0  0  0  0  0  0  0
   17.8633  -54.4753   35.3024 Br  0  0  0  0  0  0  0  0  0  0  0  0
   18.0018  -55.1987   33.5414 C   0  0  0  0  0  0  0  0  0  0  0  0
   17.1761  -56.2043   33.1064 C   0  0  0  0  0  0  0  0  0  0  0  0
   17.3096  -56.7055   31.8333 C   0  0  0  0  0  0  0  0  0  0  0  0
   18.2697  -56.2162   30.9580 C   0  0  0  0  0  0  0  0  0  0  0  0
   19.1074  -55.2093   31.3731 C   0  0  0  0  0  0  0  0  0  0  0  0
   18.9641  -54.7055   32.6707 C   0  0  0  0  0  0  0  0  0  0  0  0
   17.7826  -58.3038   34.7704 C   0  0  0  0  0  0  0  0  0  0  0  0
   18.9212  -58.6230   34.7239 N   0  0  0  0  0  0  0  0  0  0  0  0
   14.0213  -57.9583   33.7368 C   0  0  0  0  0  0  0  0  0  0  0  0
   12.8483  -57.9546   33.8769 N   0  0  0  0  0  0  0  0  0  0  0  0
 14 15  1  0  0  0
 15 16  2  0  0  0
 15 20  1  0  0  0
 16 17  1  0  0  0
 16  1  1  0  0  0
 17 18  2  0  0  0
 18 19  1  0  0  0
 19 20  2  0  0  0
  1  2  1  0  0  0
  1  6  1  0  0  0
  2  3  1  0  0  0
  2  6  1  0  0  0
  2 23  1  0  0  0
  3  4  1  0  0  0
  3  8  1  0  0  0
  3 11  1  0  0  0
  4  5  2  0  0  0
  5  6  1  0  0  0
  5  7  1  0  0  0
  6 21  1  0  0  0
 21 22  3  0  0  0
  8  9  1  0  0  0
  9 10  1  0  0  0
 10 11  1  0  0  0
 23 24  3  0  0  0
  7 12  1  0  0  0
  7 13  1  0  0  0
M  END
> <minimizedAffinity>
-7.48273

$$$$
1360


 34 37  0  0  0  0  0  0  0  0999 V2000
   15.9489  -58.1906   33.0620 C   0  0  0  0  0  0  0  0  0  0  0  0
   16.5711  -59.2313   32.2854 N   0  0  0  0  0  0  0  0  0  0  0  0
   16.5771  -60.3527   33.2525 C   0  0  0  0  0  0  0  0  0  0  0  0
   17.0134  -61.4945   32.5463 N   0  0  0  0  0  0  0  0  0  0  0  0
   17.3947  -61.0752   31.2326 C   0  0  0  0  0  0  0  0  0  0  0  0
   17.1204  -59.7124   31.1014 C   0  0  0  0  0  0  0  0  0  0  0  0
   17.4129  -59.0896   29.9062 C   0  0  0  0  0  0  0  0  0  0  0  0
   17.1572  -57.8617   29.8120 O   0  0  0  0  0  0  0  0  0  0  0  0
   17.9492  -59.7973   28.9051 N   0  0  0  0  0  0  0  0  0  0  0  0
   18.1983  -61.0869   29.0574 C   0  0  0  0  0  0  0  0  0  0  0  0
   18.7043  -61.7173   28.0894 O   0  0  0  0  0  0  0  0  0  0  0  0
   17.9303  -61.7604   30.2183 N   0  0  0  0  0  0  0  0  0  0  0  0
   18.2528  -63.1689   30.2560 C   0  0  0  0  0  0  0  0  0  0  0  0
   18.2444  -59.0954   27.6514 C   0  0  0  0  0  0  0  0  0  0  0  0
   17.1145  -62.8514   33.0186 C   0  0  0  0  0  0  0  0  0  0  0  0
   15.2506  -60.3020   33.8851 C   0  0  0  0  0  0  0  0  0  0  0  0
   14.6705  -58.9469   33.4571 C   0  0  0  0  0  0  0  0  0  0  0  0
   16.7033  -57.8752   34.2533 C   0  0  0  0  0  0  0  0  0  0  0  0
   17.3297  -58.8979   34.7623 O   0  0  0  0  0  0  0  0  0  0  0  0
   17.4775  -52.7302   37.4919 Br  0  0  0  0  0  0  0  0  0  0  0  0
   17.2296  -54.3216   36.4737 C   0  0  0  0  0  0  0  0  0  0  0  0
   17.4039  -54.3188   35.0980 C   0  0  0  0  0  0  0  0  0  0  0  0
   17.2303  -55.4541   34.3459 C   0  0  0  0  0  0  0  0  0  0  0  0
   16.8747  -56.6285   34.9658 C   0  0  0  0  0  0  0  0  0  0  0  0
   16.6949  -56.6497   36.3512 C   0  0  0  0  0  0  0  0  0  0  0  0
   16.8716  -55.5065   37.0916 C   0  0  0  0  0  0  0  0  0  0  0  0
   13.9339  -58.3029   34.5399 C   0  0  0  0  0  0  0  0  0  0  0  0
   13.2123  -57.2790   34.2982 O   0  0  0  0  0  0  0  0  0  0  0  0
   13.9865  -58.7612   35.8286 O   0  0  0  0  0  0  0  0  0  0  0  0
   12.8361  -59.2266   36.5382 C   0  0  0  0  0  0  0  0  0  0  0  0
   14.3054  -61.3816   33.6333 C   0  0  0  0  0  0  0  0  0  0  0  0
   13.9925  -62.1711   34.5626 O   0  0  0  0  0  0  0  0  0  0  0  0
   13.7309  -61.5723   32.3954 O   0  0  0  0  0  0  0  0  0  0  0  0
   13.6214  -62.8577   31.8246 C   0  0  0  0  0  0  0  0  0  0  0  0
 20 21  1  0  0  0
 21 22  2  0  0  0
 21 26  1  0  0  0
 22 23  1  0  0  0
 23 24  2  0  0  0
 24 25  1  0  0  0
 24 18  1  0  0  0
 25 26  2  0  0  0
 18 19  2  0  0  0
 18  1  1  0  0  0
  1  2  1  0  0  0
  1 17  1  0  0  0
  2  3  1  0  0  0
  2  6  1  0  0  0
  3  4  1  0  0  0
  3 16  1  0  0  0
  4  5  1  0  0  0
  4 15  1  0  0  0
  5  6  2  0  0  0
  5 12  1  0  0  0
  6  7  1  0  0  0
  7  8  2  0  0  0
  7  9  1  0  0  0
  9 10  1  0  0  0
  9 14  1  0  0  0
 10 11  2  0  0  0
 10 12  1  0  0  0
 12 13  1  0  0  0
 16 17  1  0  0  0
 16 31  1  0  0  0
 17 27  1  0  0  0
 27 28  2  0  0  0
 27 29  1  0  0  0
 29 30  1  0  0  0
 31 32  2  0  0  0
 31 33  1  0  0  0
 33 34  1  0  0  0
M  END
> <minimizedAffinity>
-7.74141

$$$$
1372


 31 34  0  0  0  0  0  0  0  0999 V2000
   15.6614  -57.4196   34.0394 C   0  0  0  0  0  0  0  0  0  0  0  0
   15.3814  -56.4205   33.3454 O   0  0  0  0  0  0  0  0  0  0  0  0
   14.7811  -58.5059   34.0945 N   0  0  0  0  0  0  0  0  0  0  0  0
   13.7096  -58.8755   33.2329 C   0  0  0  0  0  0  0  0  0  0  0  0
   13.6715  -60.4096   33.3125 C   0  0  0  0  0  0  0  0  0  0  0  0
   15.0355  -60.9965   33.5801 C   0  0  0  0  0  0  0  0  0  0  0  0
   14.9814  -62.4308   33.6600 N   0  0  0  0  0  0  0  0  0  0  0  0
   16.3256  -62.9071   34.0150 C   0  0  0  0  0  0  0  0  0  0  0  0
   17.3125  -62.6580   32.9173 C   0  0  0  0  0  0  0  0  0  0  0  0
   17.0217  -61.4229   32.1546 C   0  0  0  0  0  0  0  0  0  0  0  0
   17.6704  -60.8680   31.1262 N   0  0  0  0  0  0  0  0  0  0  0  0
   17.0242  -59.7396   30.7705 C   0  0  0  0  0  0  0  0  0  0  0  0
   15.9735  -59.6070   31.5915 N   0  0  0  0  0  0  0  0  0  0  0  0
   15.9178  -60.6193   32.4698 C   0  0  0  0  0  0  0  0  0  0  0  0
   15.6069  -60.5586   34.9385 C   0  0  0  0  0  0  0  0  0  0  0  0
   14.8147  -59.3803   35.3143 C   0  0  0  0  0  0  0  0  0  0  0  0
   14.3650  -62.7099   34.4600 H   0  0  0  0  0  0  0  0  0  0  0  0
   18.5298  -61.1848   30.6257 H   0  0  0  0  0  0  0  0  0  0  0  0
   16.9591  -57.4085   34.7822 C   0  0  0  0  0  0  0  0  0  0  0  0
   18.0738  -57.5828   33.7179 C   0  0  0  0  0  0  0  0  0  0  0  0
   16.7625  -55.8481   36.7189 C   0  0  0  0  0  0  0  0  0  0  0  0
   16.1053  -56.6790   37.3579 O   0  0  0  0  0  0  0  0  0  0  0  0
   17.2732  -56.1386   35.3902 N   0  0  0  0  0  0  0  0  0  0  0  0
   17.8488  -55.4570   34.8994 H   0  0  0  0  0  0  0  0  0  0  0  0
   19.9121  -51.6085   36.1228 Br  0  0  0  0  0  0  0  0  0  0  0  0
   18.4839  -52.5291   37.0387 C   0  0  0  0  0  0  0  0  0  0  0  0
   18.0998  -53.7817   36.6294 C   0  0  0  0  0  0  0  0  0  0  0  0
   17.0650  -54.5059   37.2441 C   0  0  0  0  0  0  0  0  0  0  0  0
   16.4263  -53.9269   38.2982 C   0  0  0  0  0  0  0  0  0  0  0  0
   16.8057  -52.6575   38.7220 C   0  0  0  0  0  0  0  0  0  0  0  0
   17.8261  -51.9562   38.1014 C   0  0  0  0  0  0  0  0  0  0  0  0
 25 26  1  0  0  0
 26 27  2  0  0  0
 26 31  1  0  0  0
 27 28  1  0  0  0
 28 29  2  0  0  0
 28 21  1  0  0  0
 29 30  1  0  0  0
 30 31  2  0  0  0
 21 22  2  0  0  0
 21 23  1  0  0  0
 23 19  1  0  0  0
 19 20  1  0  0  0
 19  1  1  0  0  0
  1  2  2  0  0  0
  1  3  1  0  0  0
  3  4  1  0  0  0
  3 16  1  0  0  0
  4  5  1  0  0  0
  5  6  1  0  0  0
  6  7  1  0  0  0
  6 14  1  0  0  0
  6 15  1  0  0  0
  7  8  1  0  0  0
  8  9  1  0  0  0
  9 10  1  0  0  0
 10 11  1  0  0  0
 10 14  2  0  0  0
 11 12  1  0  0  0
 12 13  2  0  0  0
 13 14  1  0  0  0
 15 16  1  0  0  0
 23 24  1  0  0  0
  7 17  1  0  0  0
 11 18  1  0  0  0
M  END
> <minimizedAffinity>
-7.78391

$$$$
1381


 31 34  0  0  0  0  0  0  0  0999 V2000
   18.0754  -55.1613   35.3245 C   0  0  0  0  0  0  0  0  0  0  0  0
   19.2804  -55.3508   35.2218 O   0  0  0  0  0  0  0  0  0  0  0  0
   17.2121  -55.2606   36.4853 C   0  0  0  0  0  0  0  0  0  0  0  0
   16.6063  -56.4445   36.7996 N   0  0  0  0  0  0  0  0  0  0  0  0
   15.8158  -56.5612   37.8518 N   0  0  0  0  0  0  0  0  0  0  0  0
   15.5700  -55.5185   38.6630 C   0  0  0  0  0  0  0  0  0  0  0  0
   14.8036  -55.6431   39.6763 O   0  0  0  0  0  0  0  0  0  0  0  0
   16.1400  -54.2921   38.4160 C   0  0  0  0  0  0  0  0  0  0  0  0
   16.9721  -54.1961   37.2977 C   0  0  0  0  0  0  0  0  0  0  0  0
   17.5207  -52.9543   37.0900 C   0  0  0  0  0  0  0  0  0  0  0  0
   17.2598  -51.8812   37.9358 C   0  0  0  0  0  0  0  0  0  0  0  0
   16.4347  -52.0111   39.0281 C   0  0  0  0  0  0  0  0  0  0  0  0
   15.8755  -53.2432   39.2562 C   0  0  0  0  0  0  0  0  0  0  0  0
   15.1790  -57.8214   38.1741 C   0  0  0  0  0  0  0  0  0  0  0  0
   13.8792  -58.0145   37.4381 C   0  0  0  0  0  0  0  0  0  0  0  0
   12.8042  -57.4440   38.0944 O   0  0  0  0  0  0  0  0  0  0  0  0
   13.1613  -56.9162   38.8471 H   0  0  0  0  0  0  0  0  0  0  0  0
   17.5030  -54.7902   34.0771 O   0  0  0  0  0  0  0  0  0  0  0  0
   17.7128  -55.6422   32.9839 C   0  0  0  0  0  0  0  0  0  0  0  0
   12.3292  -61.7392   34.5796 Br  0  0  0  0  0  0  0  0  0  0  0  0
   13.3631  -60.1519   34.2412 C   0  0  0  0  0  0  0  0  0  0  0  0
   14.7155  -60.2386   33.9644 C   0  0  0  0  0  0  0  0  0  0  0  0
   15.4578  -59.1297   33.7241 N   0  0  0  0  0  0  0  0  0  0  0  0
   14.8994  -57.9146   33.7468 C   0  0  0  0  0  0  0  0  0  0  0  0
   15.6393  -56.8194   33.5080 N   0  0  0  0  0  0  0  0  0  0  0  0
   16.9537  -56.8827   33.2379 C   0  0  0  0  0  0  0  0  0  0  0  0
   17.5282  -58.1289   33.2139 C   0  0  0  0  0  0  0  0  0  0  0  0
   16.7714  -59.2836   33.4607 C   0  0  0  0  0  0  0  0  0  0  0  0
   17.3286  -60.4091   33.4312 O   0  0  0  0  0  0  0  0  0  0  0  0
   13.5617  -57.8089   34.0190 C   0  0  0  0  0  0  0  0  0  0  0  0
   12.7728  -58.9126   34.2691 C   0  0  0  0  0  0  0  0  0  0  0  0
 20 21  1  0  0  0
 21 22  2  0  0  0
 21 31  1  0  0  0
 22 23  1  0  0  0
 23 24  1  0  0  0
 23 28  1  0  0  0
 24 25  2  0  0  0
 24 30  1  0  0  0
 25 26  1  0  0  0
 26 27  2  0  0  0
 26 19  1  0  0  0
 27 28  1  0  0  0
 28 29  2  0  0  0
 19 18  1  0  0  0
 18  1  1  0  0  0
  1  2  2  0  0  0
  1  3  1  0  0  0
  3  4  2  0  0  0
  3  9  1  0  0  0
  4  5  1  0  0  0
  5  6  1  0  0  0
  5 14  1  0  0  0
  6  7  2  0  0  0
  6  8  1  0  0  0
  8  9  2  0  0  0
  8 13  1  0  0  0
  9 10  1  0  0  0
 10 11  2  0  0  0
 11 12  1  0  0  0
 12 13  2  0  0  0
 14 15  1  0  0  0
 15 16  1  0  0  0
 30 31  2  0  0  0
 16 17  1  0  0  0
M  END
> <minimizedAffinity>
-10.07838

$$$$
1386


 33 36  0  0  0  0  0  0  0  0999 V2000
   15.9963  -58.8348   34.4839 C   0  0  0  0  0  0  0  0  0  0  0  0
   16.4551  -59.9955   34.3851 O   0  0  0  0  0  0  0  0  0  0  0  0
   16.2860  -57.8804   33.4400 N   0  0  0  0  0  0  0  0  0  0  0  0
   17.0899  -58.2947   32.3227 C   0  0  0  0  0  0  0  0  0  0  0  0
   18.4010  -57.5413   32.4102 C   0  0  0  0  0  0  0  0  0  0  0  0
   18.2702  -56.1849   33.0027 C   0  0  0  0  0  0  0  0  0  0  0  0
   16.9040  -55.6043   32.9839 C   0  0  0  0  0  0  0  0  0  0  0  0
   15.8178  -56.5220   33.4408 C   0  0  0  0  0  0  0  0  0  0  0  0
   18.7501  -56.1179   34.3202 O   0  0  0  0  0  0  0  0  0  0  0  0
   19.1777  -55.2465   32.1958 C   0  0  0  0  0  0  0  0  0  0  0  0
   18.7054  -57.0456   34.7108 H   0  0  0  0  0  0  0  0  0  0  0  0
   19.0009  -57.5455   31.0981 N   0  0  0  0  0  0  0  0  0  0  0  0
   20.3352  -57.6748   30.9623 C   0  0  0  0  0  0  0  0  0  0  0  0
   20.9497  -57.6838   29.7302 C   0  0  0  0  0  0  0  0  0  0  0  0
   20.1662  -57.5564   28.6066 C   0  0  0  0  0  0  0  0  0  0  0  0
   20.6748  -57.5575   27.4369 O   0  0  0  0  0  0  0  0  0  0  0  0
   18.8405  -57.4288   28.7722 N   0  0  0  0  0  0  0  0  0  0  0  0
   18.2691  -57.4229   29.9774 C   0  0  0  0  0  0  0  0  0  0  0  0
   17.0146  -57.2999   30.0784 O   0  0  0  0  0  0  0  0  0  0  0  0
   18.1978  -57.3270   27.9305 H   0  0  0  0  0  0  0  0  0  0  0  0
   15.1761  -58.4054   35.6220 C   0  0  0  0  0  0  0  0  0  0  0  0
   15.8546  -58.1198   36.8935 C   0  0  0  0  0  0  0  0  0  0  0  0
   18.4648  -50.9260   37.3384 Cl  0  0  0  0  0  0  0  0  0  0  0  0
   17.5389  -52.3935   37.6915 C   0  0  0  0  0  0  0  0  0  0  0  0
   17.7267  -53.5097   36.9107 C   0  0  0  0  0  0  0  0  0  0  0  0
   17.0214  -54.6774   37.1538 C   0  0  0  0  0  0  0  0  0  0  0  0
   17.0018  -55.8848   36.5705 N   0  0  0  0  0  0  0  0  0  0  0  0
   16.0980  -56.6932   37.2273 C   0  0  0  0  0  0  0  0  0  0  0  0
   15.5955  -55.9406   38.1998 N   0  0  0  0  0  0  0  0  0  0  0  0
   16.1295  -54.6844   38.2010 C   0  0  0  0  0  0  0  0  0  0  0  0
   15.9336  -53.5701   38.9894 C   0  0  0  0  0  0  0  0  0  0  0  0
   16.6383  -52.4175   38.7386 C   0  0  0  0  0  0  0  0  0  0  0  0
   14.6319  -56.3325   39.2130 C   0  0  0  0  0  0  0  0  0  0  0  0
 23 24  1  0  0  0
 24 25  2  0  0  0
 24 32  1  0  0  0
 25 26  1  0  0  0
 26 27  1  0  0  0
 26 30  2  0  0  0
 27 28  2  0  0  0
 28 29  1  0  0  0
 28 22  1  0  0  0
 29 30  1  0  0  0
 29 33  1  0  0  0
 30 31  1  0  0  0
 31 32  2  0  0  0
 22 21  1  0  0  0
 21  1  1  0  0  0
  1  2  2  0  0  0
  1  3  1  0  0  0
  3  4  1  0  0  0
  3  8  1  0  0  0
  4  5  1  0  0  0
  5  6  1  0  0  0
  5 12  1  0  0  0
  6  7  1  0  0  0
  6  9  1  0  0  0
  6 10  1  0  0  0
  7  8  1  0  0  0
 12 13  1  0  0  0
 12 18  1  0  0  0
 13 14  2  0  0  0
 14 15  1  0  0  0
 15 16  2  0  0  0
 15 17  1  0  0  0
 17 18  1  0  0  0
 18 19  2  0  0  0
  9 11  1  0  0  0
 17 20  1  0  0  0
M  END
> <minimizedAffinity>
-10.30085

$$$$
1388


 30 33  0  0  0  0  0  0  0  0999 V2000
   17.1150  -57.6321   33.5878 C   0  0  0  0  0  0  0  0  0  0  0  0
   17.1264  -57.8881   32.3586 O   0  0  0  0  0  0  0  0  0  0  0  0
   15.8875  -57.5698   34.2654 N   0  0  0  0  0  0  0  0  0  0  0  0
   15.7945  -57.2811   35.6751 C   0  0  0  0  0  0  0  0  0  0  0  0
   15.2240  -58.5155   36.3389 C   0  0  0  0  0  0  0  0  0  0  0  0
   13.9709  -58.9489   35.6162 C   0  0  0  0  0  0  0  0  0  0  0  0
   14.2064  -60.2656   35.0630 N   0  0  0  0  0  0  0  0  0  0  0  0
   13.0738  -60.8711   34.4545 C   0  0  0  0  0  0  0  0  0  0  0  0
   11.7628  -60.6826   35.1254 C   0  0  0  0  0  0  0  0  0  0  0  0
   11.8265  -59.9604   36.4133 C   0  0  0  0  0  0  0  0  0  0  0  0
   10.9977  -59.9383   37.5018 N   0  0  0  0  0  0  0  0  0  0  0  0
   11.5492  -59.0983   38.3861 C   0  0  0  0  0  0  0  0  0  0  0  0
   12.6894  -58.6055   37.8757 N   0  0  0  0  0  0  0  0  0  0  0  0
   12.8960  -59.1234   36.6388 C   0  0  0  0  0  0  0  0  0  0  0  0
   13.5123  -58.0034   34.5532 C   0  0  0  0  0  0  0  0  0  0  0  0
   14.6557  -57.7974   33.5548 C   0  0  0  0  0  0  0  0  0  0  0  0
   14.9646  -60.1859   34.3352 H   0  0  0  0  0  0  0  0  0  0  0  0
   10.0991  -60.4983   37.5804 H   0  0  0  0  0  0  0  0  0  0  0  0
   18.4315  -57.4109   34.2425 C   0  0  0  0  0  0  0  0  0  0  0  0
   18.8575  -54.9834   34.6712 C   0  0  0  0  0  0  0  0  0  0  0  0
   19.2818  -54.8931   33.4907 O   0  0  0  0  0  0  0  0  0  0  0  0
   18.4094  -56.2509   35.1075 N   0  0  0  0  0  0  0  0  0  0  0  0
   18.0546  -56.3503   36.0789 H   0  0  0  0  0  0  0  0  0  0  0  0
   16.6258  -52.2698   38.6752 Br  0  0  0  0  0  0  0  0  0  0  0  0
   17.9333  -52.4650   37.3192 C   0  0  0  0  0  0  0  0  0  0  0  0
   17.9196  -53.5985   36.5265 C   0  0  0  0  0  0  0  0  0  0  0  0
   18.8463  -53.8013   35.5210 C   0  0  0  0  0  0  0  0  0  0  0  0
   19.8086  -52.8221   35.3196 C   0  0  0  0  0  0  0  0  0  0  0  0
   19.8164  -51.6981   36.1112 C   0  0  0  0  0  0  0  0  0  0  0  0
   18.9014  -51.4801   37.1172 C   0  0  0  0  0  0  0  0  0  0  0  0
 24 25  1  0  0  0
 25 26  2  0  0  0
 25 30  1  0  0  0
 26 27  1  0  0  0
 27 28  2  0  0  0
 27 20  1  0  0  0
 28 29  1  0  0  0
 29 30  2  0  0  0
 20 21  2  0  0  0
 20 22  1  0  0  0
 22 19  1  0  0  0
 19  1  1  0  0  0
  1  2  2  0  0  0
  1  3  1  0  0  0
  3  4  1  0  0  0
  3 16  1  0  0  0
  4  5  1  0  0  0
  5  6  1  0  0  0
  6  7  1  0  0  0
  6 14  1  0  0  0
  6 15  1  0  0  0
  7  8  1  0  0  0
  8  9  1  0  0  0
  9 10  1  0  0  0
 10 11  1  0  0  0
 10 14  2  0  0  0
 11 12  1  0  0  0
 12 13  2  0  0  0
 13 14  1  0  0  0
 15 16  1  0  0  0
 22 23  1  0  0  0
  7 17  1  0  0  0
 11 18  1  0  0  0
M  END
> <minimizedAffinity>
-9.86281

$$$$
1404


 26 29  0  0  0  0  0  0  0  0999 V2000
   21.4507  -57.6753   29.8953 Br  0  0  0  0  0  0  0  0  0  0  0  0
   19.8493  -57.1287   30.7762 C   0  0  0  0  0  0  0  0  0  0  0  0
   19.5896  -57.4947   32.0834 C   0  0  0  0  0  0  0  0  0  0  0  0
   18.4481  -57.1252   32.7627 C   0  0  0  0  0  0  0  0  0  0  0  0
   17.5408  -56.3395   32.0460 C   0  0  0  0  0  0  0  0  0  0  0  0
   17.7989  -55.9758   30.7472 C   0  0  0  0  0  0  0  0  0  0  0  0
   18.9461  -56.3531   30.0803 C   0  0  0  0  0  0  0  0  0  0  0  0
   19.1744  -55.9293   28.6695 C   0  0  0  0  0  0  0  0  0  0  0  0
   16.4058  -55.9857   32.7622 O   0  0  0  0  0  0  0  0  0  0  0  0
   16.0487  -56.5336   34.0171 C   0  0  0  0  0  0  0  0  0  0  0  0
   17.3046  -56.6346   34.9455 C   0  0  0  0  0  0  0  0  0  0  0  0
   18.1675  -57.5272   34.1339 C   0  0  0  0  0  0  0  0  0  0  0  0
   18.6864  -58.5991   34.4916 O   0  0  0  0  0  0  0  0  0  0  0  0
   17.0165  -57.0348   36.2132 N   0  0  0  0  0  0  0  0  0  0  0  0
   16.5899  -58.3238   36.5550 C   0  0  0  0  0  0  0  0  0  0  0  0
   15.0916  -58.3352   36.7697 C   0  0  0  0  0  0  0  0  0  0  0  0
   14.8694  -57.5429   37.9210 O   0  0  0  0  0  0  0  0  0  0  0  0
   15.1006  -56.2273   37.4826 C   0  0  0  0  0  0  0  0  0  0  0  0
   16.5898  -56.0967   37.1546 C   0  0  0  0  0  0  0  0  0  0  0  0
   17.8474  -55.2504   34.9223 C   0  0  0  0  0  0  0  0  0  0  0  0
   19.2273  -55.0546   35.2398 N   0  0  0  0  0  0  0  0  0  0  0  0
   20.0823  -54.5285   34.2444 C   0  0  0  0  0  0  0  0  0  0  0  0
   19.8576  -53.0177   34.0826 C   0  0  0  0  0  0  0  0  0  0  0  0
   20.2823  -52.4461   35.2865 O   0  0  0  0  0  0  0  0  0  0  0  0
   19.3507  -52.8199   36.2621 C   0  0  0  0  0  0  0  0  0  0  0  0
   19.3189  -54.2998   36.4909 C   0  0  0  0  0  0  0  0  0  0  0  0
  1  2  1  0  0  0
  2  3  2  0  0  0
  2  7  1  0  0  0
  3  4  1  0  0  0
  4  5  2  0  0  0
  4 12  1  0  0  0
  5  6  1  0  0  0
  5  9  1  0  0  0
  6  7  2  0  0  0
  7  8  1  0  0  0
  9 10  1  0  0  0
 10 11  1  0  0  0
 11 12  1  0  0  0
 11 14  1  0  0  0
 11 20  1  0  0  0
 12 13  2  0  0  0
 14 15  1  0  0  0
 14 19  1  0  0  0
 15 16  1  0  0  0
 16 17  1  0  0  0
 17 18  1  0  0  0
 18 19  1  0  0  0
 20 21  1  0  0  0
 21 22  1  0  0  0
 21 26  1  0  0  0
 22 23  1  0  0  0
 23 24  1  0  0  0
 24 25  1  0  0  0
 25 26  1  0  0  0
M  END
> <minimizedAffinity>
-7.43579

$$$$
1405


 27 30  0  0  0  0  0  0  0  0999 V2000
    7.3446  -62.5500   32.0697 Br  0  0  0  0  0  0  0  0  0  0  0  0
    8.8921  -63.0667   33.0956 C   0  0  0  0  0  0  0  0  0  0  0  0
   10.0900  -62.4201   32.9419 C   0  0  0  0  0  0  0  0  0  0  0  0
   11.1835  -62.8070   33.6878 C   0  0  0  0  0  0  0  0  0  0  0  0
   11.0187  -63.8426   34.5673 C   0  0  0  0  0  0  0  0  0  0  0  0
    9.7853  -64.5066   34.7245 C   0  0  0  0  0  0  0  0  0  0  0  0
    8.7099  -64.1089   33.9759 C   0  0  0  0  0  0  0  0  0  0  0  0
   12.2308  -64.1243   35.2604 N   0  0  0  0  0  0  0  0  0  0  0  0
   13.2067  -63.2306   34.8018 C   0  0  0  0  0  0  0  0  0  0  0  0
   14.4102  -63.1942   35.2025 O   0  0  0  0  0  0  0  0  0  0  0  0
   12.5872  -62.3330   33.7641 C   0  0  0  0  0  0  0  0  0  0  0  0
   12.7060  -60.9768   34.2871 C   0  0  0  0  0  0  0  0  0  0  0  0
   13.4544  -60.0373   33.6490 C   0  0  0  0  0  0  0  0  0  0  0  0
   13.3560  -58.8928   34.3877 N   0  0  0  0  0  0  0  0  0  0  0  0
   12.5882  -59.0938   35.4380 N   0  0  0  0  0  0  0  0  0  0  0  0
   12.1674  -60.3565   35.4180 C   0  0  0  0  0  0  0  0  0  0  0  0
   11.2778  -61.0729   36.3848 C   0  0  0  0  0  0  0  0  0  0  0  0
   14.1511  -60.2998   32.4644 O   0  0  0  0  0  0  0  0  0  0  0  0
   14.0358  -61.5945   31.9689 C   0  0  0  0  0  0  0  0  0  0  0  0
   13.3329  -62.5396   32.5366 C   0  0  0  0  0  0  0  0  0  0  0  0
   14.7387  -61.9274   30.7385 N   0  0  0  0  0  0  0  0  0  0  0  0
   12.4358  -65.1660   36.2783 C   0  0  0  0  0  0  0  0  0  0  0  0
   12.3202  -58.4118   36.1937 H   0  0  0  0  0  0  0  0  0  0  0  0
   15.7118  -62.2672   30.8732 H   0  0  0  0  0  0  0  0  0  0  0  0
   14.3240  -61.8388   29.8131 H   0  0  0  0  0  0  0  0  0  0  0  0
   13.3238  -63.8535   31.8702 C   0  0  0  0  0  0  0  0  0  0  0  0
   13.3042  -64.8859   31.3244 N   0  0  0  0  0  0  0  0  0  0  0  0
  1  2  1  0  0  0
  2  3  2  0  0  0
  2  7  1  0  0  0
  3  4  1  0  0  0
  4  5  2  0  0  0
  4 11  1  0  0  0
  5  6  1  0  0  0
  5  8  1  0  0  0
  6  7  2  0  0  0
  8  9  1  0  0  0
  8 22  1  0  0  0
  9 10  2  0  0  0
  9 11  1  0  0  0
 11 12  1  0  0  0
 11 20  1  0  0  0
 12 13  1  0  0  0
 12 16  2  0  0  0
 13 14  2  0  0  0
 13 18  1  0  0  0
 14 15  1  0  0  0
 15 16  1  0  0  0
 16 17  1  0  0  0
 18 19  1  0  0  0
 19 20  2  0  0  0
 19 21  1  0  0  0
 20 26  1  0  0  0
 26 27  3  0  0  0
 15 23  1  0  0  0
 21 24  1  0  0  0
 21 25  1  0  0  0
M  END
> <minimizedAffinity>
-5.27509

$$$$
1413


 24 27  0  0  0  0  0  0  0  0999 V2000
   15.6578  -57.0568   38.6831 C   0  0  0  0  0  0  0  0  0  0  0  0
   11.9901  -60.7643   37.7766 Br  0  0  0  0  0  0  0  0  0  0  0  0
   13.1324  -59.3684   37.1987 C   0  0  0  0  0  0  0  0  0  0  0  0
   13.1201  -59.0131   35.8930 C   0  0  0  0  0  0  0  0  0  0  0  0
   12.4137  -59.4801   34.8448 N   0  0  0  0  0  0  0  0  0  0  0  0
   12.8238  -58.7469   33.8143 N   0  0  0  0  0  0  0  0  0  0  0  0
   13.7249  -57.8694   34.1581 N   0  0  0  0  0  0  0  0  0  0  0  0
   13.9560  -57.9956   35.4909 C   0  0  0  0  0  0  0  0  0  0  0  0
   14.7891  -57.3519   36.3998 C   0  0  0  0  0  0  0  0  0  0  0  0
   14.8055  -57.7009   37.6973 N   0  0  0  0  0  0  0  0  0  0  0  0
   13.9811  -58.6999   38.0800 C   0  0  0  0  0  0  0  0  0  0  0  0
   11.4416  -60.5021   34.7474 C   0  0  0  0  0  0  0  0  0  0  0  0
   15.3224  -55.6606   38.9460 C   0  0  0  0  0  0  0  0  0  0  0  0
   14.2417  -55.4511   39.5769 O   0  0  0  0  0  0  0  0  0  0  0  0
   16.1063  -54.4931   38.5545 C   0  0  0  0  0  0  0  0  0  0  0  0
   17.1578  -54.6586   37.6977 C   0  0  0  0  0  0  0  0  0  0  0  0
   17.9153  -53.5815   37.3177 C   0  0  0  0  0  0  0  0  0  0  0  0
   17.6541  -52.3032   37.7761 C   0  0  0  0  0  0  0  0  0  0  0  0
   16.5765  -52.1692   38.6485 C   0  0  0  0  0  0  0  0  0  0  0  0
   15.8175  -53.2412   39.0298 C   0  0  0  0  0  0  0  0  0  0  0  0
   18.4016  -51.2040   37.4076 C   0  0  0  0  0  0  0  0  0  0  0  0
   19.4539  -51.4099   36.5415 C   0  0  0  0  0  0  0  0  0  0  0  0
   19.7242  -52.6806   36.0776 C   0  0  0  0  0  0  0  0  0  0  0  0
   18.9744  -53.7729   36.4484 C   0  0  0  0  0  0  0  0  0  0  0  0
  2  3  1  0  0  0
  3  4  2  0  0  0
  3 11  1  0  0  0
  4  5  1  0  0  0
  4  8  1  0  0  0
  5  6  1  0  0  0
  5 12  1  0  0  0
  6  7  2  0  0  0
  7  8  1  0  0  0
  8  9  2  0  0  0
  9 10  1  0  0  0
 10 11  2  0  0  0
 10  1  1  0  0  0
  1 13  1  0  0  0
 13 14  2  0  0  0
 13 15  1  0  0  0
 15 16  2  0  0  0
 15 20  1  0  0  0
 16 17  1  0  0  0
 17 18  2  0  0  0
 17 24  1  0  0  0
 18 19  1  0  0  0
 18 21  1  0  0  0
 19 20  2  0  0  0
 21 22  2  0  0  0
 22 23  1  0  0  0
 23 24  2  0  0  0
M  END
> <minimizedAffinity>
-11.01490

$$$$
1415


 32 35  0  0  0  0  0  0  0  0999 V2000
   17.3724  -62.6717   32.3621 Br  0  0  0  0  0  0  0  0  0  0  0  0
   17.2074  -60.9633   31.5093 C   0  0  0  0  0  0  0  0  0  0  0  0
   17.3966  -59.8136   32.2385 C   0  0  0  0  0  0  0  0  0  0  0  0
   17.2849  -58.5418   31.6523 C   0  0  0  0  0  0  0  0  0  0  0  0
   16.9764  -58.5096   30.3100 C   0  0  0  0  0  0  0  0  0  0  0  0
   16.7809  -59.6467   29.5560 C   0  0  0  0  0  0  0  0  0  0  0  0
   16.8963  -60.8813   30.1529 C   0  0  0  0  0  0  0  0  0  0  0  0
   16.7051  -62.1632   29.4263 C   0  0  0  0  0  0  0  0  0  0  0  0
   16.3549  -59.5710   27.6978 Br  0  0  0  0  0  0  0  0  0  0  0  0
   17.4895  -57.3566   32.4590 C   0  0  0  0  0  0  0  0  0  0  0  0
   17.4960  -56.2392   31.9319 O   0  0  0  0  0  0  0  0  0  0  0  0
   17.6898  -57.4948   33.9124 C   0  0  0  0  0  0  0  0  0  0  0  0
   18.4258  -58.7969   34.1402 C   0  0  0  0  0  0  0  0  0  0  0  0
   17.7078  -59.8873   33.5928 O   0  0  0  0  0  0  0  0  0  0  0  0
   18.4099  -56.3368   34.5340 C   0  0  0  0  0  0  0  0  0  0  0  0
   18.0676  -55.0575   34.0440 N   0  0  0  0  0  0  0  0  0  0  0  0
   17.3547  -54.3232   35.0470 C   0  0  0  0  0  0  0  0  0  0  0  0
   18.1719  -53.8740   36.2048 C   0  0  0  0  0  0  0  0  0  0  0  0
   19.6377  -54.0396   36.0902 C   0  0  0  0  0  0  0  0  0  0  0  0
   20.1921  -54.1303   34.7222 C   0  0  0  0  0  0  0  0  0  0  0  0
   19.1683  -54.2317   33.6301 C   0  0  0  0  0  0  0  0  0  0  0  0
   17.7100  -54.6667   37.4331 C   0  0  0  0  0  0  0  0  0  0  0  0
   17.4281  -55.1494   33.2145 H   0  0  0  0  0  0  0  0  0  0  0  0
   16.3055  -57.6270   34.5131 C   0  0  0  0  0  0  0  0  0  0  0  0
   16.1498  -58.6801   35.4577 N   0  0  0  0  0  0  0  0  0  0  0  0
   14.8945  -59.3906   35.2218 C   0  0  0  0  0  0  0  0  0  0  0  0
   13.8110  -58.9790   36.1749 C   0  0  0  0  0  0  0  0  0  0  0  0
   13.8454  -57.4793   36.3639 C   0  0  0  0  0  0  0  0  0  0  0  0
   15.1168  -57.1375   37.0769 C   0  0  0  0  0  0  0  0  0  0  0  0
   16.1163  -58.2416   36.8360 C   0  0  0  0  0  0  0  0  0  0  0  0
   12.4721  -59.2968   35.4955 C   0  0  0  0  0  0  0  0  0  0  0  0
   16.8972  -59.3717   35.3552 H   0  0  0  0  0  0  0  0  0  0  0  0
  1  2  1  0  0  0
  2  3  2  0  0  0
  2  7  1  0  0  0
  3  4  1  0  0  0
  3 14  1  0  0  0
  4  5  2  0  0  0
  4 10  1  0  0  0
  5  6  1  0  0  0
  6  7  2  0  0  0
  6  9  1  0  0  0
  7  8  1  0  0  0
 10 11  2  0  0  0
 10 12  1  0  0  0
 12 13  1  0  0  0
 12 15  1  0  0  0
 12 24  1  0  0  0
 13 14  1  0  0  0
 15 16  1  0  0  0
 16 17  1  0  0  0
 16 21  1  0  0  0
 17 18  1  0  0  0
 18 19  1  0  0  0
 18 22  1  0  0  0
 19 20  1  0  0  0
 20 21  1  0  0  0
 24 25  1  0  0  0
 25 26  1  0  0  0
 25 30  1  0  0  0
 26 27  1  0  0  0
 27 28  1  0  0  0
 27 31  1  0  0  0
 28 29  1  0  0  0
 29 30  1  0  0  0
 16 23  1  0  0  0
 25 32  1  0  0  0
M  CHG 1  16   1
M  CHG 1  25   1
M  END
> <minimizedAffinity>
-7.68690

$$$$
1428


 37 40  0  0  0  0  0  0  0  0999 V2000
   14.2459  -57.3575   38.8408 Cl  0  0  0  0  0  0  0  0  0  0  0  0
   13.3680  -58.4614   37.7866 C   0  0  0  0  0  0  0  0  0  0  0  0
   13.9400  -59.0090   36.6695 C   0  0  0  0  0  0  0  0  0  0  0  0
   13.2086  -59.8663   35.8791 C   0  0  0  0  0  0  0  0  0  0  0  0
   11.9174  -60.1438   36.2447 C   0  0  0  0  0  0  0  0  0  0  0  0
   11.3363  -59.5836   37.3857 C   0  0  0  0  0  0  0  0  0  0  0  0
   12.0706  -58.7350   38.1611 C   0  0  0  0  0  0  0  0  0  0  0  0
   11.2853  -61.0517   35.3496 N   0  0  0  0  0  0  0  0  0  0  0  0
   12.2376  -61.3588   34.3694 C   0  0  0  0  0  0  0  0  0  0  0  0
   11.9860  -62.1683   33.4171 O   0  0  0  0  0  0  0  0  0  0  0  0
   13.4818  -60.6228   34.6342 C   0  0  0  0  0  0  0  0  0  0  0  0
   14.5347  -61.5847   34.8021 N   0  0  0  0  0  0  0  0  0  0  0  0
   15.4386  -61.4810   33.6993 C   0  0  0  0  0  0  0  0  0  0  0  0
   14.7739  -60.6427   32.6552 C   0  0  0  0  0  0  0  0  0  0  0  0
   13.8366  -59.7987   33.4733 C   0  0  0  0  0  0  0  0  0  0  0  0
   10.2999  -61.4228   35.4070 H   0  0  0  0  0  0  0  0  0  0  0  0
   14.9879  -61.4889   35.7353 H   0  0  0  0  0  0  0  0  0  0  0  0
   14.3833  -58.4484   33.7643 C   0  0  0  0  0  0  0  0  0  0  0  0
   13.5748  -57.4943   33.6628 O   0  0  0  0  0  0  0  0  0  0  0  0
   15.7126  -58.2094   34.1312 N   0  0  0  0  0  0  0  0  0  0  0  0
   16.3131  -59.0877   34.1998 H   0  0  0  0  0  0  0  0  0  0  0  0
   16.3373  -56.9957   34.4221 C   0  0  0  0  0  0  0  0  0  0  0  0
   16.7105  -56.1583   33.3807 C   0  0  0  0  0  0  0  0  0  0  0  0
   17.3299  -54.9438   33.5950 C   0  0  0  0  0  0  0  0  0  0  0  0
   17.6096  -54.5037   34.8644 C   0  0  0  0  0  0  0  0  0  0  0  0
   17.2546  -55.3065   35.9097 C   0  0  0  0  0  0  0  0  0  0  0  0
   16.6292  -56.5296   35.6793 C   0  0  0  0  0  0  0  0  0  0  0  0
   16.4625  -56.5323   32.0717 O   0  0  0  0  0  0  0  0  0  0  0  0
   17.4449  -56.9643   31.1810 C   0  0  0  0  0  0  0  0  0  0  0  0
   17.5178  -54.8990   37.2048 O   0  0  0  0  0  0  0  0  0  0  0  0
   16.4941  -54.5796   38.1296 C   0  0  0  0  0  0  0  0  0  0  0  0
   15.8374  -62.8473   33.1662 C   0  0  0  0  0  0  0  0  0  0  0  0
   15.2645  -63.9394   33.9658 C   0  0  0  0  0  0  0  0  0  0  0  0
   15.8705  -64.3755   34.9572 O   0  0  0  0  0  0  0  0  0  0  0  0
   14.0221  -64.4925   33.6042 N   0  0  0  0  0  0  0  0  0  0  0  0
   13.3053  -64.6235   34.3496 H   0  0  0  0  0  0  0  0  0  0  0  0
   13.7633  -64.7848   32.6305 H   0  0  0  0  0  0  0  0  0  0  0  0
  1  2  1  0  0  0
  2  3  2  0  0  0
  2  7  1  0  0  0
  3  4  1  0  0  0
  4  5  2  0  0  0
  4 11  1  0  0  0
  5  6  1  0  0  0
  5  8  1  0  0  0
  6  7  2  0  0  0
  8  9  1  0  0  0
  9 10  2  0  0  0
  9 11  1  0  0  0
 11 12  1  0  0  0
 11 15  1  0  0  0
 12 13  1  0  0  0
 13 14  1  0  0  0
 13 32  1  0  0  0
 14 15  1  0  0  0
 15 18  1  0  0  0
 18 19  2  0  0  0
 18 20  1  0  0  0
 20 22  1  0  0  0
 22 23  2  0  0  0
 22 27  1  0  0  0
 23 24  1  0  0  0
 23 28  1  0  0  0
 24 25  2  0  0  0
 25 26  1  0  0  0
 26 27  2  0  0  0
 26 30  1  0  0  0
 30 31  1  0  0  0
 28 29  1  0  0  0
 32 33  1  0  0  0
 33 34  2  0  0  0
 33 35  1  0  0  0
  8 16  1  0  0  0
 12 17  1  0  0  0
 20 21  1  0  0  0
 35 36  1  0  0  0
 35 37  1  0  0  0
M  END
> <minimizedAffinity>
-8.25859

$$$$
1432


 21 24  0  0  0  0  0  0  0  0999 V2000
   15.5041  -55.4416   38.7891 C   0  0  0  0  0  0  0  0  0  0  0  0
   15.4119  -54.1470   39.1347 N   0  0  0  0  0  0  0  0  0  0  0  0
   16.3744  -53.4277   38.5334 N   0  0  0  0  0  0  0  0  0  0  0  0
   17.0956  -54.2829   37.7869 C   0  0  0  0  0  0  0  0  0  0  0  0
   16.5588  -55.5067   37.9484 N   0  0  0  0  0  0  0  0  0  0  0  0
   18.1557  -53.7690   37.0648 C   0  0  0  0  0  0  0  0  0  0  0  0
   18.4832  -52.4265   37.0925 C   0  0  0  0  0  0  0  0  0  0  0  0
   19.5542  -52.1903   36.3045 N   0  0  0  0  0  0  0  0  0  0  0  0
   19.8905  -53.3592   35.7924 N   0  0  0  0  0  0  0  0  0  0  0  0
   19.0783  -54.3421   36.2213 C   0  0  0  0  0  0  0  0  0  0  0  0
   20.1870  -50.8919   36.0832 C   0  0  0  0  0  0  0  0  0  0  0  0
   17.7188  -51.6304   37.8597 N   0  0  0  0  0  0  0  0  0  0  0  0
   16.6859  -52.1183   38.5660 C   0  0  0  0  0  0  0  0  0  0  0  0
   14.6482  -56.5817   39.2185 C   0  0  0  0  0  0  0  0  0  0  0  0
   11.7263  -60.0346   36.1932 Br  0  0  0  0  0  0  0  0  0  0  0  0
   12.9570  -58.7128   36.8015 C   0  0  0  0  0  0  0  0  0  0  0  0
   13.1568  -58.2581   38.1028 C   0  0  0  0  0  0  0  0  0  0  0  0
   14.1244  -57.3197   38.0805 N   0  0  0  0  0  0  0  0  0  0  0  0
   14.5291  -57.1762   36.8182 N   0  0  0  0  0  0  0  0  0  0  0  0
   13.8409  -58.0081   36.0123 C   0  0  0  0  0  0  0  0  0  0  0  0
   13.9552  -58.1887   34.5458 C   0  0  0  0  0  0  0  0  0  0  0  0
 15 16  1  0  0  0
 16 17  2  0  0  0
 16 20  1  0  0  0
 17 18  1  0  0  0
 18 19  1  0  0  0
 18 14  1  0  0  0
 19 20  2  0  0  0
 20 21  1  0  0  0
 14  1  1  0  0  0
  1  2  2  0  0  0
  1  5  1  0  0  0
  2  3  1  0  0  0
  3  4  1  0  0  0
  3 13  1  0  0  0
  4  5  2  0  0  0
  4  6  1  0  0  0
  6  7  2  0  0  0
  6 10  1  0  0  0
  7  8  1  0  0  0
  7 12  1  0  0  0
  8  9  1  0  0  0
  8 11  1  0  0  0
  9 10  2  0  0  0
 12 13  2  0  0  0
M  END
> <minimizedAffinity>
-8.11932

$$$$
1433


 28 31  0  0  0  0  0  0  0  0999 V2000
   14.1981  -59.2034   33.6186 Br  0  0  0  0  0  0  0  0  0  0  0  0
   14.3725  -58.6172   35.4136 C   0  0  0  0  0  0  0  0  0  0  0  0
   13.5695  -59.1843   36.4085 C   0  0  0  0  0  0  0  0  0  0  0  0
   13.6770  -58.7931   37.7204 C   0  0  0  0  0  0  0  0  0  0  0  0
   14.6019  -57.8219   38.0209 C   0  0  0  0  0  0  0  0  0  0  0  0
   15.4144  -57.2395   37.0495 C   0  0  0  0  0  0  0  0  0  0  0  0
   15.2961  -57.6502   35.7185 C   0  0  0  0  0  0  0  0  0  0  0  0
   16.1625  -57.0393   34.6729 C   0  0  0  0  0  0  0  0  0  0  0  0
   16.3856  -56.1768   37.4219 C   0  0  0  0  0  0  0  0  0  0  0  0
   12.8913  -59.3694   38.8494 C   0  0  0  0  0  0  0  0  0  0  0  0
   11.7800  -60.2825   38.4315 C   0  0  0  0  0  0  0  0  0  0  0  0
   11.4293  -59.9942   36.9833 C   0  0  0  0  0  0  0  0  0  0  0  0
   12.6139  -60.1604   36.1615 O   0  0  0  0  0  0  0  0  0  0  0  0
   12.3664  -58.2678   39.5942 O   0  0  0  0  0  0  0  0  0  0  0  0
   13.1153  -57.9018   40.1263 H   0  0  0  0  0  0  0  0  0  0  0  0
   10.6349  -59.9270   39.2419 N   0  0  0  0  0  0  0  0  0  0  0  0
   10.4840  -60.7339   40.4065 C   0  0  0  0  0  0  0  0  0  0  0  0
    9.1322  -60.6832   41.0593 C   0  0  0  0  0  0  0  0  0  0  0  0
    8.0707  -60.5926   40.2001 O   0  0  0  0  0  0  0  0  0  0  0  0
    8.2516  -59.4481   39.4124 C   0  0  0  0  0  0  0  0  0  0  0  0
    9.4272  -59.8326   38.4762 C   0  0  0  0  0  0  0  0  0  0  0  0
   12.0826  -61.7323   38.4602 C   0  0  0  0  0  0  0  0  0  0  0  0
   11.4975  -62.6666   37.6133 N   0  0  0  0  0  0  0  0  0  0  0  0
   12.4454  -63.8143   37.4042 C   0  0  0  0  0  0  0  0  0  0  0  0
   12.8584  -64.4121   38.6980 C   0  0  0  0  0  0  0  0  0  0  0  0
   11.9176  -64.3518   39.6906 O   0  0  0  0  0  0  0  0  0  0  0  0
   10.6193  -64.2597   39.2812 C   0  0  0  0  0  0  0  0  0  0  0  0
   10.3449  -63.4156   38.0787 C   0  0  0  0  0  0  0  0  0  0  0  0
  1  2  1  0  0  0
  2  3  2  0  0  0
  2  7  1  0  0  0
  3  4  1  0  0  0
  3 13  1  0  0  0
  4  5  2  0  0  0
  4 10  1  0  0  0
  5  6  1  0  0  0
  6  7  2  0  0  0
  6  9  1  0  0  0
  7  8  1  0  0  0
 10 11  1  0  0  0
 10 14  1  0  0  0
 11 12  1  0  0  0
 11 16  1  0  0  0
 11 22  1  0  0  0
 12 13  1  0  0  0
 16 17  1  0  0  0
 16 21  1  0  0  0
 17 18  1  0  0  0
 18 19  1  0  0  0
 19 20  1  0  0  0
 20 21  1  0  0  0
 22 23  1  0  0  0
 23 24  1  0  0  0
 23 28  1  0  0  0
 24 25  1  0  0  0
 25 26  1  0  0  0
 26 27  1  0  0  0
 27 28  1  0  0  0
 14 15  1  0  0  0
M  END
> <minimizedAffinity>
-6.67412

$$$$
1434


 28 31  0  0  0  0  0  0  0  0999 V2000
   18.1460  -55.6712   34.2639 C   0  0  0  0  0  0  0  0  0  0  0  0
   17.5611  -54.5788   33.7849 O   0  0  0  0  0  0  0  0  0  0  0  0
   18.2612  -56.7065   33.3498 N   0  0  0  0  0  0  0  0  0  0  0  0
   18.8281  -57.9925   33.5485 C   0  0  0  0  0  0  0  0  0  0  0  0
   17.7228  -59.0488   33.5776 C   0  0  0  0  0  0  0  0  0  0  0  0
   16.5909  -58.6263   32.6562 C   0  0  0  0  0  0  0  0  0  0  0  0
   16.0671  -59.8578   32.0901 N   0  0  0  0  0  0  0  0  0  0  0  0
   15.0383  -60.3138   32.9928 C   0  0  0  0  0  0  0  0  0  0  0  0
   14.5659  -61.4765   33.0467 O   0  0  0  0  0  0  0  0  0  0  0  0
   14.6625  -59.1901   33.8116 N   0  0  0  0  0  0  0  0  0  0  0  0
   15.4484  -58.0736   33.4133 C   0  0  0  0  0  0  0  0  0  0  0  0
   15.1879  -56.8760   33.6739 O   0  0  0  0  0  0  0  0  0  0  0  0
   17.0543  -57.7498   31.5358 C   0  0  0  0  0  0  0  0  0  0  0  0
   17.7315  -56.4945   31.9806 C   0  0  0  0  0  0  0  0  0  0  0  0
   16.3645  -60.3286   31.2103 H   0  0  0  0  0  0  0  0  0  0  0  0
   13.9487  -59.1998   34.5536 H   0  0  0  0  0  0  0  0  0  0  0  0
   18.5255  -55.5118   35.6537 C   0  0  0  0  0  0  0  0  0  0  0  0
   14.3814  -56.2561   39.0856 Br  0  0  0  0  0  0  0  0  0  0  0  0
   15.8360  -55.5629   38.0572 C   0  0  0  0  0  0  0  0  0  0  0  0
   16.2765  -54.2671   38.1610 C   0  0  0  0  0  0  0  0  0  0  0  0
   17.3207  -54.1320   37.2830 C   0  0  0  0  0  0  0  0  0  0  0  0
   17.5250  -55.3229   36.6451 N   0  0  0  0  0  0  0  0  0  0  0  0
   16.6090  -56.1968   37.1249 C   0  0  0  0  0  0  0  0  0  0  0  0
   16.4759  -57.6083   36.6985 C   0  0  0  0  0  0  0  0  0  0  0  0
   17.9710  -52.9023   37.1771 C   0  0  0  0  0  0  0  0  0  0  0  0
   17.5690  -51.8211   37.9509 C   0  0  0  0  0  0  0  0  0  0  0  0
   16.5255  -51.9758   38.8204 C   0  0  0  0  0  0  0  0  0  0  0  0
   15.8784  -53.1850   38.9311 C   0  0  0  0  0  0  0  0  0  0  0  0
 18 19  1  0  0  0
 19 20  1  0  0  0
 19 23  2  0  0  0
 20 21  2  0  0  0
 20 28  1  0  0  0
 21 22  1  0  0  0
 21 25  1  0  0  0
 22 23  1  0  0  0
 22 17  1  0  0  0
 23 24  1  0  0  0
 17  1  1  0  0  0
  1  2  2  0  0  0
  1  3  1  0  0  0
  3  4  1  0  0  0
  3 14  1  0  0  0
  4  5  1  0  0  0
  5  6  1  0  0  0
  6  7  1  0  0  0
  6 11  1  0  0  0
  6 13  1  0  0  0
  7  8  1  0  0  0
  8  9  2  0  0  0
  8 10  1  0  0  0
 10 11  1  0  0  0
 11 12  2  0  0  0
 13 14  1  0  0  0
 25 26  2  0  0  0
 26 27  1  0  0  0
 27 28  2  0  0  0
  7 15  1  0  0  0
 10 16  1  0  0  0
M  END
> <minimizedAffinity>
-9.83498

$$$$
1435


 32 35  0  0  0  0  0  0  0  0999 V2000
   16.8142  -56.6993   32.8284 C   0  0  0  0  0  0  0  0  0  0  0  0
   18.2142  -57.2809   32.6862 C   0  0  0  0  0  0  0  0  0  0  0  0
   17.0389  -60.0457   31.2278 Br  0  0  0  0  0  0  0  0  0  0  0  0
   18.1408  -58.6374   30.5578 C   0  0  0  0  0  0  0  0  0  0  0  0
   18.5249  -57.5758   31.3079 N   0  0  0  0  0  0  0  0  0  0  0  0
   19.2825  -56.8232   30.4793 C   0  0  0  0  0  0  0  0  0  0  0  0
   19.3721  -57.4022   29.2306 C   0  0  0  0  0  0  0  0  0  0  0  0
   18.6444  -58.5408   29.3140 N   0  0  0  0  0  0  0  0  0  0  0  0
   20.0749  -56.8459   28.2179 N   0  0  0  0  0  0  0  0  0  0  0  0
   20.7037  -55.6813   28.4572 C   0  0  0  0  0  0  0  0  0  0  0  0
   21.3769  -55.1038   27.5628 O   0  0  0  0  0  0  0  0  0  0  0  0
   20.6378  -55.0794   29.6764 N   0  0  0  0  0  0  0  0  0  0  0  0
   19.9429  -55.6237   30.6862 C   0  0  0  0  0  0  0  0  0  0  0  0
   19.8523  -55.1104   31.8237 O   0  0  0  0  0  0  0  0  0  0  0  0
   20.1591  -57.4699   26.9108 C   0  0  0  0  0  0  0  0  0  0  0  0
   21.1403  -54.1728   29.8242 H   0  0  0  0  0  0  0  0  0  0  0  0
   16.2239  -57.0327   34.1729 C   0  0  0  0  0  0  0  0  0  0  0  0
   17.2230  -57.1607   35.2839 C   0  0  0  0  0  0  0  0  0  0  0  0
   16.9425  -56.2215   36.3181 N   0  0  0  0  0  0  0  0  0  0  0  0
   17.3600  -54.9694   36.4948 C   0  0  0  0  0  0  0  0  0  0  0  0
   16.7693  -54.4586   37.6452 C   0  0  0  0  0  0  0  0  0  0  0  0
   16.0081  -55.4378   38.1248 N   0  0  0  0  0  0  0  0  0  0  0  0
   16.0982  -56.5124   37.3397 C   0  0  0  0  0  0  0  0  0  0  0  0
   15.1717  -58.1489   37.6536 Br  0  0  0  0  0  0  0  0  0  0  0  0
   17.0282  -53.2127   38.0521 N   0  0  0  0  0  0  0  0  0  0  0  0
   17.8685  -52.4186   37.3610 C   0  0  0  0  0  0  0  0  0  0  0  0
   18.1064  -51.2481   37.7502 O   0  0  0  0  0  0  0  0  0  0  0  0
   18.4443  -52.8973   36.2538 N   0  0  0  0  0  0  0  0  0  0  0  0
   18.2114  -54.1418   35.8106 C   0  0  0  0  0  0  0  0  0  0  0  0
   18.7599  -54.5720   34.7767 O   0  0  0  0  0  0  0  0  0  0  0  0
   16.4216  -52.6515   39.2546 C   0  0  0  0  0  0  0  0  0  0  0  0
   19.1118  -52.3060   35.6809 H   0  0  0  0  0  0  0  0  0  0  0  0
  3  4  1  0  0  0
  4  5  1  0  0  0
  4  8  2  0  0  0
  5  6  1  0  0  0
  5  2  1  0  0  0
  6  7  2  0  0  0
  6 13  1  0  0  0
  7  8  1  0  0  0
  7  9  1  0  0  0
  9 10  1  0  0  0
  9 15  1  0  0  0
 10 11  2  0  0  0
 10 12  1  0  0  0
 12 13  1  0  0  0
 13 14  2  0  0  0
  2  1  1  0  0  0
  1 17  1  0  0  0
 17 18  1  0  0  0
 18 19  1  0  0  0
 19 20  1  0  0  0
 19 23  1  0  0  0
 20 21  2  0  0  0
 20 29  1  0  0  0
 21 22  1  0  0  0
 21 25  1  0  0  0
 22 23  2  0  0  0
 23 24  1  0  0  0
 25 26  1  0  0  0
 25 31  1  0  0  0
 26 27  2  0  0  0
 26 28  1  0  0  0
 28 29  1  0  0  0
 29 30  2  0  0  0
 12 16  1  0  0  0
 28 32  1  0  0  0
M  END
> <minimizedAffinity>
-8.91867

$$$$
1436


 33 36  0  0  0  0  0  0  0  0999 V2000
   18.1660  -57.2739   32.6385 O   0  0  0  0  0  0  0  0  0  0  0  0
   17.6338  -58.4725   32.9814 C   0  0  0  0  0  0  0  0  0  0  0  0
   16.4119  -59.0024   32.3541 C   0  0  0  0  0  0  0  0  0  0  0  0
   17.1611  -62.3828   32.4466 Br  0  0  0  0  0  0  0  0  0  0  0  0
   15.8124  -61.2777   33.2318 C   0  0  0  0  0  0  0  0  0  0  0  0
   15.6455  -59.9671   33.0679 N   0  0  0  0  0  0  0  0  0  0  0  0
   14.5312  -59.6421   33.7804 C   0  0  0  0  0  0  0  0  0  0  0  0
   14.0579  -60.7967   34.3648 C   0  0  0  0  0  0  0  0  0  0  0  0
   14.8505  -61.8040   34.0251 N   0  0  0  0  0  0  0  0  0  0  0  0
   12.9356  -60.7351   35.1344 N   0  0  0  0  0  0  0  0  0  0  0  0
   12.3287  -59.5611   35.2977 C   0  0  0  0  0  0  0  0  0  0  0  0
   11.2892  -59.5353   36.0182 O   0  0  0  0  0  0  0  0  0  0  0  0
   12.7814  -58.4306   34.7327 N   0  0  0  0  0  0  0  0  0  0  0  0
   13.8992  -58.4266   33.9520 C   0  0  0  0  0  0  0  0  0  0  0  0
   14.3130  -57.3636   33.4254 O   0  0  0  0  0  0  0  0  0  0  0  0
   12.4064  -61.9260   35.7666 C   0  0  0  0  0  0  0  0  0  0  0  0
   12.2956  -57.5186   34.8690 H   0  0  0  0  0  0  0  0  0  0  0  0
   17.7368  -56.2667   33.4871 C   0  0  0  0  0  0  0  0  0  0  0  0
   18.4270  -56.4115   34.8106 C   0  0  0  0  0  0  0  0  0  0  0  0
   17.9688  -55.4515   35.7641 N   0  0  0  0  0  0  0  0  0  0  0  0
   17.0138  -55.6522   36.6820 C   0  0  0  0  0  0  0  0  0  0  0  0
   16.8671  -54.4987   37.3876 C   0  0  0  0  0  0  0  0  0  0  0  0
   17.7343  -53.6251   36.8828 N   0  0  0  0  0  0  0  0  0  0  0  0
   18.4337  -54.1776   35.8779 C   0  0  0  0  0  0  0  0  0  0  0  0
   19.7959  -53.4183   34.7939 Br  0  0  0  0  0  0  0  0  0  0  0  0
   15.9657  -54.4275   38.3822 N   0  0  0  0  0  0  0  0  0  0  0  0
   15.2256  -55.4973   38.6632 C   0  0  0  0  0  0  0  0  0  0  0  0
   14.3851  -55.4164   39.5981 O   0  0  0  0  0  0  0  0  0  0  0  0
   15.3537  -56.6322   37.9871 N   0  0  0  0  0  0  0  0  0  0  0  0
   16.2353  -56.7500   36.9907 C   0  0  0  0  0  0  0  0  0  0  0  0
   16.3274  -57.8555   36.3672 O   0  0  0  0  0  0  0  0  0  0  0  0
   15.7951  -53.2081   39.1442 C   0  0  0  0  0  0  0  0  0  0  0  0
   14.7641  -57.4599   38.2224 H   0  0  0  0  0  0  0  0  0  0  0  0
  4  5  1  0  0  0
  5  6  1  0  0  0
  5  9  2  0  0  0
  6  7  1  0  0  0
  6  3  1  0  0  0
  7  8  2  0  0  0
  7 14  1  0  0  0
  8  9  1  0  0  0
  8 10  1  0  0  0
 10 11  1  0  0  0
 10 16  1  0  0  0
 11 12  2  0  0  0
 11 13  1  0  0  0
 13 14  1  0  0  0
 14 15  2  0  0  0
  3  2  1  0  0  0
  2  1  1  0  0  0
  1 18  1  0  0  0
 18 19  1  0  0  0
 19 20  1  0  0  0
 20 21  1  0  0  0
 20 24  1  0  0  0
 21 22  2  0  0  0
 21 30  1  0  0  0
 22 23  1  0  0  0
 22 26  1  0  0  0
 23 24  2  0  0  0
 24 25  1  0  0  0
 26 27  1  0  0  0
 26 32  1  0  0  0
 27 28  2  0  0  0
 27 29  1  0  0  0
 29 30  1  0  0  0
 30 31  2  0  0  0
 13 17  1  0  0  0
 29 33  1  0  0  0
M  END
> <minimizedAffinity>
-8.61992

$$$$
1444


 33 36  0  0  0  0  0  0  0  0999 V2000
   18.9925  -56.6571   34.1903 N   0  0  0  0  0  0  0  0  0  0  0  0
   17.9784  -57.2899   34.8358 C   0  0  0  0  0  0  0  0  0  0  0  0
   18.2692  -58.6336   34.8521 O   0  0  0  0  0  0  0  0  0  0  0  0
   19.7925  -57.3748   33.8601 H   0  0  0  0  0  0  0  0  0  0  0  0
   19.7464  -54.3285   34.4800 N   0  0  0  0  0  0  0  0  0  0  0  0
   19.9764  -53.3037   33.6690 N   0  0  0  0  0  0  0  0  0  0  0  0
   19.7034  -53.6125   32.4128 C   0  0  0  0  0  0  0  0  0  0  0  0
   19.2639  -54.9446   32.4272 C   0  0  0  0  0  0  0  0  0  0  0  0
   19.2956  -55.3805   33.7325 C   0  0  0  0  0  0  0  0  0  0  0  0
   19.9253  -54.3508   35.8898 C   0  0  0  0  0  0  0  0  0  0  0  0
   20.4556  -51.3465   36.2197 Cl  0  0  0  0  0  0  0  0  0  0  0  0
   19.0705  -52.2034   36.8557 C   0  0  0  0  0  0  0  0  0  0  0  0
   18.9460  -53.5445   36.6416 C   0  0  0  0  0  0  0  0  0  0  0  0
   17.8357  -54.1686   37.1650 C   0  0  0  0  0  0  0  0  0  0  0  0
   16.8809  -53.4885   37.8765 C   0  0  0  0  0  0  0  0  0  0  0  0
   17.0168  -52.1327   38.0867 C   0  0  0  0  0  0  0  0  0  0  0  0
   18.1241  -51.5021   37.5663 C   0  0  0  0  0  0  0  0  0  0  0  0
   16.7128  -57.0495   35.5096 C   0  0  0  0  0  0  0  0  0  0  0  0
   15.4559  -57.5161   35.1086 N   0  0  0  0  0  0  0  0  0  0  0  0
   14.9477  -57.3729   33.7181 C   0  0  0  0  0  0  0  0  0  0  0  0
   13.4667  -57.6713   33.8223 C   0  0  0  0  0  0  0  0  0  0  0  0
   13.2931  -59.1062   34.2447 C   0  0  0  0  0  0  0  0  0  0  0  0
   13.7646  -59.2688   35.6742 C   0  0  0  0  0  0  0  0  0  0  0  0
   14.5663  -58.0791   36.0832 C   0  0  0  0  0  0  0  0  0  0  0  0
   14.3729  -57.5166   37.2784 C   0  0  0  0  0  0  0  0  0  0  0  0
   13.4862  -58.1032   38.2459 N   0  0  0  0  0  0  0  0  0  0  0  0
   13.4220  -57.2750   39.3812 N   0  0  0  0  0  0  0  0  0  0  0  0
   14.2575  -56.1617   39.1566 C   0  0  0  0  0  0  0  0  0  0  0  0
   14.4978  -55.1831   39.8997 O   0  0  0  0  0  0  0  0  0  0  0  0
   14.8330  -56.3340   37.8490 N   0  0  0  0  0  0  0  0  0  0  0  0
   12.9344  -58.9826   38.2290 H   0  0  0  0  0  0  0  0  0  0  0  0
   12.8645  -57.4256   40.2583 H   0  0  0  0  0  0  0  0  0  0  0  0
   15.4726  -55.6540   37.4062 H   0  0  0  0  0  0  0  0  0  0  0  0
 11 12  1  0  0  0
 12 13  2  0  0  0
 12 17  1  0  0  0
 13 14  1  0  0  0
 13 10  1  0  0  0
 14 15  2  0  0  0
 15 16  1  0  0  0
 16 17  2  0  0  0
 10  5  1  0  0  0
  5  6  1  0  0  0
  5  9  1  0  0  0
  6  7  2  0  0  0
  7  8  1  0  0  0
  8  9  2  0  0  0
  9  1  1  0  0  0
  1  2  1  0  0  0
  2  3  2  0  0  0
  2 18  1  0  0  0
 18 19  1  0  0  0
 19 20  1  0  0  0
 19 24  1  0  0  0
 20 21  1  0  0  0
 21 22  1  0  0  0
 22 23  1  0  0  0
 23 24  1  0  0  0
 24 25  2  0  0  0
 25 26  1  0  0  0
 25 30  1  0  0  0
 26 27  1  0  0  0
 27 28  1  0  0  0
 28 29  2  0  0  0
 28 30  1  0  0  0
  1  4  1  0  0  0
 26 31  1  0  0  0
 27 32  1  0  0  0
 30 33  1  0  0  0
M  END
> <minimizedAffinity>
-10.24356

$$$$
1447


 38 41  0  0  0  0  0  0  0  0999 V2000
   16.7163  -54.9441   38.0526 C   0  0  0  0  0  0  0  0  0  0  0  0
   17.4345  -54.2134   38.9657 N   0  0  0  0  0  0  0  0  0  0  0  0
   18.3740  -53.5521   38.3485 N   0  0  0  0  0  0  0  0  0  0  0  0
   18.3505  -53.7812   37.0469 N   0  0  0  0  0  0  0  0  0  0  0  0
   17.3377  -54.6389   36.8369 C   0  0  0  0  0  0  0  0  0  0  0  0
   19.2327  -53.1747   36.1191 C   0  0  0  0  0  0  0  0  0  0  0  0
   19.9373  -53.7356   35.1132 N   0  0  0  0  0  0  0  0  0  0  0  0
   20.6230  -52.8163   34.4870 O   0  0  0  0  0  0  0  0  0  0  0  0
   20.4141  -51.6434   35.0282 N   0  0  0  0  0  0  0  0  0  0  0  0
   19.5551  -51.8282   36.0446 C   0  0  0  0  0  0  0  0  0  0  0  0
   19.0795  -50.7947   36.8803 N   0  0  0  0  0  0  0  0  0  0  0  0
   18.4167  -50.1006   36.4897 H   0  0  0  0  0  0  0  0  0  0  0  0
   19.3663  -50.7012   37.8712 H   0  0  0  0  0  0  0  0  0  0  0  0
   15.4601  -57.1750   38.1660 N   0  0  0  0  0  0  0  0  0  0  0  0
   15.5947  -55.8082   38.3687 C   0  0  0  0  0  0  0  0  0  0  0  0
   14.5937  -55.2052   38.9113 O   0  0  0  0  0  0  0  0  0  0  0  0
   16.1606  -57.8259   37.7380 H   0  0  0  0  0  0  0  0  0  0  0  0
   13.8746  -58.9047   38.0663 C   0  0  0  0  0  0  0  0  0  0  0  0
   14.2254  -57.7804   38.5811 N   0  0  0  0  0  0  0  0  0  0  0  0
   10.3964  -62.7308   36.8798 Br  0  0  0  0  0  0  0  0  0  0  0  0
   10.9968  -61.3112   37.9812 C   0  0  0  0  0  0  0  0  0  0  0  0
   10.2799  -60.9538   39.0855 C   0  0  0  0  0  0  0  0  0  0  0  0
   10.7460  -59.9056   39.8748 C   0  0  0  0  0  0  0  0  0  0  0  0
   11.9220  -59.2505   39.5234 C   0  0  0  0  0  0  0  0  0  0  0  0
   12.6472  -59.6028   38.4167 C   0  0  0  0  0  0  0  0  0  0  0  0
   12.1742  -60.6410   37.6455 C   0  0  0  0  0  0  0  0  0  0  0  0
   12.9166  -60.9893   36.5277 O   0  0  0  0  0  0  0  0  0  0  0  0
    9.7738  -59.3848   41.4165 Br  0  0  0  0  0  0  0  0  0  0  0  0
    9.1055  -61.5941   39.4536 O   0  0  0  0  0  0  0  0  0  0  0  0
   12.6108  -61.7458   35.9285 H   0  0  0  0  0  0  0  0  0  0  0  0
    8.5942  -61.3106   40.2733 H   0  0  0  0  0  0  0  0  0  0  0  0
   16.8866  -55.1699   35.5471 C   0  0  0  0  0  0  0  0  0  0  0  0
   17.1800  -56.5910   35.3435 N   0  0  0  0  0  0  0  0  0  0  0  0
   18.2022  -56.7106   34.2853 C   0  0  0  0  0  0  0  0  0  0  0  0
   17.8329  -55.8506   33.1275 C   0  0  0  0  0  0  0  0  0  0  0  0
   16.5603  -56.1568   32.7121 O   0  0  0  0  0  0  0  0  0  0  0  0
   16.0279  -57.2761   33.2961 C   0  0  0  0  0  0  0  0  0  0  0  0
   15.9613  -57.2370   34.8006 C   0  0  0  0  0  0  0  0  0  0  0  0
 20 21  1  0  0  0
 21 22  2  0  0  0
 21 26  1  0  0  0
 22 23  1  0  0  0
 22 29  1  0  0  0
 23 24  2  0  0  0
 23 28  1  0  0  0
 24 25  1  0  0  0
 25 26  2  0  0  0
 25 18  1  0  0  0
 26 27  1  0  0  0
 18 19  2  0  0  0
 19 14  1  0  0  0
 14 15  1  0  0  0
 15 16  2  0  0  0
 15  1  1  0  0  0
  1  2  1  0  0  0
  1  5  2  0  0  0
  2  3  2  0  0  0
  3  4  1  0  0  0
  4  5  1  0  0  0
  4  6  1  0  0  0
  5 32  1  0  0  0
 32 33  1  0  0  0
 33 34  1  0  0  0
 33 38  1  0  0  0
 34 35  1  0  0  0
 35 36  1  0  0  0
 36 37  1  0  0  0
 37 38  1  0  0  0
  6  7  2  0  0  0
  6 10  1  0  0  0
  7  8  1  0  0  0
  8  9  1  0  0  0
  9 10  2  0  0  0
 10 11  1  0  0  0
 27 30  1  0  0  0
 14 17  1  0  0  0
 11 12  1  0  0  0
 11 13  1  0  0  0
 29 31  1  0  0  0
M  END
> <minimizedAffinity>
-9.21740

$$$$
1466


 29 32  0  0  0  0  0  0  0  0999 V2000
   13.0388  -58.7710   37.4951 N   0  0  0  0  0  0  0  0  0  0  0  0
   14.1228  -59.3093   38.0283 N   0  0  0  0  0  0  0  0  0  0  0  0
   14.9974  -58.3672   38.3534 N   0  0  0  0  0  0  0  0  0  0  0  0
   14.4936  -57.1651   38.0328 C   0  0  0  0  0  0  0  0  0  0  0  0
   13.2574  -57.4290   37.4914 C   0  0  0  0  0  0  0  0  0  0  0  0
   15.1145  -55.8654   38.2151 C   0  0  0  0  0  0  0  0  0  0  0  0
   16.1643  -55.3639   37.5400 N   0  0  0  0  0  0  0  0  0  0  0  0
   16.4411  -54.1328   37.9994 C   0  0  0  0  0  0  0  0  0  0  0  0
   15.5405  -53.8940   38.9659 N   0  0  0  0  0  0  0  0  0  0  0  0
   14.7731  -54.9356   39.0679 O   0  0  0  0  0  0  0  0  0  0  0  0
   17.5153  -53.2275   37.5372 C   0  0  0  0  0  0  0  0  0  0  0  0
   18.5848  -53.7366   36.8377 C   0  0  0  0  0  0  0  0  0  0  0  0
   19.5686  -52.9216   36.4113 N   0  0  0  0  0  0  0  0  0  0  0  0
   19.5698  -51.5919   36.6355 C   0  0  0  0  0  0  0  0  0  0  0  0
   18.4912  -51.0904   37.3381 C   0  0  0  0  0  0  0  0  0  0  0  0
   17.4691  -51.8838   37.7898 C   0  0  0  0  0  0  0  0  0  0  0  0
   11.8365  -59.4517   37.0006 C   0  0  0  0  0  0  0  0  0  0  0  0
   12.0831  -59.7230   35.5335 C   0  0  0  0  0  0  0  0  0  0  0  0
   13.8129  -58.6981   34.1071 C   0  0  0  0  0  0  0  0  0  0  0  0
   12.8797  -58.1319   33.4473 O   0  0  0  0  0  0  0  0  0  0  0  0
   13.4882  -59.5397   35.2041 N   0  0  0  0  0  0  0  0  0  0  0  0
   14.2378  -60.0073   35.7514 H   0  0  0  0  0  0  0  0  0  0  0  0
   17.7465  -55.2783   32.8161 Br  0  0  0  0  0  0  0  0  0  0  0  0
   17.0076  -57.0165   33.0988 C   0  0  0  0  0  0  0  0  0  0  0  0
   17.8135  -58.1150   32.8994 C   0  0  0  0  0  0  0  0  0  0  0  0
   17.3190  -59.3603   33.0905 N   0  0  0  0  0  0  0  0  0  0  0  0
   16.0360  -59.4899   33.4763 C   0  0  0  0  0  0  0  0  0  0  0  0
   15.1842  -58.4444   33.6907 C   0  0  0  0  0  0  0  0  0  0  0  0
   15.6796  -57.1696   33.4980 C   0  0  0  0  0  0  0  0  0  0  0  0
 23 24  1  0  0  0
 24 25  2  0  0  0
 24 29  1  0  0  0
 25 26  1  0  0  0
 26 27  2  0  0  0
 27 28  1  0  0  0
 28 29  2  0  0  0
 28 19  1  0  0  0
 19 20  2  0  0  0
 19 21  1  0  0  0
 21 18  1  0  0  0
 18 17  1  0  0  0
 17  1  1  0  0  0
  1  2  1  0  0  0
  1  5  1  0  0  0
  2  3  2  0  0  0
  3  4  1  0  0  0
  4  5  2  0  0  0
  4  6  1  0  0  0
  6  7  2  0  0  0
  6 10  1  0  0  0
  7  8  1  0  0  0
  8  9  2  0  0  0
  8 11  1  0  0  0
  9 10  1  0  0  0
 11 12  2  0  0  0
 11 16  1  0  0  0
 12 13  1  0  0  0
 13 14  2  0  0  0
 14 15  1  0  0  0
 15 16  2  0  0  0
 21 22  1  0  0  0
M  END
> <minimizedAffinity>
-8.91916

$$$$
1471


 31 34  0  0  0  0  0  0  0  0999 V2000
   18.1719  -56.3607   34.8820 C   0  0  0  0  0  0  0  0  0  0  0  0
   17.7430  -55.9697   36.1204 C   0  0  0  0  0  0  0  0  0  0  0  0
   18.0070  -54.7472   36.6757 N   0  0  0  0  0  0  0  0  0  0  0  0
   18.7273  -53.8935   35.9554 C   0  0  0  0  0  0  0  0  0  0  0  0
   19.2007  -54.1939   34.7052 C   0  0  0  0  0  0  0  0  0  0  0  0
   18.9109  -55.4946   34.1311 C   0  0  0  0  0  0  0  0  0  0  0  0
   19.4930  -55.5035   32.9173 N   0  0  0  0  0  0  0  0  0  0  0  0
   20.1009  -54.3497   32.6992 N   0  0  0  0  0  0  0  0  0  0  0  0
   19.9504  -53.5318   33.7491 C   0  0  0  0  0  0  0  0  0  0  0  0
   20.3825  -52.3509   33.9177 O   0  0  0  0  0  0  0  0  0  0  0  0
   20.6435  -54.0548   31.8398 H   0  0  0  0  0  0  0  0  0  0  0  0
   14.3029  -58.5802   34.4166 N   0  0  0  0  0  0  0  0  0  0  0  0
   14.8430  -59.4776   33.4295 C   0  0  0  0  0  0  0  0  0  0  0  0
   16.3010  -59.2306   33.1334 C   0  0  0  0  0  0  0  0  0  0  0  0
   16.6523  -57.9378   33.6566 N   0  0  0  0  0  0  0  0  0  0  0  0
   15.7281  -56.8554   33.4354 C   0  0  0  0  0  0  0  0  0  0  0  0
   14.5284  -57.1286   34.3533 C   0  0  0  0  0  0  0  0  0  0  0  0
   17.8456  -57.6807   34.3664 C   0  0  0  0  0  0  0  0  0  0  0  0
   18.6898  -58.5982   34.5861 O   0  0  0  0  0  0  0  0  0  0  0  0
   15.7119  -58.6708   37.0751 Cl  0  0  0  0  0  0  0  0  0  0  0  0
   14.0388  -59.1488   36.7707 C   0  0  0  0  0  0  0  0  0  0  0  0
   13.5291  -59.0522   35.4944 C   0  0  0  0  0  0  0  0  0  0  0  0
   12.2303  -59.4293   35.2869 C   0  0  0  0  0  0  0  0  0  0  0  0
   11.4153  -59.9026   36.3038 C   0  0  0  0  0  0  0  0  0  0  0  0
   11.9704  -59.9864   37.5853 C   0  0  0  0  0  0  0  0  0  0  0  0
   13.2711  -59.6136   37.8173 C   0  0  0  0  0  0  0  0  0  0  0  0
   17.5326  -54.4492   38.0183 C   0  0  0  0  0  0  0  0  0  0  0  0
   16.2847  -53.6904   38.1075 C   0  0  0  0  0  0  0  0  0  0  0  0
   15.3627  -53.7464   39.2435 C   0  0  0  0  0  0  0  0  0  0  0  0
   14.7030  -54.8686   39.5737 O   0  0  0  0  0  0  0  0  0  0  0  0
   14.2733  -55.7659   38.6842 C   0  0  0  0  0  0  0  0  0  0  0  0
 20 21  1  0  0  0
 21 22  2  0  0  0
 21 26  1  0  0  0
 22 23  1  0  0  0
 22 12  1  0  0  0
 23 24  2  0  0  0
 24 25  1  0  0  0
 25 26  2  0  0  0
 12 13  1  0  0  0
 12 17  1  0  0  0
 13 14  1  0  0  0
 14 15  1  0  0  0
 15 16  1  0  0  0
 15 18  1  0  0  0
 16 17  1  0  0  0
 18 19  2  0  0  0
 18  1  1  0  0  0
  1  2  2  0  0  0
  1  6  1  0  0  0
  2  3  1  0  0  0
  3  4  1  0  0  0
  3 27  1  0  0  0
  4  5  2  0  0  0
  5  6  1  0  0  0
  5  9  1  0  0  0
  6  7  2  0  0  0
  7  8  1  0  0  0
  8  9  1  0  0  0
  9 10  2  0  0  0
 27 28  1  0  0  0
 28 29  1  0  0  0
 29 30  1  0  0  0
 30 31  1  0  0  0
  8 11  1  0  0  0
M  END
> <minimizedAffinity>
-8.78319

$$$$
1477


 35 39  0  0  0  0  0  0  0  0999 V2000
   16.0333  -59.2847   33.7571 C   0  0  0  0  0  0  0  0  0  0  0  0
   14.6838  -59.0257   34.0068 N   0  0  0  0  0  0  0  0  0  0  0  0
   14.4396  -57.6355   33.6341 C   0  0  0  0  0  0  0  0  0  0  0  0
   13.3344  -57.0403   33.5720 O   0  0  0  0  0  0  0  0  0  0  0  0
   15.7026  -56.9822   33.3278 C   0  0  0  0  0  0  0  0  0  0  0  0
   15.8589  -55.7699   32.9604 O   0  0  0  0  0  0  0  0  0  0  0  0
   16.7248  -57.9767   33.5173 C   0  0  0  0  0  0  0  0  0  0  0  0
   18.0221  -57.7638   33.4396 C   0  0  0  0  0  0  0  0  0  0  0  0
   18.8307  -58.9142   33.5961 O   0  0  0  0  0  0  0  0  0  0  0  0
   18.6723  -56.4855   33.2197 C   0  0  0  0  0  0  0  0  0  0  0  0
   18.9980  -55.4762   34.0423 N   0  0  0  0  0  0  0  0  0  0  0  0
   19.5580  -54.4428   33.3956 C   0  0  0  0  0  0  0  0  0  0  0  0
   19.5966  -54.8003   32.0928 N   0  0  0  0  0  0  0  0  0  0  0  0
   19.0739  -56.0205   31.9482 C   0  0  0  0  0  0  0  0  0  0  0  0
   18.9283  -56.7761   30.6964 C   0  0  0  0  0  0  0  0  0  0  0  0
   19.9853  -53.3037   34.0508 C   0  0  0  0  0  0  0  0  0  0  0  0
   19.8304  -53.2244   35.4086 C   0  0  0  0  0  0  0  0  0  0  0  0
   19.2544  -54.2889   36.0752 C   0  0  0  0  0  0  0  0  0  0  0  0
   18.8405  -55.4086   35.3922 C   0  0  0  0  0  0  0  0  0  0  0  0
   17.3029  -60.6280   28.7635 Br  0  0  0  0  0  0  0  0  0  0  0  0
   17.1128  -61.0022   30.6142 C   0  0  0  0  0  0  0  0  0  0  0  0
   16.6292  -60.0453   31.4791 C   0  0  0  0  0  0  0  0  0  0  0  0
   16.4902  -60.3161   32.8469 C   0  0  0  0  0  0  0  0  0  0  0  0
   16.8683  -61.5838   33.2310 C   0  0  0  0  0  0  0  0  0  0  0  0
   17.3500  -62.5606   32.4091 C   0  0  0  0  0  0  0  0  0  0  0  0
   17.4742  -62.2558   31.0656 C   0  0  0  0  0  0  0  0  0  0  0  0
   13.7019  -59.8542   34.6051 C   0  0  0  0  0  0  0  0  0  0  0  0
   13.0804  -59.5053   35.8805 C   0  0  0  0  0  0  0  0  0  0  0  0
   13.7331  -59.8046   37.1210 N   0  0  0  0  0  0  0  0  0  0  0  0
   14.7662  -58.7856   37.3076 C   0  0  0  0  0  0  0  0  0  0  0  0
   14.2648  -57.5769   38.0304 C   0  0  0  0  0  0  0  0  0  0  0  0
   12.8639  -57.5844   38.1121 O   0  0  0  0  0  0  0  0  0  0  0  0
   12.5498  -58.6599   38.9125 C   0  0  0  0  0  0  0  0  0  0  0  0
   12.8408  -59.9407   38.2223 C   0  0  0  0  0  0  0  0  0  0  0  0
   14.3031  -60.7000   37.0582 H   0  0  0  0  0  0  0  0  0  0  0  0
 20 21  1  0  0  0
 21 22  2  0  0  0
 21 26  1  0  0  0
 22 23  1  0  0  0
 23 24  2  0  0  0
 23  1  1  0  0  0
 24 25  1  0  0  0
 25 26  2  0  0  0
  1  2  1  0  0  0
  1  7  1  0  0  0
  2  3  1  0  0  0
  2 27  1  0  0  0
  3  4  2  0  0  0
  3  5  1  0  0  0
  5  6  2  0  0  0
  5  7  1  0  0  0
  7  8  2  0  0  0
  8  9  1  0  0  0
  8 10  1  0  0  0
 10 11  1  0  0  0
 10 14  2  0  0  0
 11 12  1  0  0  0
 11 19  1  0  0  0
 12 13  2  0  0  0
 12 16  1  0  0  0
 13 14  1  0  0  0
 14 15  1  0  0  0
 16 17  2  0  0  0
 17 18  1  0  0  0
 18 19  2  0  0  0
 27 28  1  0  0  0
 28 29  1  0  0  0
 29 30  1  0  0  0
 29 34  1  0  0  0
 30 31  1  0  0  0
 31 32  1  0  0  0
 32 33  1  0  0  0
 33 34  1  0  0  0
 29 35  1  0  0  0
M  CHG 1   9  -1
M  CHG 1  29   1
M  END
> <minimizedAffinity>
-8.51125

$$$$
1486


 31 34  0  0  0  0  0  0  0  0999 V2000
   14.0341  -57.9188   35.6362 N   0  0  0  0  0  0  0  0  0  0  0  0
   14.3846  -56.9298   36.4265 N   0  0  0  0  0  0  0  0  0  0  0  0
   13.9812  -57.1652   37.6839 C   0  0  0  0  0  0  0  0  0  0  0  0
   13.3530  -58.3499   37.6769 N   0  0  0  0  0  0  0  0  0  0  0  0
   13.3899  -58.8136   36.3929 C   0  0  0  0  0  0  0  0  0  0  0  0
   12.8254  -60.0754   35.9173 C   0  0  0  0  0  0  0  0  0  0  0  0
   11.3415  -60.1927   36.1736 C   0  0  0  0  0  0  0  0  0  0  0  0
   11.0363  -60.4112   37.6391 C   0  0  0  0  0  0  0  0  0  0  0  0
   11.2765  -59.1952   38.4793 C   0  0  0  0  0  0  0  0  0  0  0  0
   12.7489  -59.0093   38.8177 C   0  0  0  0  0  0  0  0  0  0  0  0
   14.2882  -58.0263   34.2306 C   0  0  0  0  0  0  0  0  0  0  0  0
   15.7268  -58.2726   33.9455 C   0  0  0  0  0  0  0  0  0  0  0  0
   16.0739  -59.4543   33.6809 O   0  0  0  0  0  0  0  0  0  0  0  0
   19.9510  -53.7707   33.9678 Br  0  0  0  0  0  0  0  0  0  0  0  0
   18.6293  -55.1694   33.9556 C   0  0  0  0  0  0  0  0  0  0  0  0
   18.8448  -56.3272   34.6831 C   0  0  0  0  0  0  0  0  0  0  0  0
   17.8931  -57.3425   34.6781 C   0  0  0  0  0  0  0  0  0  0  0  0
   16.7256  -57.2259   33.9600 C   0  0  0  0  0  0  0  0  0  0  0  0
   16.5438  -56.0616   33.2476 C   0  0  0  0  0  0  0  0  0  0  0  0
   17.4659  -55.0439   33.2344 C   0  0  0  0  0  0  0  0  0  0  0  0
   14.1722  -56.3142   38.8665 C   0  0  0  0  0  0  0  0  0  0  0  0
   15.5504  -56.0254   39.1200 N   0  0  0  0  0  0  0  0  0  0  0  0
   16.1430  -56.7159   39.6036 H   0  0  0  0  0  0  0  0  0  0  0  0
   16.1707  -54.8031   38.7331 C   0  0  0  0  0  0  0  0  0  0  0  0
   15.8418  -53.5970   39.3091 C   0  0  0  0  0  0  0  0  0  0  0  0
   16.4495  -52.4273   38.9317 C   0  0  0  0  0  0  0  0  0  0  0  0
   17.4034  -52.4482   37.9633 C   0  0  0  0  0  0  0  0  0  0  0  0
   17.7349  -53.6531   37.3840 C   0  0  0  0  0  0  0  0  0  0  0  0
   17.1309  -54.8362   37.7562 C   0  0  0  0  0  0  0  0  0  0  0  0
   18.0288  -51.2912   37.5641 O   0  0  0  0  0  0  0  0  0  0  0  0
   19.1891  -51.2838   36.7699 C   0  0  0  0  0  0  0  0  0  0  0  0
 14 15  1  0  0  0
 15 16  2  0  0  0
 15 20  1  0  0  0
 16 17  1  0  0  0
 17 18  2  0  0  0
 18 19  1  0  0  0
 18 12  1  0  0  0
 19 20  2  0  0  0
 12 13  2  0  0  0
 12 11  1  0  0  0
 11  1  1  0  0  0
  1  2  1  0  0  0
  1  5  2  0  0  0
  2  3  2  0  0  0
  3  4  1  0  0  0
  3 21  1  0  0  0
  4  5  1  0  0  0
  4 10  1  0  0  0
  5  6  1  0  0  0
  6  7  1  0  0  0
  7  8  1  0  0  0
  8  9  1  0  0  0
  9 10  1  0  0  0
 21 22  1  0  0  0
 22 24  1  0  0  0
 24 25  2  0  0  0
 24 29  1  0  0  0
 25 26  1  0  0  0
 26 27  2  0  0  0
 27 28  1  0  0  0
 27 30  1  0  0  0
 28 29  2  0  0  0
 30 31  1  0  0  0
 22 23  1  0  0  0
M  END
> <minimizedAffinity>
-9.39242

$$$$
1487


 29 32  0  0  0  0  0  0  0  0999 V2000
   16.5596  -57.9293   36.8033 N   0  0  0  0  0  0  0  0  0  0  0  0
   17.7282  -57.6154   36.0199 C   0  0  0  0  0  0  0  0  0  0  0  0
   17.5934  -58.0888   34.6340 C   0  0  0  0  0  0  0  0  0  0  0  0
   16.3127  -58.7369   34.6244 N   0  0  0  0  0  0  0  0  0  0  0  0
   15.7400  -59.7472   33.7662 C   0  0  0  0  0  0  0  0  0  0  0  0
   14.5017  -59.3326   33.0385 C   0  0  0  0  0  0  0  0  0  0  0  0
   13.9080  -58.0407   33.4801 C   0  0  0  0  0  0  0  0  0  0  0  0
   13.2013  -58.2788   34.8337 C   0  0  0  0  0  0  0  0  0  0  0  0
   14.2846  -58.0114   35.8632 C   0  0  0  0  0  0  0  0  0  0  0  0
   15.5788  -58.2124   35.7645 C   0  0  0  0  0  0  0  0  0  0  0  0
   18.5576  -59.1050   34.3855 O   0  0  0  0  0  0  0  0  0  0  0  0
   16.5968  -58.7528   37.3939 H   0  0  0  0  0  0  0  0  0  0  0  0
   19.2822  -58.9606   35.0793 H   0  0  0  0  0  0  0  0  0  0  0  0
   16.4431  -52.8467   37.8424 Cl  0  0  0  0  0  0  0  0  0  0  0  0
   15.9373  -54.5012   38.1505 C   0  0  0  0  0  0  0  0  0  0  0  0
   16.3990  -55.5436   37.3510 C   0  0  0  0  0  0  0  0  0  0  0  0
   16.0095  -56.8467   37.5397 C   0  0  0  0  0  0  0  0  0  0  0  0
   15.1158  -57.0731   38.5932 C   0  0  0  0  0  0  0  0  0  0  0  0
   14.6424  -56.0465   39.4027 C   0  0  0  0  0  0  0  0  0  0  0  0
   15.0535  -54.7597   39.1785 C   0  0  0  0  0  0  0  0  0  0  0  0
   17.7827  -57.1220   33.5799 C   0  0  0  0  0  0  0  0  0  0  0  0
   18.6266  -57.3311   32.4890 C   0  0  0  0  0  0  0  0  0  0  0  0
   18.7862  -56.4075   31.4651 C   0  0  0  0  0  0  0  0  0  0  0  0
   18.0689  -55.2127   31.5264 C   0  0  0  0  0  0  0  0  0  0  0  0
   17.2333  -54.9678   32.5775 C   0  0  0  0  0  0  0  0  0  0  0  0
   17.0986  -55.9272   33.5937 C   0  0  0  0  0  0  0  0  0  0  0  0
   19.6596  -56.6864   30.3893 N   0  0  0  0  0  0  0  0  0  0  0  0
   19.5466  -56.0349   29.3044 O   0  0  0  0  0  0  0  0  0  0  0  0
   20.6232  -57.6229   30.4391 O   0  0  0  0  0  0  0  0  0  0  0  0
 14 15  1  0  0  0
 15 16  2  0  0  0
 15 20  1  0  0  0
 16 17  1  0  0  0
 17 18  2  0  0  0
 17  1  1  0  0  0
 18 19  1  0  0  0
 19 20  2  0  0  0
  1  2  1  0  0  0
  1 10  1  0  0  0
  2  3  1  0  0  0
  3  4  1  0  0  0
  3 11  1  0  0  0
  3 21  1  0  0  0
  4  5  1  0  0  0
  4 10  1  0  0  0
  5  6  1  0  0  0
  6  7  1  0  0  0
  7  8  1  0  0  0
  8  9  1  0  0  0
  9 10  2  0  0  0
 21 22  2  0  0  0
 21 26  1  0  0  0
 22 23  1  0  0  0
 23 24  2  0  0  0
 23 27  1  0  0  0
 24 25  1  0  0  0
 25 26  2  0  0  0
 27 28  2  0  0  0
 27 29  1  0  0  0
  1 12  1  0  0  0
 11 13  1  0  0  0
M  CHG 1   1   1
M  CHG 1  29  -1
M  END
> <minimizedAffinity>
-8.37183

$$$$
1491


 34 38  0  0  0  0  0  0  0  0999 V2000
   20.8595  -53.9258   32.5581 F   0  0  0  0  0  0  0  0  0  0  0  0
   19.9140  -54.4731   33.3427 C   0  0  0  0  0  0  0  0  0  0  0  0
   19.8495  -53.9262   34.6210 C   0  0  0  0  0  0  0  0  0  0  0  0
   18.9228  -54.3839   35.5311 C   0  0  0  0  0  0  0  0  0  0  0  0
   18.0709  -55.3882   35.1370 C   0  0  0  0  0  0  0  0  0  0  0  0
   18.1503  -55.9209   33.8543 C   0  0  0  0  0  0  0  0  0  0  0  0
   19.0679  -55.4757   32.9411 C   0  0  0  0  0  0  0  0  0  0  0  0
   17.1713  -55.8193   36.0440 N   0  0  0  0  0  0  0  0  0  0  0  0
   17.0897  -55.3071   37.2851 C   0  0  0  0  0  0  0  0  0  0  0  0
   17.9287  -54.3010   37.7106 C   0  0  0  0  0  0  0  0  0  0  0  0
   18.8622  -53.8305   36.8174 C   0  0  0  0  0  0  0  0  0  0  0  0
   19.6559  -52.9151   37.1399 O   0  0  0  0  0  0  0  0  0  0  0  0
   19.1228  -56.0418   31.6677 N   0  0  0  0  0  0  0  0  0  0  0  0
   17.8499  -56.3180   31.0521 C   0  0  0  0  0  0  0  0  0  0  0  0
   18.0644  -56.7991   29.5976 C   0  0  0  0  0  0  0  0  0  0  0  0
   18.7744  -58.0124   29.7025 N   0  0  0  0  0  0  0  0  0  0  0  0
   20.1800  -57.7522   30.2029 C   0  0  0  0  0  0  0  0  0  0  0  0
   19.9444  -57.2039   31.5769 C   0  0  0  0  0  0  0  0  0  0  0  0
   18.4395  -59.3088   29.5014 C   0  0  0  0  0  0  0  0  0  0  0  0
   19.4208  -60.1688   29.6320 O   0  0  0  0  0  0  0  0  0  0  0  0
   19.5821  -55.3126   31.0390 H   0  0  0  0  0  0  0  0  0  0  0  0
   17.1858  -59.9235   29.1642 C   0  0  0  0  0  0  0  0  0  0  0  0
   16.5347  -60.8173   29.9512 C   0  0  0  0  0  0  0  0  0  0  0  0
   15.2959  -61.3449   29.6096 C   0  0  0  0  0  0  0  0  0  0  0  0
   14.7042  -60.9561   28.4356 C   0  0  0  0  0  0  0  0  0  0  0  0
   15.3174  -60.0607   27.6058 C   0  0  0  0  0  0  0  0  0  0  0  0
   16.5309  -59.5603   27.9690 C   0  0  0  0  0  0  0  0  0  0  0  0
   14.4855  -62.5030   30.6670 Cl  0  0  0  0  0  0  0  0  0  0  0  0
   17.8266  -53.7507   39.0756 C   0  0  0  0  0  0  0  0  0  0  0  0
   18.5870  -54.0977   39.9931 O   0  0  0  0  0  0  0  0  0  0  0  0
   16.8467  -52.8166   39.3239 O   0  0  0  0  0  0  0  0  0  0  0  0
   16.2706  -56.8919   35.6056 C   0  0  0  0  0  0  0  0  0  0  0  0
   15.2773  -57.4653   36.5187 C   0  0  0  0  0  0  0  0  0  0  0  0
   16.5040  -58.2464   36.3534 C   0  0  0  0  0  0  0  0  0  0  0  0
  1  2  1  0  0  0
  2  3  2  0  0  0
  2  7  1  0  0  0
  3  4  1  0  0  0
  4  5  2  0  0  0
  4 11  1  0  0  0
  5  6  1  0  0  0
  5  8  1  0  0  0
  6  7  2  0  0  0
  7 13  1  0  0  0
 13 14  1  0  0  0
 13 18  1  0  0  0
 14 15  1  0  0  0
 15 16  1  0  0  0
 16 17  1  0  0  0
 16 19  1  0  0  0
 17 18  1  0  0  0
 19 20  2  0  0  0
 19 22  1  0  0  0
 22 23  2  0  0  0
 22 27  1  0  0  0
 23 24  1  0  0  0
 24 25  2  0  0  0
 24 28  1  0  0  0
 25 26  1  0  0  0
 26 27  2  0  0  0
  8  9  1  0  0  0
  8 32  1  0  0  0
  9 10  2  0  0  0
 10 11  1  0  0  0
 10 29  1  0  0  0
 11 12  2  0  0  0
 29 30  2  0  0  0
 29 31  1  0  0  0
 32 33  1  0  0  0
 32 34  1  0  0  0
 33 34  1  0  0  0
 13 21  1  0  0  0
M  CHG 1  13   1
M  END
> <minimizedAffinity>
-9.45359

$$$$
1506


 32 35  0  0  0  0  0  0  0  0999 V2000
   13.7820  -57.1158   37.1847 N   0  0  0  0  0  0  0  0  0  0  0  0
   13.8745  -58.4799   36.7273 C   0  0  0  0  0  0  0  0  0  0  0  0
   13.8532  -59.3991   37.5606 O   0  0  0  0  0  0  0  0  0  0  0  0
   13.7759  -56.4174   36.4458 H   0  0  0  0  0  0  0  0  0  0  0  0
   13.9935  -58.8083   35.2870 C   0  0  0  0  0  0  0  0  0  0  0  0
   15.3960  -59.3165   35.0373 C   0  0  0  0  0  0  0  0  0  0  0  0
   16.3281  -58.1312   35.1526 C   0  0  0  0  0  0  0  0  0  0  0  0
   16.0558  -57.3025   33.9819 N   0  0  0  0  0  0  0  0  0  0  0  0
   14.7299  -57.2019   33.4737 C   0  0  0  0  0  0  0  0  0  0  0  0
   13.6584  -57.6781   34.3857 C   0  0  0  0  0  0  0  0  0  0  0  0
   17.1482  -56.6227   33.3954 C   0  0  0  0  0  0  0  0  0  0  0  0
   17.6556  -56.9531   32.1924 N   0  0  0  0  0  0  0  0  0  0  0  0
   18.6755  -56.3302   31.6322 N   0  0  0  0  0  0  0  0  0  0  0  0
   19.3000  -56.5129   30.4736 N   0  0  0  0  0  0  0  0  0  0  0  0
   20.2696  -55.6492   30.3335 N   0  0  0  0  0  0  0  0  0  0  0  0
   20.2894  -54.8858   31.4054 N   0  0  0  0  0  0  0  0  0  0  0  0
   19.2990  -55.3038   32.2215 C   0  0  0  0  0  0  0  0  0  0  0  0
   18.8247  -54.9160   33.4619 C   0  0  0  0  0  0  0  0  0  0  0  0
   17.7581  -55.5661   34.0492 C   0  0  0  0  0  0  0  0  0  0  0  0
   13.6698  -56.9085   38.5744 C   0  0  0  0  0  0  0  0  0  0  0  0
   14.8186  -56.5021   39.3997 C   0  0  0  0  0  0  0  0  0  0  0  0
   15.9215  -54.2477   38.9334 C   0  0  0  0  0  0  0  0  0  0  0  0
   15.1380  -53.5422   39.6038 O   0  0  0  0  0  0  0  0  0  0  0  0
   15.7763  -55.6241   38.8442 N   0  0  0  0  0  0  0  0  0  0  0  0
   16.5668  -56.0820   38.2102 H   0  0  0  0  0  0  0  0  0  0  0  0
   20.3063  -51.1748   36.1890 Cl  0  0  0  0  0  0  0  0  0  0  0  0
   19.0330  -52.0866   36.9835 C   0  0  0  0  0  0  0  0  0  0  0  0
   18.0108  -51.4154   37.6339 C   0  0  0  0  0  0  0  0  0  0  0  0
   17.0176  -52.1375   38.2523 C   0  0  0  0  0  0  0  0  0  0  0  0
   17.0099  -53.5154   38.2441 C   0  0  0  0  0  0  0  0  0  0  0  0
   18.0316  -54.1575   37.5952 C   0  0  0  0  0  0  0  0  0  0  0  0
   19.0565  -53.4557   36.9565 C   0  0  0  0  0  0  0  0  0  0  0  0
 26 27  1  0  0  0
 27 28  2  0  0  0
 27 32  1  0  0  0
 28 29  1  0  0  0
 29 30  2  0  0  0
 30 31  1  0  0  0
 30 22  1  0  0  0
 31 32  2  0  0  0
 22 23  2  0  0  0
 22 24  1  0  0  0
 24 21  1  0  0  0
 21 20  1  0  0  0
 20  1  1  0  0  0
  1  2  1  0  0  0
  2  3  2  0  0  0
  2  5  1  0  0  0
  5  6  1  0  0  0
  5 10  1  0  0  0
  6  7  1  0  0  0
  7  8  1  0  0  0
  8  9  1  0  0  0
  8 11  1  0  0  0
  9 10  1  0  0  0
 11 12  2  0  0  0
 11 19  1  0  0  0
 12 13  1  0  0  0
 13 14  1  0  0  0
 13 17  1  0  0  0
 14 15  2  0  0  0
 15 16  1  0  0  0
 16 17  2  0  0  0
 17 18  1  0  0  0
 18 19  2  0  0  0
 24 25  1  0  0  0
  1  4  1  0  0  0
M  END
> <minimizedAffinity>
-10.25324

$$$$
1507


 32 35  0  0  0  0  0  0  0  0999 V2000
   17.4739  -57.2771   31.9660 C   0  0  0  0  0  0  0  0  0  0  0  0
   17.3726  -56.3427   32.8892 C   0  0  0  0  0  0  0  0  0  0  0  0
   16.4060  -56.2256   34.0287 C   0  0  0  0  0  0  0  0  0  0  0  0
   17.2436  -55.7772   35.0810 N   0  0  0  0  0  0  0  0  0  0  0  0
   18.0697  -54.7521   34.4492 C   0  0  0  0  0  0  0  0  0  0  0  0
   18.6056  -53.7528   34.9947 O   0  0  0  0  0  0  0  0  0  0  0  0
   18.1542  -55.1156   33.0393 C   0  0  0  0  0  0  0  0  0  0  0  0
   18.7612  -54.5388   32.0767 O   0  0  0  0  0  0  0  0  0  0  0  0
   16.6192  -58.3646   31.9238 O   0  0  0  0  0  0  0  0  0  0  0  0
   21.8727  -57.1300   27.6357 Br  0  0  0  0  0  0  0  0  0  0  0  0
   20.5090  -57.1702   28.9908 C   0  0  0  0  0  0  0  0  0  0  0  0
   19.2408  -56.6939   28.7502 C   0  0  0  0  0  0  0  0  0  0  0  0
   18.2344  -56.6975   29.6749 C   0  0  0  0  0  0  0  0  0  0  0  0
   18.4992  -57.2091   30.9317 C   0  0  0  0  0  0  0  0  0  0  0  0
   19.7594  -57.6927   31.1984 C   0  0  0  0  0  0  0  0  0  0  0  0
   20.7799  -57.6831   30.2427 C   0  0  0  0  0  0  0  0  0  0  0  0
   15.5105  -57.3259   34.1604 C   0  0  0  0  0  0  0  0  0  0  0  0
   15.9500  -58.4797   34.7632 C   0  0  0  0  0  0  0  0  0  0  0  0
   15.1418  -59.5765   34.9420 C   0  0  0  0  0  0  0  0  0  0  0  0
   13.8235  -59.5561   34.5103 C   0  0  0  0  0  0  0  0  0  0  0  0
   13.4008  -58.3881   33.9072 C   0  0  0  0  0  0  0  0  0  0  0  0
   14.2176  -57.2934   33.7320 C   0  0  0  0  0  0  0  0  0  0  0  0
   12.7854  -60.9425   34.7317 Cl  0  0  0  0  0  0  0  0  0  0  0  0
   17.3534  -56.0833   36.4943 C   0  0  0  0  0  0  0  0  0  0  0  0
   16.2097  -55.7263   37.3614 C   0  0  0  0  0  0  0  0  0  0  0  0
   16.5896  -55.0505   38.6068 N   0  0  0  0  0  0  0  0  0  0  0  0
   15.4992  -54.2851   39.1063 C   0  0  0  0  0  0  0  0  0  0  0  0
   15.6816  -52.8083   39.1464 C   0  0  0  0  0  0  0  0  0  0  0  0
   16.9857  -52.3706   39.2769 O   0  0  0  0  0  0  0  0  0  0  0  0
   17.6517  -52.8636   38.1314 C   0  0  0  0  0  0  0  0  0  0  0  0
   17.8002  -54.3289   38.3448 C   0  0  0  0  0  0  0  0  0  0  0  0
   16.8218  -55.8461   39.2777 H   0  0  0  0  0  0  0  0  0  0  0  0
 10 11  1  0  0  0
 11 12  2  0  0  0
 11 16  1  0  0  0
 12 13  1  0  0  0
 13 14  2  0  0  0
 14 15  1  0  0  0
 14  1  1  0  0  0
 15 16  2  0  0  0
  1  2  2  0  0  0
  1  9  1  0  0  0
  2  3  1  0  0  0
  2  7  1  0  0  0
  3  4  1  0  0  0
  3 17  1  0  0  0
  4  5  1  0  0  0
  4 24  1  0  0  0
  5  6  2  0  0  0
  5  7  1  0  0  0
  7  8  2  0  0  0
 24 25  1  0  0  0
 25 26  1  0  0  0
 26 27  1  0  0  0
 26 31  1  0  0  0
 27 28  1  0  0  0
 28 29  1  0  0  0
 29 30  1  0  0  0
 30 31  1  0  0  0
 17 18  2  0  0  0
 17 22  1  0  0  0
 18 19  1  0  0  0
 19 20  2  0  0  0
 20 21  1  0  0  0
 20 23  1  0  0  0
 21 22  2  0  0  0
 26 32  1  0  0  0
M  CHG 1   9  -1
M  CHG 1  26   1
M  END
> <minimizedAffinity>
-8.59326

$$$$
1511


 34 37  0  0  0  0  0  0  0  0999 V2000
   15.4292  -57.8757   35.1957 N   0  0  0  0  0  0  0  0  0  0  0  0
   15.9263  -57.1973   36.2426 C   0  0  0  0  0  0  0  0  0  0  0  0
   17.1149  -56.7875   36.2789 O   0  0  0  0  0  0  0  0  0  0  0  0
   14.9692  -57.0273   37.2290 C   0  0  0  0  0  0  0  0  0  0  0  0
   13.8703  -57.6136   36.7716 C   0  0  0  0  0  0  0  0  0  0  0  0
   12.9433  -57.4491   37.7279 N   0  0  0  0  0  0  0  0  0  0  0  0
   13.4625  -56.7802   38.7418 N   0  0  0  0  0  0  0  0  0  0  0  0
   14.7080  -56.5108   38.4542 N   0  0  0  0  0  0  0  0  0  0  0  0
   14.1446  -58.1370   35.5254 C   0  0  0  0  0  0  0  0  0  0  0  0
   13.3150  -58.7705   34.7921 O   0  0  0  0  0  0  0  0  0  0  0  0
   11.9590  -57.7824   37.7101 H   0  0  0  0  0  0  0  0  0  0  0  0
   12.9758  -56.4970   39.6438 H   0  0  0  0  0  0  0  0  0  0  0  0
   18.1390  -59.4399   29.8886 Br  0  0  0  0  0  0  0  0  0  0  0  0
   17.2964  -58.9687   31.5426 C   0  0  0  0  0  0  0  0  0  0  0  0
   16.9605  -59.9294   32.4759 C   0  0  0  0  0  0  0  0  0  0  0  0
   16.3488  -59.5813   33.6766 C   0  0  0  0  0  0  0  0  0  0  0  0
   16.0536  -58.2682   33.9790 C   0  0  0  0  0  0  0  0  0  0  0  0
   16.3905  -57.3143   33.0440 C   0  0  0  0  0  0  0  0  0  0  0  0
   16.9980  -57.6571   31.8535 C   0  0  0  0  0  0  0  0  0  0  0  0
   15.6660  -55.7978   39.2649 C   0  0  0  0  0  0  0  0  0  0  0  0
   16.2538  -54.6654   38.4554 C   0  0  0  0  0  0  0  0  0  0  0  0
   15.5012  -53.7546   38.0442 O   0  0  0  0  0  0  0  0  0  0  0  0
   17.6272  -54.6420   38.1721 N   0  0  0  0  0  0  0  0  0  0  0  0
   18.2106  -55.4545   38.5569 H   0  0  0  0  0  0  0  0  0  0  0  0
   18.3019  -53.6471   37.4370 C   0  0  0  0  0  0  0  0  0  0  0  0
   19.1268  -53.8600   36.3616 C   0  0  0  0  0  0  0  0  0  0  0  0
   19.7737  -52.8409   35.6938 C   0  0  0  0  0  0  0  0  0  0  0  0
   19.5757  -51.5492   36.1343 C   0  0  0  0  0  0  0  0  0  0  0  0
   18.7497  -51.2912   37.2162 C   0  0  0  0  0  0  0  0  0  0  0  0
   18.1192  -52.3179   37.8645 C   0  0  0  0  0  0  0  0  0  0  0  0
   20.2188  -50.5058   35.4739 O   0  0  0  0  0  0  0  0  0  0  0  0
   20.2652  -49.2299   36.0812 C   0  0  0  0  0  0  0  0  0  0  0  0
   20.6056  -53.0880   34.6041 O   0  0  0  0  0  0  0  0  0  0  0  0
   20.0217  -53.7108   33.4525 C   0  0  0  0  0  0  0  0  0  0  0  0
 13 14  1  0  0  0
 14 15  2  0  0  0
 14 19  1  0  0  0
 15 16  1  0  0  0
 16 17  2  0  0  0
 17 18  1  0  0  0
 17  1  1  0  0  0
 18 19  2  0  0  0
  1  2  1  0  0  0
  1  9  1  0  0  0
  2  3  2  0  0  0
  2  4  1  0  0  0
  4  5  2  0  0  0
  4  8  1  0  0  0
  5  6  1  0  0  0
  5  9  1  0  0  0
  6  7  1  0  0  0
  7  8  1  0  0  0
  8 20  1  0  0  0
 20 21  1  0  0  0
 21 22  2  0  0  0
 21 23  1  0  0  0
 23 25  1  0  0  0
 25 26  2  0  0  0
 25 30  1  0  0  0
 26 27  1  0  0  0
 27 28  2  0  0  0
 27 33  1  0  0  0
 28 29  1  0  0  0
 28 31  1  0  0  0
 29 30  2  0  0  0
 31 32  1  0  0  0
 33 34  1  0  0  0
  9 10  2  0  0  0
  6 11  1  0  0  0
  7 12  1  0  0  0
 23 24  1  0  0  0
M  END
> <minimizedAffinity>
-9.20782

$$$$
1516


 30 33  0  0  0  0  0  0  0  0999 V2000
   15.7963  -57.6442   36.7114 C   0  0  0  0  0  0  0  0  0  0  0  0
   16.1554  -58.7424   37.3358 O   0  0  0  0  0  0  0  0  0  0  0  0
   16.4502  -57.4392   35.5047 N   0  0  0  0  0  0  0  0  0  0  0  0
   16.2085  -56.3388   34.6308 C   0  0  0  0  0  0  0  0  0  0  0  0
   16.8774  -56.6533   33.2729 C   0  0  0  0  0  0  0  0  0  0  0  0
   18.3742  -56.6168   33.5162 C   0  0  0  0  0  0  0  0  0  0  0  0
   18.7407  -55.3350   33.9597 N   0  0  0  0  0  0  0  0  0  0  0  0
   19.0081  -54.3091   33.0459 C   0  0  0  0  0  0  0  0  0  0  0  0
   19.6950  -54.6728   31.7837 C   0  0  0  0  0  0  0  0  0  0  0  0
   19.6565  -56.1187   31.4801 C   0  0  0  0  0  0  0  0  0  0  0  0
   20.1889  -56.7589   30.4210 N   0  0  0  0  0  0  0  0  0  0  0  0
   19.9174  -58.0617   30.5443 C   0  0  0  0  0  0  0  0  0  0  0  0
   19.2125  -58.2402   31.6845 N   0  0  0  0  0  0  0  0  0  0  0  0
   19.0414  -57.0439   32.2773 C   0  0  0  0  0  0  0  0  0  0  0  0
   18.6808  -57.6047   34.6549 C   0  0  0  0  0  0  0  0  0  0  0  0
   17.4695  -58.4004   35.0539 C   0  0  0  0  0  0  0  0  0  0  0  0
   18.6480  -55.1039   34.9417 H   0  0  0  0  0  0  0  0  0  0  0  0
   18.8637  -59.1506   32.0350 H   0  0  0  0  0  0  0  0  0  0  0  0
   14.7791  -56.8646   37.4147 C   0  0  0  0  0  0  0  0  0  0  0  0
   15.5677  -54.6021   38.7115 C   0  0  0  0  0  0  0  0  0  0  0  0
   15.0695  -54.1082   39.7565 O   0  0  0  0  0  0  0  0  0  0  0  0
   15.1761  -55.7270   38.0663 N   0  0  0  0  0  0  0  0  0  0  0  0
   14.1373  -55.9019   38.9525 H   0  0  0  0  0  0  0  0  0  0  0  0
   20.1583  -51.5072   36.4430 Cl  0  0  0  0  0  0  0  0  0  0  0  0
   18.8160  -52.4262   37.1093 C   0  0  0  0  0  0  0  0  0  0  0  0
   17.7991  -51.7479   37.7211 C   0  0  0  0  0  0  0  0  0  0  0  0
   16.7275  -52.4761   38.2483 C   0  0  0  0  0  0  0  0  0  0  0  0
   16.7235  -53.8355   38.1413 C   0  0  0  0  0  0  0  0  0  0  0  0
   17.7279  -54.5116   37.5364 C   0  0  0  0  0  0  0  0  0  0  0  0
   18.8112  -53.7863   37.0014 C   0  0  0  0  0  0  0  0  0  0  0  0
 24 25  1  0  0  0
 25 26  2  0  0  0
 25 30  1  0  0  0
 26 27  1  0  0  0
 27 28  2  0  0  0
 28 29  1  0  0  0
 28 20  1  0  0  0
 29 30  2  0  0  0
 20 21  2  0  0  0
 20 22  1  0  0  0
 22 19  1  0  0  0
 19  1  1  0  0  0
  1  2  2  0  0  0
  1  3  1  0  0  0
  3  4  1  0  0  0
  3 16  1  0  0  0
  4  5  1  0  0  0
  5  6  1  0  0  0
  6  7  1  0  0  0
  6 14  1  0  0  0
  6 15  1  0  0  0
  7  8  1  0  0  0
  8  9  1  0  0  0
  9 10  1  0  0  0
 10 11  1  0  0  0
 10 14  2  0  0  0
 11 12  2  0  0  0
 12 13  1  0  0  0
 13 14  1  0  0  0
 15 16  1  0  0  0
 22 23  1  0  0  0
  7 17  1  0  0  0
 13 18  1  0  0  0
M  END
> <minimizedAffinity>
-10.40038

$$$$
1518


 31 34  0  0  0  0  0  0  0  0999 V2000
   15.3206  -58.2287   35.5948 C   0  0  0  0  0  0  0  0  0  0  0  0
   15.2157  -59.4649   35.7858 O   0  0  0  0  0  0  0  0  0  0  0  0
   16.0254  -57.7361   34.4716 N   0  0  0  0  0  0  0  0  0  0  0  0
   16.1828  -56.3222   34.1967 C   0  0  0  0  0  0  0  0  0  0  0  0
   16.2131  -56.1459   32.6858 C   0  0  0  0  0  0  0  0  0  0  0  0
   17.4340  -56.8491   32.0936 C   0  0  0  0  0  0  0  0  0  0  0  0
   17.0398  -57.3494   30.8086 N   0  0  0  0  0  0  0  0  0  0  0  0
   18.1782  -57.6027   29.9516 C   0  0  0  0  0  0  0  0  0  0  0  0
   18.7744  -56.2623   29.5277 C   0  0  0  0  0  0  0  0  0  0  0  0
   19.1921  -55.5766   30.7845 C   0  0  0  0  0  0  0  0  0  0  0  0
   20.1574  -54.6414   31.0320 N   0  0  0  0  0  0  0  0  0  0  0  0
   20.1232  -54.3509   32.3445 C   0  0  0  0  0  0  0  0  0  0  0  0
   19.1525  -55.0928   32.9073 N   0  0  0  0  0  0  0  0  0  0  0  0
   18.5465  -55.8724   31.9637 C   0  0  0  0  0  0  0  0  0  0  0  0
   17.8601  -58.0093   32.9679 C   0  0  0  0  0  0  0  0  0  0  0  0
   16.6310  -58.6589   33.5316 C   0  0  0  0  0  0  0  0  0  0  0  0
   16.4546  -58.2040   30.8900 H   0  0  0  0  0  0  0  0  0  0  0  0
   20.7717  -54.2704   30.2728 H   0  0  0  0  0  0  0  0  0  0  0  0
   14.6908  -57.3140   36.5731 C   0  0  0  0  0  0  0  0  0  0  0  0
   15.5895  -56.9874   37.7235 C   0  0  0  0  0  0  0  0  0  0  0  0
   16.5104  -54.6576   37.9034 C   0  0  0  0  0  0  0  0  0  0  0  0
   15.6820  -54.3643   38.8025 O   0  0  0  0  0  0  0  0  0  0  0  0
   16.5083  -55.9336   37.3393 N   0  0  0  0  0  0  0  0  0  0  0  0
   17.1940  -56.1938   36.5905 H   0  0  0  0  0  0  0  0  0  0  0  0
   20.4236  -50.4529   36.1476 Cl  0  0  0  0  0  0  0  0  0  0  0  0
   19.3023  -51.7072   36.6381 C   0  0  0  0  0  0  0  0  0  0  0  0
   18.2613  -51.3715   37.4922 C   0  0  0  0  0  0  0  0  0  0  0  0
   17.3383  -52.3143   37.9189 C   0  0  0  0  0  0  0  0  0  0  0  0
   17.4502  -53.6185   37.4906 C   0  0  0  0  0  0  0  0  0  0  0  0
   18.5055  -53.9274   36.6333 C   0  0  0  0  0  0  0  0  0  0  0  0
   19.4239  -53.0098   36.2018 C   0  0  0  0  0  0  0  0  0  0  0  0
 25 26  1  0  0  0
 26 27  2  0  0  0
 26 31  1  0  0  0
 27 28  1  0  0  0
 28 29  2  0  0  0
 29 30  1  0  0  0
 29 21  1  0  0  0
 30 31  2  0  0  0
 21 22  2  0  0  0
 21 23  1  0  0  0
 23 20  1  0  0  0
 20 19  1  0  0  0
 19  1  1  0  0  0
  1  2  2  0  0  0
  1  3  1  0  0  0
  3  4  1  0  0  0
  3 16  1  0  0  0
  4  5  1  0  0  0
  5  6  1  0  0  0
  6  7  1  0  0  0
  6 14  1  0  0  0
  6 15  1  0  0  0
  7  8  1  0  0  0
  8  9  1  0  0  0
  9 10  1  0  0  0
 10 11  1  0  0  0
 10 14  2  0  0  0
 11 12  1  0  0  0
 12 13  2  0  0  0
 13 14  1  0  0  0
 15 16  1  0  0  0
 23 24  1  0  0  0
  7 17  1  0  0  0
 11 18  1  0  0  0
M  END
> <minimizedAffinity>
-10.52599

$$$$
1521


 24 27  0  0  0  0  0  0  0  0999 V2000
   16.4054  -52.0294   38.9072 Cl  0  0  0  0  0  0  0  0  0  0  0  0
   17.5492  -52.6621   37.7416 C   0  0  0  0  0  0  0  0  0  0  0  0
   17.3807  -53.9345   37.2521 C   0  0  0  0  0  0  0  0  0  0  0  0
   16.4815  -54.9120   37.4552 N   0  0  0  0  0  0  0  0  0  0  0  0
   16.7612  -56.0023   36.7164 C   0  0  0  0  0  0  0  0  0  0  0  0
   17.9034  -55.6867   36.0114 C   0  0  0  0  0  0  0  0  0  0  0  0
   18.3017  -54.4070   36.3322 C   0  0  0  0  0  0  0  0  0  0  0  0
   19.3459  -53.5939   35.9410 C   0  0  0  0  0  0  0  0  0  0  0  0
   19.5363  -52.3194   36.4146 C   0  0  0  0  0  0  0  0  0  0  0  0
   18.6093  -51.8491   37.3390 C   0  0  0  0  0  0  0  0  0  0  0  0
   18.4154  -56.7475   35.1088 C   0  0  0  0  0  0  0  0  0  0  0  0
   17.2718  -57.1425   34.3181 N   0  0  0  0  0  0  0  0  0  0  0  0
   16.2478  -57.7923   35.0391 C   0  0  0  0  0  0  0  0  0  0  0  0
   16.2063  -57.3525   36.4849 C   0  0  0  0  0  0  0  0  0  0  0  0
   15.6443  -54.8753   38.1023 H   0  0  0  0  0  0  0  0  0  0  0  0
   17.5713  -57.5790   33.0212 C   0  0  0  0  0  0  0  0  0  0  0  0
   17.2694  -56.5556   31.9692 C   0  0  0  0  0  0  0  0  0  0  0  0
   18.1195  -55.3361   32.0636 C   0  0  0  0  0  0  0  0  0  0  0  0
   18.8018  -55.1103   30.8361 N   0  0  0  0  0  0  0  0  0  0  0  0
   18.4961  -56.1665   29.9270 C   0  0  0  0  0  0  0  0  0  0  0  0
   17.6055  -57.1392   30.6231 C   0  0  0  0  0  0  0  0  0  0  0  0
   15.9035  -56.2467   31.9445 O   0  0  0  0  0  0  0  0  0  0  0  0
   18.6320  -54.1625   30.4236 H   0  0  0  0  0  0  0  0  0  0  0  0
   15.8385  -55.3354   31.5539 H   0  0  0  0  0  0  0  0  0  0  0  0
  1  2  1  0  0  0
  2  3  2  0  0  0
  2 10  1  0  0  0
  3  4  1  0  0  0
  3  7  1  0  0  0
  4  5  1  0  0  0
  5  6  2  0  0  0
  5 14  1  0  0  0
  6  7  1  0  0  0
  6 11  1  0  0  0
  7  8  2  0  0  0
  8  9  1  0  0  0
  9 10  2  0  0  0
 11 12  1  0  0  0
 12 13  1  0  0  0
 12 16  1  0  0  0
 13 14  1  0  0  0
 16 17  1  0  0  0
 17 18  1  0  0  0
 17 21  1  0  0  0
 17 22  1  0  0  0
 18 19  1  0  0  0
 19 20  1  0  0  0
 20 21  1  0  0  0
  4 15  1  0  0  0
 19 23  1  0  0  0
 22 24  1  0  0  0
M  END
> <minimizedAffinity>
-8.94062

$$$$
1523


 25 28  0  0  0  0  0  0  0  0999 V2000
   15.3271  -56.9132   33.7227 C   0  0  0  0  0  0  0  0  0  0  0  0
   15.2324  -56.3611   32.5708 O   0  0  0  0  0  0  0  0  0  0  0  0
   16.4432  -56.6852   34.5286 N   0  0  0  0  0  0  0  0  0  0  0  0
   17.4977  -55.8293   34.0593 C   0  0  0  0  0  0  0  0  0  0  0  0
   17.5330  -54.6003   34.9250 C   0  0  0  0  0  0  0  0  0  0  0  0
   17.4249  -54.9836   36.3036 N   0  0  0  0  0  0  0  0  0  0  0  0
   17.6792  -56.4093   36.5887 C   0  0  0  0  0  0  0  0  0  0  0  0
   16.6528  -57.2509   35.8430 C   0  0  0  0  0  0  0  0  0  0  0  0
   17.1039  -54.1750   37.3939 C   0  0  0  0  0  0  0  0  0  0  0  0
   17.1129  -54.7774   38.5436 O   0  0  0  0  0  0  0  0  0  0  0  0
   12.8189  -59.0876   35.2683 N   0  0  0  0  0  0  0  0  0  0  0  0
   12.3448  -58.9159   34.0298 N   0  0  0  0  0  0  0  0  0  0  0  0
   13.1474  -58.1427   33.3332 N   0  0  0  0  0  0  0  0  0  0  0  0
   14.1857  -57.7787   34.0994 C   0  0  0  0  0  0  0  0  0  0  0  0
   13.9617  -58.3827   35.3142 C   0  0  0  0  0  0  0  0  0  0  0  0
   11.5712  -59.5753   40.3958 Br  0  0  0  0  0  0  0  0  0  0  0  0
   11.6012  -60.1866   38.5905 C   0  0  0  0  0  0  0  0  0  0  0  0
   12.2018  -59.4081   37.5904 C   0  0  0  0  0  0  0  0  0  0  0  0
   12.2173  -59.8602   36.2931 C   0  0  0  0  0  0  0  0  0  0  0  0
   11.6405  -61.0691   36.0047 C   0  0  0  0  0  0  0  0  0  0  0  0
   11.0385  -61.8539   36.9963 C   0  0  0  0  0  0  0  0  0  0  0  0
   11.0284  -61.3938   38.2907 C   0  0  0  0  0  0  0  0  0  0  0  0
   16.7598  -52.7594   37.4533 C   0  0  0  0  0  0  0  0  0  0  0  0
   16.5824  -52.0027   38.6927 C   0  0  0  0  0  0  0  0  0  0  0  0
   17.7278  -51.6724   37.7399 C   0  0  0  0  0  0  0  0  0  0  0  0
 16 17  1  0  0  0
 17 18  2  0  0  0
 17 22  1  0  0  0
 18 19  1  0  0  0
 19 20  2  0  0  0
 19 11  1  0  0  0
 20 21  1  0  0  0
 21 22  2  0  0  0
 11 12  1  0  0  0
 11 15  1  0  0  0
 12 13  2  0  0  0
 13 14  1  0  0  0
 14 15  2  0  0  0
 14  1  1  0  0  0
  1  2  2  0  0  0
  1  3  1  0  0  0
  3  4  1  0  0  0
  3  8  1  0  0  0
  4  5  1  0  0  0
  5  6  1  0  0  0
  6  7  1  0  0  0
  6  9  1  0  0  0
  7  8  1  0  0  0
  9 10  2  0  0  0
  9 23  1  0  0  0
 23 24  1  0  0  0
 23 25  1  0  0  0
 24 25  1  0  0  0
M  END
> <minimizedAffinity>
-9.08424

$$$$
1525


 26 29  0  0  0  0  0  0  0  0999 V2000
   16.3625  -56.3488   37.0815 N   0  0  0  0  0  0  0  0  0  0  0  0
   15.6383  -57.3872   37.7295 C   0  0  0  0  0  0  0  0  0  0  0  0
   15.3915  -57.3938   38.9598 O   0  0  0  0  0  0  0  0  0  0  0  0
   15.2837  -58.3595   36.7026 C   0  0  0  0  0  0  0  0  0  0  0  0
   16.4122  -58.2279   35.7015 C   0  0  0  0  0  0  0  0  0  0  0  0
   16.9196  -56.8517   35.8609 C   0  0  0  0  0  0  0  0  0  0  0  0
   17.6913  -56.2232   35.0892 O   0  0  0  0  0  0  0  0  0  0  0  0
   18.8478  -51.6092   37.0841 Br  0  0  0  0  0  0  0  0  0  0  0  0
   17.5284  -52.8444   37.6800 C   0  0  0  0  0  0  0  0  0  0  0  0
   17.4475  -54.1307   37.1537 C   0  0  0  0  0  0  0  0  0  0  0  0
   16.4888  -55.0204   37.5906 C   0  0  0  0  0  0  0  0  0  0  0  0
   15.6213  -54.5582   38.5740 C   0  0  0  0  0  0  0  0  0  0  0  0
   15.6853  -53.2984   39.1040 C   0  0  0  0  0  0  0  0  0  0  0  0
   16.6476  -52.4274   38.6543 C   0  0  0  0  0  0  0  0  0  0  0  0
   14.0104  -58.2247   36.1178 N   0  0  0  0  0  0  0  0  0  0  0  0
   13.0173  -59.1571   36.4694 C   0  0  0  0  0  0  0  0  0  0  0  0
   12.9679  -60.2496   35.3923 C   0  0  0  0  0  0  0  0  0  0  0  0
   13.6383  -59.7836   34.1890 N   0  0  0  0  0  0  0  0  0  0  0  0
   13.5775  -58.3996   33.7628 C   0  0  0  0  0  0  0  0  0  0  0  0
   13.8334  -57.4929   34.9435 C   0  0  0  0  0  0  0  0  0  0  0  0
   14.4104  -60.6820   33.3802 C   0  0  0  0  0  0  0  0  0  0  0  0
   14.3557  -60.6258   32.0329 N   0  0  0  0  0  0  0  0  0  0  0  0
   15.0966  -61.4613   31.2789 C   0  0  0  0  0  0  0  0  0  0  0  0
   15.9395  -62.4050   31.8548 C   0  0  0  0  0  0  0  0  0  0  0  0
   15.9912  -62.4561   33.2365 C   0  0  0  0  0  0  0  0  0  0  0  0
   15.2282  -61.5956   33.9334 N   0  0  0  0  0  0  0  0  0  0  0  0
  8  9  1  0  0  0
  9 10  2  0  0  0
  9 14  1  0  0  0
 10 11  1  0  0  0
 11 12  2  0  0  0
 11  1  1  0  0  0
 12 13  1  0  0  0
 13 14  2  0  0  0
  1  2  1  0  0  0
  1  6  1  0  0  0
  2  3  2  0  0  0
  2  4  1  0  0  0
  4  5  1  0  0  0
  4 15  1  0  0  0
  5  6  1  0  0  0
  6  7  2  0  0  0
 15 16  1  0  0  0
 15 20  1  0  0  0
 16 17  1  0  0  0
 17 18  1  0  0  0
 18 19  1  0  0  0
 18 21  1  0  0  0
 19 20  1  0  0  0
 21 22  2  0  0  0
 21 26  1  0  0  0
 22 23  1  0  0  0
 23 24  2  0  0  0
 24 25  1  0  0  0
 25 26  2  0  0  0
M  END
> <minimizedAffinity>
-9.04321

$$$$
1531


 27 30  0  0  0  0  0  0  0  0999 V2000
   18.5245  -54.0995   36.7758 N   0  0  0  0  0  0  0  0  0  0  0  0
   17.7688  -53.2671   37.5589 C   0  0  0  0  0  0  0  0  0  0  0  0
   16.7300  -53.9911   37.9824 N   0  0  0  0  0  0  0  0  0  0  0  0
   16.7655  -55.2511   37.5176 C   0  0  0  0  0  0  0  0  0  0  0  0
   17.9131  -55.3153   36.7475 C   0  0  0  0  0  0  0  0  0  0  0  0
   15.8604  -53.1819   38.8299 C   0  0  0  0  0  0  0  0  0  0  0  0
   16.4467  -51.8010   38.7933 C   0  0  0  0  0  0  0  0  0  0  0  0
   17.7420  -51.8741   38.0669 C   0  0  0  0  0  0  0  0  0  0  0  0
   15.8281  -56.3504   37.7423 C   0  0  0  0  0  0  0  0  0  0  0  0
   14.7379  -56.2905   38.5723 C   0  0  0  0  0  0  0  0  0  0  0  0
   13.8818  -57.3890   38.7354 C   0  0  0  0  0  0  0  0  0  0  0  0
   14.0908  -58.5789   38.0746 C   0  0  0  0  0  0  0  0  0  0  0  0
   15.1841  -58.6494   37.2389 C   0  0  0  0  0  0  0  0  0  0  0  0
   16.0243  -57.5671   37.0797 C   0  0  0  0  0  0  0  0  0  0  0  0
   13.2518  -59.6741   38.2267 O   0  0  0  0  0  0  0  0  0  0  0  0
   12.2006  -59.6474   39.1757 C   0  0  0  0  0  0  0  0  0  0  0  0
   19.7564  -53.7692   36.1439 C   0  0  0  0  0  0  0  0  0  0  0  0
   19.8186  -53.4212   34.7437 C   0  0  0  0  0  0  0  0  0  0  0  0
   20.2231  -52.1880   34.5088 O   0  0  0  0  0  0  0  0  0  0  0  0
   16.3802  -56.4016   32.3319 Cl  0  0  0  0  0  0  0  0  0  0  0  0
   17.9233  -55.5916   32.3694 C   0  0  0  0  0  0  0  0  0  0  0  0
   18.7585  -55.7132   31.2824 C   0  0  0  0  0  0  0  0  0  0  0  0
   19.9711  -55.0700   31.3268 C   0  0  0  0  0  0  0  0  0  0  0  0
   20.3161  -54.3189   32.4601 C   0  0  0  0  0  0  0  0  0  0  0  0
   19.5196  -54.1732   33.5549 C   0  0  0  0  0  0  0  0  0  0  0  0
   18.2834  -54.8587   33.4520 C   0  0  0  0  0  0  0  0  0  0  0  0
   18.3232  -56.6503   29.8721 Cl  0  0  0  0  0  0  0  0  0  0  0  0
 20 21  1  0  0  0
 21 22  2  0  0  0
 21 26  1  0  0  0
 22 23  1  0  0  0
 22 27  1  0  0  0
 23 24  2  0  0  0
 24 25  1  0  0  0
 25 26  2  0  0  0
 25 18  1  0  0  0
 18 19  2  0  0  0
 18 17  1  0  0  0
 17  1  1  0  0  0
  1  2  1  0  0  0
  1  5  1  0  0  0
  2  3  2  0  0  0
  2  8  1  0  0  0
  3  4  1  0  0  0
  3  6  1  0  0  0
  4  5  2  0  0  0
  4  9  1  0  0  0
  9 10  2  0  0  0
  9 14  1  0  0  0
 10 11  1  0  0  0
 11 12  2  0  0  0
 12 13  1  0  0  0
 12 15  1  0  0  0
 13 14  2  0  0  0
 15 16  1  0  0  0
  6  7  1  0  0  0
  7  8  1  0  0  0
M  END
> <minimizedAffinity>
-10.01965

$$$$
1533


 28 31  0  0  0  0  0  0  0  0999 V2000
   16.7841  -55.2433   37.3405 C   0  0  0  0  0  0  0  0  0  0  0  0
   16.9461  -53.9747   37.7975 N   0  0  0  0  0  0  0  0  0  0  0  0
   18.0517  -53.4479   37.2608 C   0  0  0  0  0  0  0  0  0  0  0  0
   18.6470  -54.3587   36.4312 N   0  0  0  0  0  0  0  0  0  0  0  0
   17.8623  -55.4474   36.4913 C   0  0  0  0  0  0  0  0  0  0  0  0
   18.2701  -52.0662   37.7443 C   0  0  0  0  0  0  0  0  0  0  0  0
   16.8862  -51.6775   38.1852 C   0  0  0  0  0  0  0  0  0  0  0  0
   16.3117  -52.9876   38.6723 C   0  0  0  0  0  0  0  0  0  0  0  0
   13.8592  -59.3348   35.9256 Cl  0  0  0  0  0  0  0  0  0  0  0  0
   14.3487  -58.0949   37.0600 C   0  0  0  0  0  0  0  0  0  0  0  0
   13.7158  -58.0301   38.2665 C   0  0  0  0  0  0  0  0  0  0  0  0
   14.0803  -57.0656   39.1771 C   0  0  0  0  0  0  0  0  0  0  0  0
   15.0974  -56.1672   38.8443 C   0  0  0  0  0  0  0  0  0  0  0  0
   15.7403  -56.2269   37.6283 C   0  0  0  0  0  0  0  0  0  0  0  0
   15.3598  -57.1930   36.7432 C   0  0  0  0  0  0  0  0  0  0  0  0
   12.4286  -59.1542   38.7063 Cl  0  0  0  0  0  0  0  0  0  0  0  0
   19.8727  -54.1898   35.7064 C   0  0  0  0  0  0  0  0  0  0  0  0
   19.9061  -53.8594   34.3079 C   0  0  0  0  0  0  0  0  0  0  0  0
   20.3194  -52.6173   34.0750 O   0  0  0  0  0  0  0  0  0  0  0  0
   19.5905  -54.5774   33.0991 C   0  0  0  0  0  0  0  0  0  0  0  0
   18.4112  -55.3535   33.0327 C   0  0  0  0  0  0  0  0  0  0  0  0
   18.0262  -56.0684   31.9288 C   0  0  0  0  0  0  0  0  0  0  0  0
   18.8604  -56.0074   30.8311 C   0  0  0  0  0  0  0  0  0  0  0  0
   20.0152  -55.2582   30.8704 C   0  0  0  0  0  0  0  0  0  0  0  0
   20.4023  -54.5321   31.9984 C   0  0  0  0  0  0  0  0  0  0  0  0
   16.8409  -56.8401   31.8835 N   0  0  0  0  0  0  0  0  0  0  0  0
   16.8240  -57.8850   31.2241 O   0  0  0  0  0  0  0  0  0  0  0  0
   15.7106  -56.4639   32.5490 O   0  0  0  0  0  0  0  0  0  0  0  0
  9 10  1  0  0  0
 10 11  2  0  0  0
 10 15  1  0  0  0
 11 12  1  0  0  0
 11 16  1  0  0  0
 12 13  2  0  0  0
 13 14  1  0  0  0
 14 15  2  0  0  0
 14  1  1  0  0  0
  1  2  1  0  0  0
  1  5  2  0  0  0
  2  3  2  0  0  0
  2  8  1  0  0  0
  3  4  1  0  0  0
  3  6  1  0  0  0
  4  5  1  0  0  0
  4 17  1  0  0  0
 17 18  1  0  0  0
 18 19  2  0  0  0
 18 20  1  0  0  0
 20 21  2  0  0  0
 20 25  1  0  0  0
 21 22  1  0  0  0
 22 23  2  0  0  0
 22 26  1  0  0  0
 23 24  1  0  0  0
 24 25  2  0  0  0
 26 27  2  0  0  0
 26 28  1  0  0  0
  6  7  1  0  0  0
  7  8  1  0  0  0
M  CHG 1  28  -1
M  END
> <minimizedAffinity>
-10.02533

$$$$
1535


 28 31  0  0  0  0  0  0  0  0999 V2000
   16.8913  -55.1500   37.3562 C   0  0  0  0  0  0  0  0  0  0  0  0
   17.0972  -53.9002   37.8015 N   0  0  0  0  0  0  0  0  0  0  0  0
   18.2079  -53.3941   37.2261 C   0  0  0  0  0  0  0  0  0  0  0  0
   18.7135  -54.3313   36.4046 N   0  0  0  0  0  0  0  0  0  0  0  0
   17.9253  -55.4422   36.4531 C   0  0  0  0  0  0  0  0  0  0  0  0
   18.4528  -52.0186   37.7187 C   0  0  0  0  0  0  0  0  0  0  0  0
   17.0342  -51.5954   38.0023 C   0  0  0  0  0  0  0  0  0  0  0  0
   16.5312  -52.8770   38.6887 C   0  0  0  0  0  0  0  0  0  0  0  0
   13.9750  -59.2413   36.0324 Cl  0  0  0  0  0  0  0  0  0  0  0  0
   14.4067  -58.0027   37.1688 C   0  0  0  0  0  0  0  0  0  0  0  0
   13.7551  -57.8952   38.3678 C   0  0  0  0  0  0  0  0  0  0  0  0
   14.1393  -56.8939   39.2272 C   0  0  0  0  0  0  0  0  0  0  0  0
   15.1477  -56.0317   38.8877 C   0  0  0  0  0  0  0  0  0  0  0  0
   15.8352  -56.1128   37.6729 C   0  0  0  0  0  0  0  0  0  0  0  0
   15.4409  -57.1052   36.8380 C   0  0  0  0  0  0  0  0  0  0  0  0
   12.4655  -58.9917   38.8117 Cl  0  0  0  0  0  0  0  0  0  0  0  0
   19.8991  -54.2160   35.6380 C   0  0  0  0  0  0  0  0  0  0  0  0
   19.9081  -53.9220   34.2339 C   0  0  0  0  0  0  0  0  0  0  0  0
   20.3877  -52.7191   33.9884 O   0  0  0  0  0  0  0  0  0  0  0  0
   19.5005  -54.6732   33.0702 C   0  0  0  0  0  0  0  0  0  0  0  0
   18.3738  -55.4456   32.9870 C   0  0  0  0  0  0  0  0  0  0  0  0
   18.0416  -56.1457   31.8234 C   0  0  0  0  0  0  0  0  0  0  0  0
   18.8447  -56.0737   30.7310 C   0  0  0  0  0  0  0  0  0  0  0  0
   19.9856  -55.3032   30.7869 C   0  0  0  0  0  0  0  0  0  0  0  0
   20.3203  -54.6135   31.9204 C   0  0  0  0  0  0  0  0  0  0  0  0
   16.8504  -56.9344   31.8018 N   0  0  0  0  0  0  0  0  0  0  0  0
   15.8272  -56.5120   32.3676 O   0  0  0  0  0  0  0  0  0  0  0  0
   16.7982  -58.1400   31.1790 O   0  0  0  0  0  0  0  0  0  0  0  0
  9 10  1  0  0  0
 10 11  2  0  0  0
 10 15  1  0  0  0
 11 12  1  0  0  0
 11 16  1  0  0  0
 12 13  2  0  0  0
 13 14  1  0  0  0
 14 15  2  0  0  0
 14  1  1  0  0  0
  1  2  1  0  0  0
  1  5  2  0  0  0
  2  3  1  0  0  0
  2  8  1  0  0  0
  3  4  2  0  0  0
  3  6  1  0  0  0
  4  5  1  0  0  0
  4 17  1  0  0  0
 17 18  1  0  0  0
 18 19  2  0  0  0
 18 20  1  0  0  0
 20 21  2  0  0  0
 20 25  1  0  0  0
 21 22  1  0  0  0
 22 23  2  0  0  0
 22 26  1  0  0  0
 23 24  1  0  0  0
 24 25  2  0  0  0
 26 27  2  0  0  0
 26 28  1  0  0  0
  6  7  1  0  0  0
  7  8  1  0  0  0
M  CHG 1  28  -1
M  END
> <minimizedAffinity>
-9.95627

$$$$
1536


 31 34  0  0  0  0  0  0  0  0999 V2000
   17.3485  -57.6928   34.7937 S   0  0  0  0  0  0  0  0  0  0  0  0
   18.4206  -58.7779   34.6489 O   0  0  0  0  0  0  0  0  0  0  0  0
   16.8074  -57.9263   36.2062 O   0  0  0  0  0  0  0  0  0  0  0  0
   18.2052  -56.1804   34.7245 C   0  0  0  0  0  0  0  0  0  0  0  0
   18.1923  -55.3341   35.8465 C   0  0  0  0  0  0  0  0  0  0  0  0
   18.8010  -54.1061   35.8508 C   0  0  0  0  0  0  0  0  0  0  0  0
   19.4489  -53.6718   34.7357 C   0  0  0  0  0  0  0  0  0  0  0  0
   19.4958  -54.4549   33.6106 C   0  0  0  0  0  0  0  0  0  0  0  0
   18.8690  -55.7024   33.6326 C   0  0  0  0  0  0  0  0  0  0  0  0
   19.0269  -56.6951   32.1934 Cl  0  0  0  0  0  0  0  0  0  0  0  0
   20.0773  -52.3784   34.7572 N   0  0  0  0  0  0  0  0  0  0  0  0
   20.0087  -51.5883   35.9317 C   0  0  0  0  0  0  0  0  0  0  0  0
   20.8201  -50.6646   36.1493 O   0  0  0  0  0  0  0  0  0  0  0  0
   18.9286  -51.8988   36.9045 C   0  0  0  0  0  0  0  0  0  0  0  0
   18.7667  -53.2898   36.9887 O   0  0  0  0  0  0  0  0  0  0  0  0
   20.5749  -52.0389   33.9104 H   0  0  0  0  0  0  0  0  0  0  0  0
   16.1584  -57.9865   33.6849 N   0  0  0  0  0  0  0  0  0  0  0  0
   15.0422  -57.1797   33.4961 C   0  0  0  0  0  0  0  0  0  0  0  0
   13.8152  -57.5374   34.2714 C   0  0  0  0  0  0  0  0  0  0  0  0
   13.8873  -59.0112   34.6645 C   0  0  0  0  0  0  0  0  0  0  0  0
   14.4316  -59.6943   33.3994 C   0  0  0  0  0  0  0  0  0  0  0  0
   15.9228  -59.3971   33.4014 C   0  0  0  0  0  0  0  0  0  0  0  0
   12.5925  -59.5422   35.0544 C   0  0  0  0  0  0  0  0  0  0  0  0
   11.8519  -60.0739   34.1862 O   0  0  0  0  0  0  0  0  0  0  0  0
   12.1430  -59.4816   36.3774 N   0  0  0  0  0  0  0  0  0  0  0  0
   10.8587  -60.0428   36.8119 C   0  0  0  0  0  0  0  0  0  0  0  0
   10.6587  -59.5904   38.2429 C   0  0  0  0  0  0  0  0  0  0  0  0
   11.7061  -60.1245   39.0919 N   0  0  0  0  0  0  0  0  0  0  0  0
   13.0184  -59.6838   38.6533 C   0  0  0  0  0  0  0  0  0  0  0  0
   12.9180  -58.8343   37.3984 C   0  0  0  0  0  0  0  0  0  0  0  0
   11.4830  -59.7710   40.4771 C   0  0  0  0  0  0  0  0  0  0  0  0
  1  2  2  0  0  0
  1  3  2  0  0  0
  1 17  1  0  0  0
  1  4  1  0  0  0
 17 18  1  0  0  0
 17 22  1  0  0  0
 18 19  1  0  0  0
 19 20  1  0  0  0
 20 21  1  0  0  0
 20 23  1  0  0  0
 21 22  1  0  0  0
 23 24  2  0  0  0
 23 25  1  0  0  0
 25 26  1  0  0  0
 25 30  1  0  0  0
 26 27  1  0  0  0
 27 28  1  0  0  0
 28 29  1  0  0  0
 28 31  1  0  0  0
 29 30  1  0  0  0
  4  5  2  0  0  0
  4  9  1  0  0  0
  5  6  1  0  0  0
  6  7  2  0  0  0
  6 15  1  0  0  0
  7  8  1  0  0  0
  7 11  1  0  0  0
  8  9  2  0  0  0
  9 10  1  0  0  0
 11 12  1  0  0  0
 12 13  2  0  0  0
 12 14  1  0  0  0
 14 15  1  0  0  0
 11 16  1  0  0  0
M  END
> <minimizedAffinity>
-9.85684

$$$$
1539


 34 37  0  0  0  0  0  0  0  0999 V2000
   16.2851  -59.5848   33.7623 C   0  0  0  0  0  0  0  0  0  0  0  0
   14.8685  -59.4467   34.1239 N   0  0  0  0  0  0  0  0  0  0  0  0
   14.4759  -58.1884   33.5947 C   0  0  0  0  0  0  0  0  0  0  0  0
   13.3344  -57.8544   33.2372 O   0  0  0  0  0  0  0  0  0  0  0  0
   15.6822  -57.3679   33.5561 C   0  0  0  0  0  0  0  0  0  0  0  0
   15.8525  -56.1750   33.1654 O   0  0  0  0  0  0  0  0  0  0  0  0
   16.7662  -58.2098   34.0834 C   0  0  0  0  0  0  0  0  0  0  0  0
   17.8773  -57.7943   34.6594 C   0  0  0  0  0  0  0  0  0  0  0  0
   18.8147  -58.7502   35.0604 O   0  0  0  0  0  0  0  0  0  0  0  0
   16.3489  -60.5938   27.7736 Cl  0  0  0  0  0  0  0  0  0  0  0  0
   16.3326  -60.2992   29.5113 C   0  0  0  0  0  0  0  0  0  0  0  0
   15.4485  -60.9626   30.3426 C   0  0  0  0  0  0  0  0  0  0  0  0
   15.4481  -60.7206   31.6997 C   0  0  0  0  0  0  0  0  0  0  0  0
   16.3080  -59.8251   32.2987 C   0  0  0  0  0  0  0  0  0  0  0  0
   17.1958  -59.1631   31.4414 C   0  0  0  0  0  0  0  0  0  0  0  0
   17.1987  -59.4026   30.0867 C   0  0  0  0  0  0  0  0  0  0  0  0
   18.1681  -56.3886   34.8997 C   0  0  0  0  0  0  0  0  0  0  0  0
   19.0411  -55.6678   34.1015 C   0  0  0  0  0  0  0  0  0  0  0  0
   19.3341  -54.3429   34.3490 C   0  0  0  0  0  0  0  0  0  0  0  0
   18.7566  -53.6770   35.4209 C   0  0  0  0  0  0  0  0  0  0  0  0
   17.8877  -54.3818   36.2219 C   0  0  0  0  0  0  0  0  0  0  0  0
   17.5984  -55.7247   35.9613 C   0  0  0  0  0  0  0  0  0  0  0  0
   20.2735  -53.6130   33.4691 C   0  0  0  0  0  0  0  0  0  0  0  0
   19.0411  -52.3396   35.6837 O   0  0  0  0  0  0  0  0  0  0  0  0
   18.8457  -51.8440   36.9786 C   0  0  0  0  0  0  0  0  0  0  0  0
   14.0493  -60.4065   34.8648 C   0  0  0  0  0  0  0  0  0  0  0  0
   13.2991  -59.6146   35.9105 C   0  0  0  0  0  0  0  0  0  0  0  0
   13.9352  -59.6599   37.1994 N   0  0  0  0  0  0  0  0  0  0  0  0
   12.9682  -59.7451   38.2449 C   0  0  0  0  0  0  0  0  0  0  0  0
   12.5906  -58.4565   38.8963 C   0  0  0  0  0  0  0  0  0  0  0  0
   13.5875  -57.5209   38.9630 O   0  0  0  0  0  0  0  0  0  0  0  0
   14.1855  -57.2671   37.7356 C   0  0  0  0  0  0  0  0  0  0  0  0
   14.8423  -58.5508   37.2999 C   0  0  0  0  0  0  0  0  0  0  0  0
   14.4910  -60.5620   37.2088 H   0  0  0  0  0  0  0  0  0  0  0  0
 10 11  1  0  0  0
 11 12  2  0  0  0
 11 16  1  0  0  0
 12 13  1  0  0  0
 13 14  2  0  0  0
 14 15  1  0  0  0
 14  1  1  0  0  0
 15 16  2  0  0  0
  1  2  1  0  0  0
  1  7  1  0  0  0
  2  3  1  0  0  0
  2 26  1  0  0  0
  3  4  2  0  0  0
  3  5  1  0  0  0
  5  6  2  0  0  0
  5  7  1  0  0  0
  7  8  2  0  0  0
  8  9  1  0  0  0
  8 17  1  0  0  0
 17 18  2  0  0  0
 17 22  1  0  0  0
 18 19  1  0  0  0
 19 20  2  0  0  0
 19 23  1  0  0  0
 20 21  1  0  0  0
 20 24  1  0  0  0
 21 22  2  0  0  0
 24 25  1  0  0  0
 26 27  1  0  0  0
 27 28  1  0  0  0
 28 29  1  0  0  0
 28 33  1  0  0  0
 29 30  1  0  0  0
 30 31  1  0  0  0
 31 32  1  0  0  0
 32 33  1  0  0  0
 28 34  1  0  0  0
M  CHG 1   9  -1
M  CHG 1  28   1
M  END
> <minimizedAffinity>
-8.95190

$$$$
1548


 24 27  0  0  0  0  0  0  0  0999 V2000
   19.9678  -50.1741   36.2130 Cl  0  0  0  0  0  0  0  0  0  0  0  0
   19.5146  -51.8375   35.8714 C   0  0  0  0  0  0  0  0  0  0  0  0
   18.6759  -52.5535   36.6973 C   0  0  0  0  0  0  0  0  0  0  0  0
   18.3258  -53.8459   36.4298 N   0  0  0  0  0  0  0  0  0  0  0  0
   18.7855  -54.4858   35.3392 C   0  0  0  0  0  0  0  0  0  0  0  0
   18.4393  -55.7698   35.0716 N   0  0  0  0  0  0  0  0  0  0  0  0
   17.6167  -56.4652   35.8855 C   0  0  0  0  0  0  0  0  0  0  0  0
   17.1314  -55.8467   37.0008 C   0  0  0  0  0  0  0  0  0  0  0  0
   16.2143  -56.5715   37.9382 C   0  0  0  0  0  0  0  0  0  0  0  0
   15.5292  -57.5697   37.0987 N   0  0  0  0  0  0  0  0  0  0  0  0
   16.4111  -58.5321   36.5020 C   0  0  0  0  0  0  0  0  0  0  0  0
   17.3140  -57.8632   35.4804 C   0  0  0  0  0  0  0  0  0  0  0  0
   14.1460  -57.4750   36.9772 C   0  0  0  0  0  0  0  0  0  0  0  0
   13.5395  -56.5366   37.6014 O   0  0  0  0  0  0  0  0  0  0  0  0
   17.5057  -54.5323   37.2455 C   0  0  0  0  0  0  0  0  0  0  0  0
   17.0674  -53.9589   38.2621 O   0  0  0  0  0  0  0  0  0  0  0  0
   19.6304  -53.7726   34.5026 C   0  0  0  0  0  0  0  0  0  0  0  0
   20.0015  -52.4676   34.7467 C   0  0  0  0  0  0  0  0  0  0  0  0
   13.2909  -58.3665   36.1845 C   0  0  0  0  0  0  0  0  0  0  0  0
   12.4725  -59.2603   36.7470 N   0  0  0  0  0  0  0  0  0  0  0  0
   11.6973  -60.0683   36.0175 C   0  0  0  0  0  0  0  0  0  0  0  0
   11.6979  -60.0259   34.6387 C   0  0  0  0  0  0  0  0  0  0  0  0
   12.5269  -59.1207   34.0901 N   0  0  0  0  0  0  0  0  0  0  0  0
   13.3101  -58.3041   34.7952 C   0  0  0  0  0  0  0  0  0  0  0  0
  1  2  1  0  0  0
  2  3  2  0  0  0
  2 18  1  0  0  0
  3  4  1  0  0  0
  4  5  1  0  0  0
  4 15  1  0  0  0
  5  6  2  0  0  0
  5 17  1  0  0  0
  6  7  1  0  0  0
  7  8  2  0  0  0
  7 12  1  0  0  0
  8  9  1  0  0  0
  8 15  1  0  0  0
  9 10  1  0  0  0
 10 11  1  0  0  0
 10 13  1  0  0  0
 11 12  1  0  0  0
 13 14  2  0  0  0
 13 19  1  0  0  0
 19 20  2  0  0  0
 19 24  1  0  0  0
 20 21  1  0  0  0
 21 22  2  0  0  0
 22 23  1  0  0  0
 23 24  2  0  0  0
 15 16  2  0  0  0
 17 18  2  0  0  0
M  END
> <minimizedAffinity>
-8.20178

$$$$
1553


 29 32  0  0  0  0  0  0  0  0999 V2000
   17.0217  -57.3415   35.5155 C   0  0  0  0  0  0  0  0  0  0  0  0
   15.6350  -57.6177   35.5293 N   0  0  0  0  0  0  0  0  0  0  0  0
   15.0634  -58.1333   34.3197 C   0  0  0  0  0  0  0  0  0  0  0  0
   15.4061  -57.1826   33.1601 C   0  0  0  0  0  0  0  0  0  0  0  0
   16.8751  -57.2712   33.0548 C   0  0  0  0  0  0  0  0  0  0  0  0
   17.7172  -57.3036   31.9549 C   0  0  0  0  0  0  0  0  0  0  0  0
   18.9992  -57.4017   32.4482 C   0  0  0  0  0  0  0  0  0  0  0  0
   18.9629  -57.4297   33.7894 N   0  0  0  0  0  0  0  0  0  0  0  0
   17.6462  -57.3493   34.1723 C   0  0  0  0  0  0  0  0  0  0  0  0
   20.0387  -57.4536   31.5373 C   0  0  0  0  0  0  0  0  0  0  0  0
   19.7503  -57.4046   30.1960 C   0  0  0  0  0  0  0  0  0  0  0  0
   18.4677  -57.3068   29.7058 C   0  0  0  0  0  0  0  0  0  0  0  0
   17.4110  -57.2537   30.6120 C   0  0  0  0  0  0  0  0  0  0  0  0
   15.4608  -58.3504   36.2894 H   0  0  0  0  0  0  0  0  0  0  0  0
   15.0348  -56.8043   35.8168 H   0  0  0  0  0  0  0  0  0  0  0  0
   19.7602  -57.4982   34.4733 H   0  0  0  0  0  0  0  0  0  0  0  0
   15.7881  -53.5934   39.2045 Br  0  0  0  0  0  0  0  0  0  0  0  0
   16.7876  -54.2251   37.7007 C   0  0  0  0  0  0  0  0  0  0  0  0
   16.5437  -55.5003   37.1809 C   0  0  0  0  0  0  0  0  0  0  0  0
   17.2575  -55.9675   36.0918 C   0  0  0  0  0  0  0  0  0  0  0  0
   18.2105  -55.1341   35.5428 C   0  0  0  0  0  0  0  0  0  0  0  0
   18.4459  -53.8687   36.0648 C   0  0  0  0  0  0  0  0  0  0  0  0
   17.7344  -53.4068   37.1476 C   0  0  0  0  0  0  0  0  0  0  0  0
   19.7861  -52.7467   35.2562 Br  0  0  0  0  0  0  0  0  0  0  0  0
   15.5732  -56.2343   37.8103 O   0  0  0  0  0  0  0  0  0  0  0  0
   15.2728  -57.1402   37.5746 H   0  0  0  0  0  0  0  0  0  0  0  0
   13.6007  -58.2670   34.4737 C   0  0  0  0  0  0  0  0  0  0  0  0
   12.8601  -58.0430   33.4815 O   0  0  0  0  0  0  0  0  0  0  0  0
   13.0739  -58.6332   35.7012 O   0  0  0  0  0  0  0  0  0  0  0  0
 17 18  1  0  0  0
 18 19  2  0  0  0
 18 23  1  0  0  0
 19 20  1  0  0  0
 19 25  1  0  0  0
 20 21  2  0  0  0
 20  1  1  0  0  0
 21 22  1  0  0  0
 22 23  2  0  0  0
 22 24  1  0  0  0
  1  2  1  0  0  0
  1  9  1  0  0  0
  2  3  1  0  0  0
  3  4  1  0  0  0
  3 27  1  0  0  0
  4  5  1  0  0  0
  5  6  1  0  0  0
  5  9  2  0  0  0
  6  7  2  0  0  0
  6 13  1  0  0  0
  7  8  1  0  0  0
  7 10  1  0  0  0
  8  9  1  0  0  0
 10 11  2  0  0  0
 11 12  1  0  0  0
 12 13  2  0  0  0
 27 28  2  0  0  0
 27 29  1  0  0  0
  2 14  1  0  0  0
  2 15  1  0  0  0
  8 16  1  0  0  0
 25 26  1  0  0  0
M  CHG 1   2   1
M  END
> <minimizedAffinity>
-9.25417

$$$$
1571


 28 31  0  0  0  0  0  0  0  0999 V2000
   17.7480  -56.3266   32.4769 O   0  0  0  0  0  0  0  0  0  0  0  0
   18.5851  -55.3526   32.9701 C   0  0  0  0  0  0  0  0  0  0  0  0
   18.7835  -54.3601   32.2130 O   0  0  0  0  0  0  0  0  0  0  0  0
   19.2261  -55.4435   34.3094 C   0  0  0  0  0  0  0  0  0  0  0  0
   18.7715  -54.3706   35.1956 N   0  0  0  0  0  0  0  0  0  0  0  0
   17.5746  -54.3365   35.9682 C   0  0  0  0  0  0  0  0  0  0  0  0
   16.7876  -55.2962   36.1630 O   0  0  0  0  0  0  0  0  0  0  0  0
   17.4207  -52.9644   36.5051 C   0  0  0  0  0  0  0  0  0  0  0  0
   18.8701  -52.5668   36.6590 C   0  0  0  0  0  0  0  0  0  0  0  0
   19.5315  -53.2038   37.8656 C   0  0  0  0  0  0  0  0  0  0  0  0
   18.5617  -53.9443   38.7479 C   0  0  0  0  0  0  0  0  0  0  0  0
   17.3314  -53.1229   39.0107 C   0  0  0  0  0  0  0  0  0  0  0  0
   16.6126  -52.8666   37.7339 C   0  0  0  0  0  0  0  0  0  0  0  0
   19.4563  -53.1529   35.4316 C   0  0  0  0  0  0  0  0  0  0  0  0
   20.3901  -52.6770   34.7131 O   0  0  0  0  0  0  0  0  0  0  0  0
   17.6916  -57.6532   32.9214 C   0  0  0  0  0  0  0  0  0  0  0  0
   11.7138  -59.2877   38.4899 Br  0  0  0  0  0  0  0  0  0  0  0  0
   13.2715  -58.9309   37.4128 C   0  0  0  0  0  0  0  0  0  0  0  0
   13.1603  -58.6970   36.0628 C   0  0  0  0  0  0  0  0  0  0  0  0
   14.2240  -58.4459   35.2868 N   0  0  0  0  0  0  0  0  0  0  0  0
   15.4754  -58.4100   35.8115 C   0  0  0  0  0  0  0  0  0  0  0  0
   16.5660  -58.1630   35.0822 N   0  0  0  0  0  0  0  0  0  0  0  0
   16.4990  -57.9299   33.7568 C   0  0  0  0  0  0  0  0  0  0  0  0
   15.2427  -57.9584   33.1876 C   0  0  0  0  0  0  0  0  0  0  0  0
   14.1224  -58.2147   33.9527 C   0  0  0  0  0  0  0  0  0  0  0  0
   12.9554  -58.2493   33.4721 O   0  0  0  0  0  0  0  0  0  0  0  0
   15.6283  -58.6413   37.1770 C   0  0  0  0  0  0  0  0  0  0  0  0
   14.5267  -58.8993   37.9645 C   0  0  0  0  0  0  0  0  0  0  0  0
 17 18  1  0  0  0
 18 19  2  0  0  0
 18 28  1  0  0  0
 19 20  1  0  0  0
 20 21  1  0  0  0
 20 25  1  0  0  0
 21 22  2  0  0  0
 21 27  1  0  0  0
 22 23  1  0  0  0
 23 24  2  0  0  0
 23 16  1  0  0  0
 24 25  1  0  0  0
 25 26  2  0  0  0
 16  1  1  0  0  0
  1  2  1  0  0  0
  2  3  2  0  0  0
  2  4  1  0  0  0
  4  5  1  0  0  0
  5  6  1  0  0  0
  5 14  1  0  0  0
  6  7  2  0  0  0
  6  8  1  0  0  0
  8  9  1  0  0  0
  8 13  1  0  0  0
  9 10  1  0  0  0
  9 14  1  0  0  0
 10 11  1  0  0  0
 11 12  1  0  0  0
 12 13  1  0  0  0
 14 15  2  0  0  0
 27 28  2  0  0  0
M  END
> <minimizedAffinity>
-9.62953

$$$$
1576


 30 33  0  0  0  0  0  0  0  0999 V2000
   17.3247  -54.3545   37.4788 N   0  0  0  0  0  0  0  0  0  0  0  0
   18.7220  -54.3559   37.8549 C   0  0  0  0  0  0  0  0  0  0  0  0
   19.4795  -53.4337   36.9026 C   0  0  0  0  0  0  0  0  0  0  0  0
   18.9796  -53.6209   35.5500 N   0  0  0  0  0  0  0  0  0  0  0  0
   17.5722  -53.4138   35.3015 C   0  0  0  0  0  0  0  0  0  0  0  0
   16.8843  -53.2336   36.6337 C   0  0  0  0  0  0  0  0  0  0  0  0
   19.8395  -53.9978   34.4810 C   0  0  0  0  0  0  0  0  0  0  0  0
   21.0728  -54.1666   34.7344 O   0  0  0  0  0  0  0  0  0  0  0  0
   15.3477  -53.6249   39.6511 Cl  0  0  0  0  0  0  0  0  0  0  0  0
   15.4130  -55.1327   38.8117 C   0  0  0  0  0  0  0  0  0  0  0  0
   16.3779  -55.3132   37.8442 C   0  0  0  0  0  0  0  0  0  0  0  0
   16.3767  -56.5520   37.2070 C   0  0  0  0  0  0  0  0  0  0  0  0
   15.4591  -57.5315   37.5324 C   0  0  0  0  0  0  0  0  0  0  0  0
   14.5172  -57.3063   38.5014 C   0  0  0  0  0  0  0  0  0  0  0  0
   14.4921  -56.1075   39.1425 C   0  0  0  0  0  0  0  0  0  0  0  0
   19.3913  -54.2038   33.0990 C   0  0  0  0  0  0  0  0  0  0  0  0
   18.9424  -55.5686   32.8300 N   0  0  0  0  0  0  0  0  0  0  0  0
   18.2072  -56.3692   33.5755 N   0  0  0  0  0  0  0  0  0  0  0  0
   17.9906  -57.5565   33.0053 C   0  0  0  0  0  0  0  0  0  0  0  0
   18.6405  -57.5230   31.7847 C   0  0  0  0  0  0  0  0  0  0  0  0
   19.2227  -56.2779   31.7020 C   0  0  0  0  0  0  0  0  0  0  0  0
   20.0267  -55.7970   30.5589 C   0  0  0  0  0  0  0  0  0  0  0  0
   17.2122  -58.6774   33.5634 C   0  0  0  0  0  0  0  0  0  0  0  0
   17.7551  -59.7841   33.7527 O   0  0  0  0  0  0  0  0  0  0  0  0
   15.8511  -58.4726   33.8787 N   0  0  0  0  0  0  0  0  0  0  0  0
   15.1618  -57.2277   33.6884 C   0  0  0  0  0  0  0  0  0  0  0  0
   13.6876  -57.4968   34.0158 C   0  0  0  0  0  0  0  0  0  0  0  0
   13.2057  -58.5674   33.2956 O   0  0  0  0  0  0  0  0  0  0  0  0
   13.8438  -59.7560   33.5603 C   0  0  0  0  0  0  0  0  0  0  0  0
   15.0667  -59.5788   34.4356 C   0  0  0  0  0  0  0  0  0  0  0  0
  9 10  1  0  0  0
 10 11  2  0  0  0
 10 15  1  0  0  0
 11 12  1  0  0  0
 11  1  1  0  0  0
 12 13  2  0  0  0
 13 14  1  0  0  0
 14 15  2  0  0  0
  1  2  1  0  0  0
  1  6  1  0  0  0
  2  3  1  0  0  0
  3  4  1  0  0  0
  4  5  1  0  0  0
  4  7  1  0  0  0
  5  6  1  0  0  0
  7  8  2  0  0  0
  7 16  1  0  0  0
 16 17  1  0  0  0
 17 18  1  0  0  0
 17 21  1  0  0  0
 18 19  2  0  0  0
 19 20  1  0  0  0
 19 23  1  0  0  0
 20 21  2  0  0  0
 21 22  1  0  0  0
 23 24  2  0  0  0
 23 25  1  0  0  0
 25 26  1  0  0  0
 25 30  1  0  0  0
 26 27  1  0  0  0
 27 28  1  0  0  0
 28 29  1  0  0  0
 29 30  1  0  0  0
M  END
> <minimizedAffinity>
-9.35746

$$$$
1581


 27 30  0  0  0  0  0  0  0  0999 V2000
   14.9690  -59.0943   35.4569 N   0  0  0  0  0  0  0  0  0  0  0  0
   13.8447  -58.5004   34.8634 C   0  0  0  0  0  0  0  0  0  0  0  0
   14.1078  -57.2818   34.0426 C   0  0  0  0  0  0  0  0  0  0  0  0
   15.4455  -57.2852   33.4682 N   0  0  0  0  0  0  0  0  0  0  0  0
   15.9481  -56.3688   32.6423 N   0  0  0  0  0  0  0  0  0  0  0  0
   17.2020  -56.7036   32.3243 C   0  0  0  0  0  0  0  0  0  0  0  0
   17.4837  -57.8746   32.9818 C   0  0  0  0  0  0  0  0  0  0  0  0
   16.3517  -58.2439   33.7151 C   0  0  0  0  0  0  0  0  0  0  0  0
   16.0639  -59.3960   34.6054 C   0  0  0  0  0  0  0  0  0  0  0  0
   18.1173  -55.9386   31.4212 C   0  0  0  0  0  0  0  0  0  0  0  0
   17.6281  -54.6250   31.3313 O   0  0  0  0  0  0  0  0  0  0  0  0
   16.8843  -54.4810   31.9852 H   0  0  0  0  0  0  0  0  0  0  0  0
   19.5003  -55.8227   32.0571 C   0  0  0  0  0  0  0  0  0  0  0  0
   19.6526  -54.4165   32.6175 C   0  0  0  0  0  0  0  0  0  0  0  0
   15.2583  -58.7957   36.7971 C   0  0  0  0  0  0  0  0  0  0  0  0
   18.1798  -51.2821   37.6660 Cl  0  0  0  0  0  0  0  0  0  0  0  0
   17.7336  -52.9407   37.2923 C   0  0  0  0  0  0  0  0  0  0  0  0
   16.6857  -53.4944   37.9920 C   0  0  0  0  0  0  0  0  0  0  0  0
   16.3442  -54.7747   37.7008 N   0  0  0  0  0  0  0  0  0  0  0  0
   16.9900  -55.4926   36.7681 C   0  0  0  0  0  0  0  0  0  0  0  0
   16.6571  -56.7628   36.4726 N   0  0  0  0  0  0  0  0  0  0  0  0
   15.6519  -57.4104   37.0891 C   0  0  0  0  0  0  0  0  0  0  0  0
   14.9855  -56.6714   38.0510 C   0  0  0  0  0  0  0  0  0  0  0  0
   15.3266  -55.3727   38.3529 C   0  0  0  0  0  0  0  0  0  0  0  0
   14.6866  -54.7319   39.2434 O   0  0  0  0  0  0  0  0  0  0  0  0
   18.0550  -54.9348   36.0534 C   0  0  0  0  0  0  0  0  0  0  0  0
   18.4250  -53.6412   36.3255 C   0  0  0  0  0  0  0  0  0  0  0  0
 16 17  1  0  0  0
 17 18  2  0  0  0
 17 27  1  0  0  0
 18 19  1  0  0  0
 19 20  1  0  0  0
 19 24  1  0  0  0
 20 21  2  0  0  0
 20 26  1  0  0  0
 21 22  1  0  0  0
 22 23  2  0  0  0
 22 15  1  0  0  0
 23 24  1  0  0  0
 24 25  2  0  0  0
 15  1  1  0  0  0
  1  2  1  0  0  0
  1  9  1  0  0  0
  2  3  1  0  0  0
  3  4  1  0  0  0
  4  5  1  0  0  0
  4  8  1  0  0  0
  5  6  2  0  0  0
  6  7  1  0  0  0
  6 10  1  0  0  0
  7  8  2  0  0  0
  8  9  1  0  0  0
 10 11  1  0  0  0
 10 13  1  0  0  0
 13 14  1  0  0  0
 26 27  2  0  0  0
 11 12  1  0  0  0
M  END
> <minimizedAffinity>
-9.35766

$$$$
1586


 29 32  0  0  0  0  0  0  0  0999 V2000
   16.8025  -54.3489   38.6667 C   0  0  0  0  0  0  0  0  0  0  0  0
   16.4071  -54.0342   39.8900 O   0  0  0  0  0  0  0  0  0  0  0  0
   16.3729  -55.5995   38.1926 N   0  0  0  0  0  0  0  0  0  0  0  0
   16.7049  -56.1427   36.9239 C   0  0  0  0  0  0  0  0  0  0  0  0
   16.2373  -57.6072   36.8723 C   0  0  0  0  0  0  0  0  0  0  0  0
   14.8180  -57.5671   37.1123 N   0  0  0  0  0  0  0  0  0  0  0  0
   14.3770  -57.0323   38.3568 C   0  0  0  0  0  0  0  0  0  0  0  0
   15.5132  -56.3599   39.0995 C   0  0  0  0  0  0  0  0  0  0  0  0
   13.9082  -58.0383   36.1502 C   0  0  0  0  0  0  0  0  0  0  0  0
   12.7594  -58.3503   36.5107 O   0  0  0  0  0  0  0  0  0  0  0  0
   14.3486  -58.1456   34.7440 C   0  0  0  0  0  0  0  0  0  0  0  0
   15.6275  -58.7925   34.7576 N   0  0  0  0  0  0  0  0  0  0  0  0
   16.6176  -58.2769   35.6299 C   0  0  0  0  0  0  0  0  0  0  0  0
   17.8564  -58.3795   35.3651 O   0  0  0  0  0  0  0  0  0  0  0  0
   15.8494  -59.6204   34.1509 H   0  0  0  0  0  0  0  0  0  0  0  0
   20.3664  -50.2924   35.9612 Cl  0  0  0  0  0  0  0  0  0  0  0  0
   19.3010  -51.4486   36.7744 C   0  0  0  0  0  0  0  0  0  0  0  0
   18.1636  -51.0366   37.3896 C   0  0  0  0  0  0  0  0  0  0  0  0
   17.3449  -51.9734   38.0217 C   0  0  0  0  0  0  0  0  0  0  0  0
   17.6078  -53.3202   38.0693 C   0  0  0  0  0  0  0  0  0  0  0  0
   18.7980  -53.6883   37.4176 C   0  0  0  0  0  0  0  0  0  0  0  0
   19.6228  -52.7808   36.7867 C   0  0  0  0  0  0  0  0  0  0  0  0
   13.3446  -58.7525   33.8403 C   0  0  0  0  0  0  0  0  0  0  0  0
   13.8383  -60.0411   33.3283 C   0  0  0  0  0  0  0  0  0  0  0  0
   14.5649  -60.2813   32.2343 N   0  0  0  0  0  0  0  0  0  0  0  0
   14.8018  -61.6227   32.1373 C   0  0  0  0  0  0  0  0  0  0  0  0
   14.2222  -62.2342   33.1725 N   0  0  0  0  0  0  0  0  0  0  0  0
   13.6289  -61.2916   33.9121 C   0  0  0  0  0  0  0  0  0  0  0  0
   14.2273  -63.2388   33.3683 H   0  0  0  0  0  0  0  0  0  0  0  0
 16 17  1  0  0  0
 17 18  2  0  0  0
 17 22  1  0  0  0
 18 19  1  0  0  0
 19 20  2  0  0  0
 20 21  1  0  0  0
 20  1  1  0  0  0
 21 22  2  0  0  0
  1  2  2  0  0  0
  1  3  1  0  0  0
  3  4  1  0  0  0
  3  8  1  0  0  0
  4  5  1  0  0  0
  5  6  1  0  0  0
  5 13  1  0  0  0
  6  7  1  0  0  0
  6  9  1  0  0  0
  7  8  1  0  0  0
  9 10  2  0  0  0
  9 11  1  0  0  0
 11 12  1  0  0  0
 11 23  1  0  0  0
 12 13  1  0  0  0
 13 14  2  0  0  0
 23 24  1  0  0  0
 24 25  1  0  0  0
 24 28  2  0  0  0
 25 26  2  0  0  0
 26 27  1  0  0  0
 27 28  1  0  0  0
 12 15  1  0  0  0
 27 29  1  0  0  0
M  END
> <minimizedAffinity>
-9.30808

$$$$
1591


 26 29  0  0  0  0  0  0  0  0999 V2000
   17.0709  -56.1710   36.0694 Cl  0  0  0  0  0  0  0  0  0  0  0  0
   15.7833  -56.5083   37.2044 C   0  0  0  0  0  0  0  0  0  0  0  0
   15.6216  -55.7284   38.3145 C   0  0  0  0  0  0  0  0  0  0  0  0
   14.5703  -56.1006   39.1567 C   0  0  0  0  0  0  0  0  0  0  0  0
   13.7941  -57.1555   38.8631 N   0  0  0  0  0  0  0  0  0  0  0  0
   13.9323  -57.9178   37.8018 N   0  0  0  0  0  0  0  0  0  0  0  0
   14.9284  -57.5980   36.9653 C   0  0  0  0  0  0  0  0  0  0  0  0
   15.1409  -58.2668   35.9220 O   0  0  0  0  0  0  0  0  0  0  0  0
   13.0630  -59.0207   37.5649 C   0  0  0  0  0  0  0  0  0  0  0  0
   12.4146  -59.2140   36.3614 C   0  0  0  0  0  0  0  0  0  0  0  0
   11.5758  -60.2858   36.1425 C   0  0  0  0  0  0  0  0  0  0  0  0
   11.3514  -61.2167   37.1368 C   0  0  0  0  0  0  0  0  0  0  0  0
   11.9965  -61.0295   38.3411 C   0  0  0  0  0  0  0  0  0  0  0  0
   12.8368  -59.9536   38.5560 C   0  0  0  0  0  0  0  0  0  0  0  0
   16.4309  -54.6045   38.6042 N   0  0  0  0  0  0  0  0  0  0  0  0
   15.9362  -53.2394   38.5398 C   0  0  0  0  0  0  0  0  0  0  0  0
   16.6520  -52.4375   37.4836 C   0  0  0  0  0  0  0  0  0  0  0  0
   18.0454  -52.8035   37.5563 N   0  0  0  0  0  0  0  0  0  0  0  0
   18.5358  -53.3501   38.7947 C   0  0  0  0  0  0  0  0  0  0  0  0
   17.8395  -54.7179   38.9667 C   0  0  0  0  0  0  0  0  0  0  0  0
   18.9085  -52.6316   36.4475 C   0  0  0  0  0  0  0  0  0  0  0  0
   19.7332  -51.5745   36.1966 N   0  0  0  0  0  0  0  0  0  0  0  0
   20.3772  -51.7835   35.0657 N   0  0  0  0  0  0  0  0  0  0  0  0
   19.9818  -52.9552   34.5845 C   0  0  0  0  0  0  0  0  0  0  0  0
   19.1066  -53.4419   35.4246 O   0  0  0  0  0  0  0  0  0  0  0  0
   20.4107  -53.6496   33.3274 C   0  0  0  0  0  0  0  0  0  0  0  0
  1  2  1  0  0  0
  2  3  2  0  0  0
  2  7  1  0  0  0
  3  4  1  0  0  0
  3 15  1  0  0  0
  4  5  2  0  0  0
  5  6  1  0  0  0
  6  7  1  0  0  0
  6  9  1  0  0  0
  7  8  2  0  0  0
  9 10  2  0  0  0
  9 14  1  0  0  0
 10 11  1  0  0  0
 11 12  2  0  0  0
 12 13  1  0  0  0
 13 14  2  0  0  0
 15 16  1  0  0  0
 15 20  1  0  0  0
 16 17  1  0  0  0
 17 18  1  0  0  0
 18 19  1  0  0  0
 18 21  1  0  0  0
 19 20  1  0  0  0
 21 22  2  0  0  0
 21 25  1  0  0  0
 22 23  1  0  0  0
 23 24  2  0  0  0
 24 25  1  0  0  0
 24 26  1  0  0  0
M  END
> <minimizedAffinity>
-8.96718

$$$$
1594


 27 30  0  0  0  0  0  0  0  0999 V2000
   15.4563  -57.5834   37.1632 C   0  0  0  0  0  0  0  0  0  0  0  0
   15.6917  -58.4145   38.1159 O   0  0  0  0  0  0  0  0  0  0  0  0
   14.6616  -58.0385   36.1289 N   0  0  0  0  0  0  0  0  0  0  0  0
   14.2909  -57.2392   34.9859 C   0  0  0  0  0  0  0  0  0  0  0  0
   14.9608  -57.7503   33.7280 C   0  0  0  0  0  0  0  0  0  0  0  0
   15.0187  -59.2506   33.7689 C   0  0  0  0  0  0  0  0  0  0  0  0
   14.6407  -60.0177   34.8367 C   0  0  0  0  0  0  0  0  0  0  0  0
   14.8530  -61.3031   34.4526 N   0  0  0  0  0  0  0  0  0  0  0  0
   15.3318  -61.3538   33.2305 N   0  0  0  0  0  0  0  0  0  0  0  0
   15.4579  -60.1103   32.7501 C   0  0  0  0  0  0  0  0  0  0  0  0
   15.8851  -59.7452   31.6078 O   0  0  0  0  0  0  0  0  0  0  0  0
   14.1185  -59.4183   36.0986 C   0  0  0  0  0  0  0  0  0  0  0  0
   14.6454  -62.1120   35.0868 H   0  0  0  0  0  0  0  0  0  0  0  0
   19.4829  -51.1638   36.5711 Cl  0  0  0  0  0  0  0  0  0  0  0  0
   18.3305  -52.3826   37.0831 C   0  0  0  0  0  0  0  0  0  0  0  0
   18.2764  -53.6081   36.4589 C   0  0  0  0  0  0  0  0  0  0  0  0
   17.3688  -54.5307   36.8832 N   0  0  0  0  0  0  0  0  0  0  0  0
   16.5488  -54.2305   37.8963 C   0  0  0  0  0  0  0  0  0  0  0  0
   15.7517  -55.2845   38.1331 N   0  0  0  0  0  0  0  0  0  0  0  0
   16.0524  -56.2637   37.2799 C   0  0  0  0  0  0  0  0  0  0  0  0
   17.0944  -55.7768   36.4750 C   0  0  0  0  0  0  0  0  0  0  0  0
   16.5819  -52.9875   38.5520 C   0  0  0  0  0  0  0  0  0  0  0  0
   17.4867  -52.0622   38.1325 C   0  0  0  0  0  0  0  0  0  0  0  0
   15.6934  -62.5485   32.4539 C   0  0  0  0  0  0  0  0  0  0  0  0
   16.9401  -63.1943   33.0130 C   0  0  0  0  0  0  0  0  0  0  0  0
   18.0807  -62.4403   32.7640 O   0  0  0  0  0  0  0  0  0  0  0  0
   18.8770  -63.0170   32.5636 H   0  0  0  0  0  0  0  0  0  0  0  0
 14 15  1  0  0  0
 15 16  2  0  0  0
 15 23  1  0  0  0
 16 17  1  0  0  0
 17 18  1  0  0  0
 17 21  1  0  0  0
 18 19  2  0  0  0
 18 22  1  0  0  0
 19 20  1  0  0  0
 20 21  2  0  0  0
 20  1  1  0  0  0
  1  2  2  0  0  0
  1  3  1  0  0  0
  3  4  1  0  0  0
  3 12  1  0  0  0
  4  5  1  0  0  0
  5  6  1  0  0  0
  6  7  2  0  0  0
  6 10  1  0  0  0
  7  8  1  0  0  0
  7 12  1  0  0  0
  8  9  1  0  0  0
  9 10  1  0  0  0
  9 24  1  0  0  0
 10 11  2  0  0  0
 24 25  1  0  0  0
 25 26  1  0  0  0
 22 23  2  0  0  0
  8 13  1  0  0  0
 26 27  1  0  0  0
M  END
> <minimizedAffinity>
-8.73966

$$$$
1599


 30 33  0  0  0  0  0  0  0  0999 V2000
   17.3641  -56.3158   33.8449 C   0  0  0  0  0  0  0  0  0  0  0  0
   16.8516  -55.1502   33.7010 O   0  0  0  0  0  0  0  0  0  0  0  0
   16.6821  -57.4694   33.4351 N   0  0  0  0  0  0  0  0  0  0  0  0
   17.2198  -58.7838   33.5836 C   0  0  0  0  0  0  0  0  0  0  0  0
   16.1692  -59.8078   33.9076 C   0  0  0  0  0  0  0  0  0  0  0  0
   14.9007  -59.2473   34.5126 C   0  0  0  0  0  0  0  0  0  0  0  0
   13.9660  -60.3627   34.4515 N   0  0  0  0  0  0  0  0  0  0  0  0
   12.7463  -60.1918   35.1438 C   0  0  0  0  0  0  0  0  0  0  0  0
   12.6746  -59.1254   36.1743 C   0  0  0  0  0  0  0  0  0  0  0  0
   14.0163  -58.8422   36.7726 C   0  0  0  0  0  0  0  0  0  0  0  0
   14.3876  -58.5224   38.0115 N   0  0  0  0  0  0  0  0  0  0  0  0
   15.7293  -58.3837   37.9690 C   0  0  0  0  0  0  0  0  0  0  0  0
   16.1845  -58.6138   36.7179 N   0  0  0  0  0  0  0  0  0  0  0  0
   15.1036  -58.9077   35.9388 C   0  0  0  0  0  0  0  0  0  0  0  0
   14.3464  -58.0561   33.7742 C   0  0  0  0  0  0  0  0  0  0  0  0
   15.3508  -57.4016   32.8433 C   0  0  0  0  0  0  0  0  0  0  0  0
   13.8105  -60.5055   33.4122 H   0  0  0  0  0  0  0  0  0  0  0  0
   17.1729  -58.5709   36.4179 H   0  0  0  0  0  0  0  0  0  0  0  0
   18.7311  -56.3234   34.4800 C   0  0  0  0  0  0  0  0  0  0  0  0
   19.3990  -53.8772   35.4329 C   0  0  0  0  0  0  0  0  0  0  0  0
   20.3773  -53.1249   35.0881 O   0  0  0  0  0  0  0  0  0  0  0  0
   19.0728  -55.0718   34.9678 N   0  0  0  0  0  0  0  0  0  0  0  0
   20.1563  -55.0478   34.1077 H   0  0  0  0  0  0  0  0  0  0  0  0
   15.3862  -54.4531   38.9064 Br  0  0  0  0  0  0  0  0  0  0  0  0
   16.7395  -53.4214   38.0910 C   0  0  0  0  0  0  0  0  0  0  0  0
   17.5459  -53.9963   37.1206 C   0  0  0  0  0  0  0  0  0  0  0  0
   18.5398  -53.2758   36.5133 C   0  0  0  0  0  0  0  0  0  0  0  0
   18.7882  -51.9726   36.8241 C   0  0  0  0  0  0  0  0  0  0  0  0
   17.9789  -51.3849   37.8013 C   0  0  0  0  0  0  0  0  0  0  0  0
   16.9742  -52.1083   38.4160 C   0  0  0  0  0  0  0  0  0  0  0  0
 24 25  1  0  0  0
 25 26  2  0  0  0
 25 30  1  0  0  0
 26 27  1  0  0  0
 27 28  2  0  0  0
 27 20  1  0  0  0
 28 29  1  0  0  0
 29 30  2  0  0  0
 20 21  2  0  0  0
 20 22  1  0  0  0
 22 19  1  0  0  0
 19  1  1  0  0  0
  1  2  2  0  0  0
  1  3  1  0  0  0
  3  4  1  0  0  0
  3 16  1  0  0  0
  4  5  1  0  0  0
  5  6  1  0  0  0
  6  7  1  0  0  0
  6 14  1  0  0  0
  6 15  1  0  0  0
  7  8  1  0  0  0
  8  9  1  0  0  0
  9 10  1  0  0  0
 10 11  1  0  0  0
 10 14  2  0  0  0
 11 12  2  0  0  0
 12 13  1  0  0  0
 13 14  1  0  0  0
 15 16  1  0  0  0
 22 23  1  0  0  0
  7 17  1  0  0  0
 13 18  1  0  0  0
M  END
> <minimizedAffinity>
-9.74403

$$$$
1609


 26 29  0  0  0  0  0  0  0  0999 V2000
   18.5849  -56.4364   33.6017 N   0  0  0  0  0  0  0  0  0  0  0  0
   18.2065  -56.1035   32.2543 C   0  0  0  0  0  0  0  0  0  0  0  0
   17.3880  -57.3176   31.8626 C   0  0  0  0  0  0  0  0  0  0  0  0
   18.1977  -58.3615   32.3874 O   0  0  0  0  0  0  0  0  0  0  0  0
   18.6160  -57.8586   33.6364 C   0  0  0  0  0  0  0  0  0  0  0  0
   18.9566  -58.6058   34.6073 O   0  0  0  0  0  0  0  0  0  0  0  0
   17.4397  -57.1843   30.3843 C   0  0  0  0  0  0  0  0  0  0  0  0
   18.8958  -57.0242   30.1669 N   0  0  0  0  0  0  0  0  0  0  0  0
   19.3912  -56.2896   31.2895 C   0  0  0  0  0  0  0  0  0  0  0  0
   19.5100  -57.5540   29.0287 C   0  0  0  0  0  0  0  0  0  0  0  0
   18.7999  -58.1999   28.1538 O   0  0  0  0  0  0  0  0  0  0  0  0
   20.9188  -57.4642   28.6918 C   0  0  0  0  0  0  0  0  0  0  0  0
   21.5934  -56.3559   28.2828 N   0  0  0  0  0  0  0  0  0  0  0  0
   22.8669  -56.6844   28.0797 C   0  0  0  0  0  0  0  0  0  0  0  0
   23.0277  -57.9814   28.3492 N   0  0  0  0  0  0  0  0  0  0  0  0
   21.8296  -58.4782   28.7303 C   0  0  0  0  0  0  0  0  0  0  0  0
   21.0053  -55.0539   28.1059 C   0  0  0  0  0  0  0  0  0  0  0  0
   18.8909  -55.6008   34.7400 C   0  0  0  0  0  0  0  0  0  0  0  0
   17.6915  -55.2671   35.5844 C   0  0  0  0  0  0  0  0  0  0  0  0
   20.3857  -50.8389   36.1686 Cl  0  0  0  0  0  0  0  0  0  0  0  0
   19.0384  -51.8959   36.6003 C   0  0  0  0  0  0  0  0  0  0  0  0
   18.8906  -53.1055   35.9648 C   0  0  0  0  0  0  0  0  0  0  0  0
   17.8393  -53.9671   36.2790 C   0  0  0  0  0  0  0  0  0  0  0  0
   16.9639  -53.5388   37.2565 C   0  0  0  0  0  0  0  0  0  0  0  0
   17.1213  -52.3200   37.8906 C   0  0  0  0  0  0  0  0  0  0  0  0
   18.1619  -51.4719   37.5762 C   0  0  0  0  0  0  0  0  0  0  0  0
 20 21  1  0  0  0
 21 22  2  0  0  0
 21 26  1  0  0  0
 22 23  1  0  0  0
 23 24  2  0  0  0
 23 19  1  0  0  0
 24 25  1  0  0  0
 25 26  2  0  0  0
 19 18  1  0  0  0
 18  1  1  0  0  0
  1  2  1  0  0  0
  1  5  1  0  0  0
  2  3  1  0  0  0
  2  9  1  0  0  0
  3  4  1  0  0  0
  3  7  1  0  0  0
  4  5  1  0  0  0
  5  6  2  0  0  0
  7  8  1  0  0  0
  8  9  1  0  0  0
  8 10  1  0  0  0
 10 11  2  0  0  0
 10 12  1  0  0  0
 12 13  1  0  0  0
 12 16  2  0  0  0
 13 14  1  0  0  0
 13 17  1  0  0  0
 14 15  2  0  0  0
 15 16  1  0  0  0
M  END
> <minimizedAffinity>
-9.15915

$$$$
1612


 31 34  0  0  0  0  0  0  0  0999 V2000
   17.9717  -54.9899   33.8202 N   0  0  0  0  0  0  0  0  0  0  0  0
   17.9934  -55.5340   32.5860 C   0  0  0  0  0  0  0  0  0  0  0  0
   19.2822  -55.4215   32.1208 C   0  0  0  0  0  0  0  0  0  0  0  0
   19.9885  -54.8271   33.0621 N   0  0  0  0  0  0  0  0  0  0  0  0
   19.1959  -54.5512   34.1276 C   0  0  0  0  0  0  0  0  0  0  0  0
   19.5554  -55.9089   30.8778 N   0  0  0  0  0  0  0  0  0  0  0  0
   18.6107  -56.4816   30.1229 C   0  0  0  0  0  0  0  0  0  0  0  0
   18.9146  -56.9187   28.9780 O   0  0  0  0  0  0  0  0  0  0  0  0
   17.3441  -56.6115   30.5377 N   0  0  0  0  0  0  0  0  0  0  0  0
   17.0421  -56.1362   31.7695 C   0  0  0  0  0  0  0  0  0  0  0  0
   15.8611  -56.2560   32.1627 O   0  0  0  0  0  0  0  0  0  0  0  0
   20.9204  -55.8040   30.3671 C   0  0  0  0  0  0  0  0  0  0  0  0
   16.6378  -57.0656   29.9166 H   0  0  0  0  0  0  0  0  0  0  0  0
   19.6620  -53.9669   35.3534 N   0  0  0  0  0  0  0  0  0  0  0  0
   19.9323  -52.5147   35.3636 C   0  0  0  0  0  0  0  0  0  0  0  0
   19.1530  -51.8118   36.4279 C   0  0  0  0  0  0  0  0  0  0  0  0
   18.7809  -52.7177   37.4900 N   0  0  0  0  0  0  0  0  0  0  0  0
   19.6956  -53.7985   37.7933 C   0  0  0  0  0  0  0  0  0  0  0  0
   19.8755  -54.6732   36.5650 C   0  0  0  0  0  0  0  0  0  0  0  0
   17.5676  -52.5410   38.2078 C   0  0  0  0  0  0  0  0  0  0  0  0
   16.8071  -51.5857   37.9390 O   0  0  0  0  0  0  0  0  0  0  0  0
   17.1686  -53.4752   39.2871 C   0  0  0  0  0  0  0  0  0  0  0  0
   15.6433  -53.4729   39.3447 C   0  0  0  0  0  0  0  0  0  0  0  0
   16.8016  -54.9732   34.6386 C   0  0  0  0  0  0  0  0  0  0  0  0
   15.0760  -57.0597   39.0684 Cl  0  0  0  0  0  0  0  0  0  0  0  0
   15.8788  -57.2089   37.5059 C   0  0  0  0  0  0  0  0  0  0  0  0
   15.9872  -56.0637   36.7275 C   0  0  0  0  0  0  0  0  0  0  0  0
   16.6026  -56.1545   35.5115 C   0  0  0  0  0  0  0  0  0  0  0  0
   17.1032  -57.4025   35.0917 C   0  0  0  0  0  0  0  0  0  0  0  0
   16.9829  -58.5121   35.8779 C   0  0  0  0  0  0  0  0  0  0  0  0
   16.3615  -58.4376   37.1125 C   0  0  0  0  0  0  0  0  0  0  0  0
 25 26  1  0  0  0
 26 27  2  0  0  0
 26 31  1  0  0  0
 27 28  1  0  0  0
 28 29  2  0  0  0
 28 24  1  0  0  0
 29 30  1  0  0  0
 30 31  2  0  0  0
 24  1  1  0  0  0
  1  2  1  0  0  0
  1  5  1  0  0  0
  2  3  2  0  0  0
  2 10  1  0  0  0
  3  4  1  0  0  0
  3  6  1  0  0  0
  4  5  2  0  0  0
  5 14  1  0  0  0
 14 15  1  0  0  0
 14 19  1  0  0  0
 15 16  1  0  0  0
 16 17  1  0  0  0
 17 18  1  0  0  0
 17 20  1  0  0  0
 18 19  1  0  0  0
 20 21  2  0  0  0
 20 22  1  0  0  0
 22 23  1  0  0  0
  6  7  1  0  0  0
  6 12  1  0  0  0
  7  8  2  0  0  0
  7  9  1  0  0  0
  9 10  1  0  0  0
 10 11  2  0  0  0
  9 13  1  0  0  0
M  END
> <minimizedAffinity>
-9.21405

$$$$
1622


 28 31  0  0  0  0  0  0  0  0999 V2000
   18.4022  -57.7329   33.7934 C   0  0  0  0  0  0  0  0  0  0  0  0
   19.1734  -58.4720   34.4576 O   0  0  0  0  0  0  0  0  0  0  0  0
   17.0988  -58.1469   33.4074 N   0  0  0  0  0  0  0  0  0  0  0  0
   16.6454  -59.4648   33.7944 C   0  0  0  0  0  0  0  0  0  0  0  0
   15.1311  -59.4048   33.8717 C   0  0  0  0  0  0  0  0  0  0  0  0
   14.6428  -58.0652   34.3781 C   0  0  0  0  0  0  0  0  0  0  0  0
   13.2245  -58.1933   34.6223 N   0  0  0  0  0  0  0  0  0  0  0  0
   13.0420  -58.6963   35.9371 C   0  0  0  0  0  0  0  0  0  0  0  0
   12.0157  -59.2696   36.4211 O   0  0  0  0  0  0  0  0  0  0  0  0
   14.2636  -58.4284   36.6320 N   0  0  0  0  0  0  0  0  0  0  0  0
   15.1634  -57.7722   35.7378 C   0  0  0  0  0  0  0  0  0  0  0  0
   16.1740  -57.0977   36.0753 O   0  0  0  0  0  0  0  0  0  0  0  0
   14.5880  -58.7508   38.0235 C   0  0  0  0  0  0  0  0  0  0  0  0
   14.9666  -56.9476   33.4313 C   0  0  0  0  0  0  0  0  0  0  0  0
   16.1837  -57.3282   32.6452 C   0  0  0  0  0  0  0  0  0  0  0  0
   12.4845  -57.9528   33.9363 H   0  0  0  0  0  0  0  0  0  0  0  0
   19.3001  -57.4610   30.9613 Cl  0  0  0  0  0  0  0  0  0  0  0  0
   19.3736  -56.1594   32.1571 C   0  0  0  0  0  0  0  0  0  0  0  0
   18.9270  -56.4114   33.4360 C   0  0  0  0  0  0  0  0  0  0  0  0
   18.9790  -55.4063   34.3766 C   0  0  0  0  0  0  0  0  0  0  0  0
   19.4693  -54.1577   34.0576 C   0  0  0  0  0  0  0  0  0  0  0  0
   19.9079  -53.9498   32.7598 C   0  0  0  0  0  0  0  0  0  0  0  0
   19.8729  -54.9260   31.7919 C   0  0  0  0  0  0  0  0  0  0  0  0
   19.5331  -53.1011   35.0143 N   0  0  0  0  0  0  0  0  0  0  0  0
   20.2653  -52.0148   34.9853 N   0  0  0  0  0  0  0  0  0  0  0  0
   20.0212  -51.2672   36.1010 C   0  0  0  0  0  0  0  0  0  0  0  0
   19.0841  -51.9310   36.8615 C   0  0  0  0  0  0  0  0  0  0  0  0
   18.7972  -53.0928   36.1392 C   0  0  0  0  0  0  0  0  0  0  0  0
 17 18  1  0  0  0
 18 19  2  0  0  0
 18 23  1  0  0  0
 19 20  1  0  0  0
 19  1  1  0  0  0
 20 21  2  0  0  0
 21 22  1  0  0  0
 21 24  1  0  0  0
 22 23  2  0  0  0
 24 25  1  0  0  0
 24 28  1  0  0  0
 25 26  2  0  0  0
 26 27  1  0  0  0
 27 28  2  0  0  0
  1  2  2  0  0  0
  1  3  1  0  0  0
  3  4  1  0  0  0
  3 15  1  0  0  0
  4  5  1  0  0  0
  5  6  1  0  0  0
  6  7  1  0  0  0
  6 11  1  0  0  0
  6 14  1  0  0  0
  7  8  1  0  0  0
  8  9  2  0  0  0
  8 10  1  0  0  0
 10 11  1  0  0  0
 10 13  1  0  0  0
 11 12  2  0  0  0
 14 15  1  0  0  0
  7 16  1  0  0  0
M  END
> <minimizedAffinity>
-9.96344

$$$$
1624


 32 35  0  0  0  0  0  0  0  0999 V2000
   16.1946  -58.1295   35.5541 C   0  0  0  0  0  0  0  0  0  0  0  0
   14.7936  -58.4671   35.2425 N   0  0  0  0  0  0  0  0  0  0  0  0
   14.3724  -57.6539   34.1553 C   0  0  0  0  0  0  0  0  0  0  0  0
   13.2156  -57.3747   33.8339 O   0  0  0  0  0  0  0  0  0  0  0  0
   15.5887  -57.1912   33.4586 C   0  0  0  0  0  0  0  0  0  0  0  0
   15.6652  -56.4384   32.4349 O   0  0  0  0  0  0  0  0  0  0  0  0
   16.7029  -57.7731   34.1889 C   0  0  0  0  0  0  0  0  0  0  0  0
   17.9122  -57.9055   33.7032 C   0  0  0  0  0  0  0  0  0  0  0  0
   18.8937  -58.4398   34.5325 O   0  0  0  0  0  0  0  0  0  0  0  0
   16.4525  -53.4862   39.3437 Cl  0  0  0  0  0  0  0  0  0  0  0  0
   16.3536  -54.8474   38.2615 C   0  0  0  0  0  0  0  0  0  0  0  0
   15.5577  -55.9205   38.5343 C   0  0  0  0  0  0  0  0  0  0  0  0
   15.5161  -56.9793   37.6389 C   0  0  0  0  0  0  0  0  0  0  0  0
   16.2355  -57.0109   36.4874 C   0  0  0  0  0  0  0  0  0  0  0  0
   17.0482  -55.9114   36.2120 C   0  0  0  0  0  0  0  0  0  0  0  0
   17.1063  -54.8490   37.0849 C   0  0  0  0  0  0  0  0  0  0  0  0
   18.3372  -57.5454   32.3545 C   0  0  0  0  0  0  0  0  0  0  0  0
   18.9712  -56.3156   32.2194 C   0  0  0  0  0  0  0  0  0  0  0  0
   19.4196  -55.9240   30.9895 C   0  0  0  0  0  0  0  0  0  0  0  0
   19.2542  -56.7260   29.8768 C   0  0  0  0  0  0  0  0  0  0  0  0
   18.6251  -57.9446   30.0164 C   0  0  0  0  0  0  0  0  0  0  0  0
   18.1774  -58.3297   31.2639 C   0  0  0  0  0  0  0  0  0  0  0  0
   19.8389  -56.1866   28.3373 Cl  0  0  0  0  0  0  0  0  0  0  0  0
   14.0825  -59.4794   35.9805 C   0  0  0  0  0  0  0  0  0  0  0  0
   12.6132  -59.3106   36.0603 C   0  0  0  0  0  0  0  0  0  0  0  0
   12.0267  -58.9996   37.3107 N   0  0  0  0  0  0  0  0  0  0  0  0
   12.8495  -59.3440   38.4508 C   0  0  0  0  0  0  0  0  0  0  0  0
   12.1635  -60.2537   39.4415 C   0  0  0  0  0  0  0  0  0  0  0  0
   10.9028  -59.8594   39.8082 O   0  0  0  0  0  0  0  0  0  0  0  0
   10.1009  -59.5019   38.7405 C   0  0  0  0  0  0  0  0  0  0  0  0
   10.8083  -59.8234   37.4589 C   0  0  0  0  0  0  0  0  0  0  0  0
   11.6760  -58.0298   37.3739 H   0  0  0  0  0  0  0  0  0  0  0  0
 10 11  1  0  0  0
 11 12  2  0  0  0
 11 16  1  0  0  0
 12 13  1  0  0  0
 13 14  2  0  0  0
 14 15  1  0  0  0
 14  1  1  0  0  0
 15 16  2  0  0  0
  1  2  1  0  0  0
  1  7  1  0  0  0
  2  3  1  0  0  0
  2 24  1  0  0  0
  3  4  2  0  0  0
  3  5  1  0  0  0
  5  6  2  0  0  0
  5  7  1  0  0  0
  7  8  2  0  0  0
  8  9  1  0  0  0
  8 17  1  0  0  0
 17 18  2  0  0  0
 17 22  1  0  0  0
 18 19  1  0  0  0
 19 20  2  0  0  0
 20 21  1  0  0  0
 20 23  1  0  0  0
 21 22  2  0  0  0
 24 25  1  0  0  0
 25 26  1  0  0  0
 26 27  1  0  0  0
 26 31  1  0  0  0
 27 28  1  0  0  0
 28 29  1  0  0  0
 29 30  1  0  0  0
 30 31  1  0  0  0
 26 32  1  0  0  0
M  CHG 1   9  -1
M  CHG 1  26   1
M  END
> <minimizedAffinity>
-9.98824

$$$$
1630


 39 43  0  0  0  0  0  0  0  0999 V2000
   18.5221  -51.7258   36.9640 Cl  0  0  0  0  0  0  0  0  0  0  0  0
   17.7305  -53.2937   36.7434 C   0  0  0  0  0  0  0  0  0  0  0  0
   17.2205  -53.9654   37.8275 C   0  0  0  0  0  0  0  0  0  0  0  0
   16.5984  -55.1952   37.6573 C   0  0  0  0  0  0  0  0  0  0  0  0
   16.4557  -55.8015   36.4387 C   0  0  0  0  0  0  0  0  0  0  0  0
   16.9853  -55.0925   35.3492 C   0  0  0  0  0  0  0  0  0  0  0  0
   17.6044  -53.8721   35.5069 C   0  0  0  0  0  0  0  0  0  0  0  0
   15.7668  -57.0706   36.6060 C   0  0  0  0  0  0  0  0  0  0  0  0
   14.5048  -56.9946   35.8753 N   0  0  0  0  0  0  0  0  0  0  0  0
   14.7646  -57.7720   34.6945 C   0  0  0  0  0  0  0  0  0  0  0  0
   15.4878  -58.9718   35.2625 C   0  0  0  0  0  0  0  0  0  0  0  0
   16.5020  -58.2821   36.1489 C   0  0  0  0  0  0  0  0  0  0  0  0
   17.6555  -58.0807   35.2955 C   0  0  0  0  0  0  0  0  0  0  0  0
   18.6204  -57.3138   35.5087 O   0  0  0  0  0  0  0  0  0  0  0  0
   17.5316  -58.9041   34.1441 N   0  0  0  0  0  0  0  0  0  0  0  0
   16.3159  -59.6494   34.2329 C   0  0  0  0  0  0  0  0  0  0  0  0
   15.9548  -60.6721   33.6038 O   0  0  0  0  0  0  0  0  0  0  0  0
   15.4944  -57.1721   38.0593 C   0  0  0  0  0  0  0  0  0  0  0  0
   14.9046  -58.1085   38.6754 O   0  0  0  0  0  0  0  0  0  0  0  0
   16.0193  -56.0129   38.6667 N   0  0  0  0  0  0  0  0  0  0  0  0
   17.3514  -53.3471   39.1760 C   0  0  0  0  0  0  0  0  0  0  0  0
   14.2639  -55.9970   35.6943 H   0  0  0  0  0  0  0  0  0  0  0  0
   15.9786  -55.8042   39.7005 H   0  0  0  0  0  0  0  0  0  0  0  0
   18.4373  -59.0354   33.0184 C   0  0  0  0  0  0  0  0  0  0  0  0
   18.3983  -57.8587   32.1320 C   0  0  0  0  0  0  0  0  0  0  0  0
   17.6015  -57.9235   31.0090 C   0  0  0  0  0  0  0  0  0  0  0  0
   17.5694  -56.8120   30.1780 C   0  0  0  0  0  0  0  0  0  0  0  0
   18.2979  -55.6899   30.4557 C   0  0  0  0  0  0  0  0  0  0  0  0
   19.0797  -55.6639   31.5862 C   0  0  0  0  0  0  0  0  0  0  0  0
   19.1547  -56.7344   32.4499 C   0  0  0  0  0  0  0  0  0  0  0  0
   16.8751  -59.0665   30.7491 O   0  0  0  0  0  0  0  0  0  0  0  0
   17.0072  -59.8540   29.6077 C   0  0  0  0  0  0  0  0  0  0  0  0
   13.4819  -58.1603   33.9937 C   0  0  0  0  0  0  0  0  0  0  0  0
   12.6066  -58.8356   35.0286 C   0  0  0  0  0  0  0  0  0  0  0  0
   12.2486  -60.2190   34.6284 C   0  0  0  0  0  0  0  0  0  0  0  0
   11.3484  -60.8358   35.2658 O   0  0  0  0  0  0  0  0  0  0  0  0
   12.9513  -60.7828   33.5298 N   0  0  0  0  0  0  0  0  0  0  0  0
   13.1977  -60.1651   32.7383 H   0  0  0  0  0  0  0  0  0  0  0  0
   13.1816  -61.8071   33.5852 H   0  0  0  0  0  0  0  0  0  0  0  0
  1  2  1  0  0  0
  2  3  2  0  0  0
  2  7  1  0  0  0
  3  4  1  0  0  0
  3 21  1  0  0  0
  4  5  2  0  0  0
  4 20  1  0  0  0
  5  6  1  0  0  0
  5  8  1  0  0  0
  6  7  2  0  0  0
  8  9  1  0  0  0
  8 12  1  0  0  0
  8 18  1  0  0  0
  9 10  1  0  0  0
 10 11  1  0  0  0
 10 33  1  0  0  0
 11 12  1  0  0  0
 11 16  1  0  0  0
 12 13  1  0  0  0
 13 14  2  0  0  0
 13 15  1  0  0  0
 15 16  1  0  0  0
 15 24  1  0  0  0
 16 17  2  0  0  0
 24 25  1  0  0  0
 25 26  2  0  0  0
 25 30  1  0  0  0
 26 27  1  0  0  0
 26 31  1  0  0  0
 27 28  2  0  0  0
 28 29  1  0  0  0
 29 30  2  0  0  0
 31 32  1  0  0  0
 33 34  1  0  0  0
 34 35  1  0  0  0
 35 36  2  0  0  0
 35 37  1  0  0  0
 18 19  2  0  0  0
 18 20  1  0  0  0
  9 22  1  0  0  0
 37 38  1  0  0  0
 37 39  1  0  0  0
 20 23  1  0  0  0
M  END
> <minimizedAffinity>
-8.00546

$$$$
1631


 29 32  0  0  0  0  0  0  0  0999 V2000
   15.7835  -58.4289   35.4807 C   0  0  0  0  0  0  0  0  0  0  0  0
   14.4854  -58.6313   34.9029 N   0  0  0  0  0  0  0  0  0  0  0  0
   14.2753  -57.7364   33.8153 C   0  0  0  0  0  0  0  0  0  0  0  0
   13.1755  -57.4436   33.2626 O   0  0  0  0  0  0  0  0  0  0  0  0
   15.5921  -57.1892   33.4266 C   0  0  0  0  0  0  0  0  0  0  0  0
   15.7851  -56.3648   32.5047 O   0  0  0  0  0  0  0  0  0  0  0  0
   16.5428  -57.8134   34.3372 C   0  0  0  0  0  0  0  0  0  0  0  0
   17.8475  -57.7863   34.1669 C   0  0  0  0  0  0  0  0  0  0  0  0
   18.6356  -58.3939   35.1658 O   0  0  0  0  0  0  0  0  0  0  0  0
   17.1694  -53.8807   37.6929 Cl  0  0  0  0  0  0  0  0  0  0  0  0
   16.3995  -55.4512   37.7463 C   0  0  0  0  0  0  0  0  0  0  0  0
   16.3827  -56.2976   36.6631 C   0  0  0  0  0  0  0  0  0  0  0  0
   15.7774  -57.5478   36.6754 C   0  0  0  0  0  0  0  0  0  0  0  0
   15.1645  -57.9352   37.8628 C   0  0  0  0  0  0  0  0  0  0  0  0
   15.1661  -57.1073   38.9626 C   0  0  0  0  0  0  0  0  0  0  0  0
   15.7805  -55.8738   38.9021 C   0  0  0  0  0  0  0  0  0  0  0  0
   13.5343  -59.5781   35.3408 C   0  0  0  0  0  0  0  0  0  0  0  0
   12.4776  -59.0816   36.0371 N   0  0  0  0  0  0  0  0  0  0  0  0
   11.5119  -59.8718   36.5039 C   0  0  0  0  0  0  0  0  0  0  0  0
   11.6055  -61.2230   36.2613 C   0  0  0  0  0  0  0  0  0  0  0  0
   12.6855  -61.7041   35.5518 C   0  0  0  0  0  0  0  0  0  0  0  0
   13.6567  -60.8994   35.0857 N   0  0  0  0  0  0  0  0  0  0  0  0
   12.3959  -58.0445   36.2251 H   0  0  0  0  0  0  0  0  0  0  0  0
   18.5170  -57.1804   33.0242 C   0  0  0  0  0  0  0  0  0  0  0  0
   18.9011  -55.8331   33.0826 C   0  0  0  0  0  0  0  0  0  0  0  0
   19.5616  -55.2414   32.0284 C   0  0  0  0  0  0  0  0  0  0  0  0
   19.8777  -55.9308   30.8765 C   0  0  0  0  0  0  0  0  0  0  0  0
   19.5102  -57.2550   30.7996 C   0  0  0  0  0  0  0  0  0  0  0  0
   18.8407  -57.8525   31.8684 C   0  0  0  0  0  0  0  0  0  0  0  0
 10 11  1  0  0  0
 11 12  2  0  0  0
 11 16  1  0  0  0
 12 13  1  0  0  0
 13 14  2  0  0  0
 13  1  1  0  0  0
 14 15  1  0  0  0
 15 16  2  0  0  0
  1  2  1  0  0  0
  1  7  1  0  0  0
  2  3  1  0  0  0
  2 17  1  0  0  0
  3  4  2  0  0  0
  3  5  1  0  0  0
  5  6  2  0  0  0
  5  7  1  0  0  0
  7  8  2  0  0  0
  8  9  1  0  0  0
  8 24  1  0  0  0
 24 25  2  0  0  0
 24 29  1  0  0  0
 25 26  1  0  0  0
 26 27  2  0  0  0
 27 28  1  0  0  0
 28 29  2  0  0  0
 17 18  2  0  0  0
 17 22  1  0  0  0
 18 19  1  0  0  0
 19 20  2  0  0  0
 20 21  1  0  0  0
 21 22  2  0  0  0
 18 23  1  0  0  0
M  CHG 1   9  -1
M  END
> <minimizedAffinity>
-9.63178

$$$$
1637


 29 32  0  0  0  0  0  0  0  0999 V2000
   19.8831  -56.7215   30.4182 C   0  0  0  0  0  0  0  0  0  0  0  0
   19.4113  -57.7687   31.1041 N   0  0  0  0  0  0  0  0  0  0  0  0
   18.3186  -57.7396   31.8611 C   0  0  0  0  0  0  0  0  0  0  0  0
   17.6302  -56.5185   31.9429 C   0  0  0  0  0  0  0  0  0  0  0  0
   18.1103  -55.4652   31.2488 C   0  0  0  0  0  0  0  0  0  0  0  0
   19.2345  -55.5733   30.4863 N   0  0  0  0  0  0  0  0  0  0  0  0
   17.4248  -54.2615   31.3174 O   0  0  0  0  0  0  0  0  0  0  0  0
   16.5185  -56.4987   32.8971 C   0  0  0  0  0  0  0  0  0  0  0  0
   17.0497  -57.0229   34.1174 N   0  0  0  0  0  0  0  0  0  0  0  0
   17.0248  -58.5323   33.8699 C   0  0  0  0  0  0  0  0  0  0  0  0
   17.7906  -58.8876   32.6446 C   0  0  0  0  0  0  0  0  0  0  0  0
   16.4030  -54.1867   31.3472 H   0  0  0  0  0  0  0  0  0  0  0  0
   21.4119  -56.9102   29.5396 S   0  0  0  0  0  0  0  0  0  0  0  0
   21.9629  -58.2407   29.6708 O   0  0  0  0  0  0  0  0  0  0  0  0
   22.3406  -55.8618   30.0740 O   0  0  0  0  0  0  0  0  0  0  0  0
   21.0352  -56.4687   27.8252 C   0  0  0  0  0  0  0  0  0  0  0  0
   18.5248  -56.8282   34.3611 C   0  0  0  0  0  0  0  0  0  0  0  0
   18.4682  -55.5004   35.1214 C   0  0  0  0  0  0  0  0  0  0  0  0
   17.6866  -55.2327   36.1766 C   0  0  0  0  0  0  0  0  0  0  0  0
   17.6694  -53.9837   36.8545 C   0  0  0  0  0  0  0  0  0  0  0  0
   18.5514  -53.0322   36.3339 C   0  0  0  0  0  0  0  0  0  0  0  0
   18.5788  -51.8127   36.9443 C   0  0  0  0  0  0  0  0  0  0  0  0
   17.7798  -51.4601   38.0544 C   0  0  0  0  0  0  0  0  0  0  0  0
   16.9126  -52.4532   38.5456 C   0  0  0  0  0  0  0  0  0  0  0  0
   16.8972  -53.6680   37.9203 C   0  0  0  0  0  0  0  0  0  0  0  0
   19.3150  -53.2842   35.3272 O   0  0  0  0  0  0  0  0  0  0  0  0
   19.3090  -54.4719   34.7025 C   0  0  0  0  0  0  0  0  0  0  0  0
   20.0717  -54.7048   33.6880 O   0  0  0  0  0  0  0  0  0  0  0  0
   16.6789  -56.4990   36.7912 Cl  0  0  0  0  0  0  0  0  0  0  0  0
 13 14  2  0  0  0
 13 15  2  0  0  0
 13 16  1  0  0  0
 13  1  1  0  0  0
  1  2  2  0  0  0
  1  6  1  0  0  0
  2  3  1  0  0  0
  3  4  2  0  0  0
  3 11  1  0  0  0
  4  5  1  0  0  0
  4  8  1  0  0  0
  5  6  2  0  0  0
  5  7  1  0  0  0
  8  9  1  0  0  0
  9 10  1  0  0  0
  9 17  1  0  0  0
 10 11  1  0  0  0
 17 18  1  0  0  0
 18 19  2  0  0  0
 18 27  1  0  0  0
 19 20  1  0  0  0
 19 29  1  0  0  0
 20 21  2  0  0  0
 20 25  1  0  0  0
 21 22  1  0  0  0
 21 26  1  0  0  0
 22 23  2  0  0  0
 23 24  1  0  0  0
 24 25  2  0  0  0
 26 27  1  0  0  0
 27 28  2  0  0  0
  7 12  1  0  0  0
M  END
> <minimizedAffinity>
-9.28022

$$$$
1638


 38 41  0  0  0  0  0  0  0  0999 V2000
   15.1140  -58.8981   33.8992 C   0  0  0  0  0  0  0  0  0  0  0  0
   13.7544  -58.6718   34.0681 C   0  0  0  0  0  0  0  0  0  0  0  0
   12.9286  -59.7139   34.3557 N   0  0  0  0  0  0  0  0  0  0  0  0
   13.3687  -60.9725   34.4868 C   0  0  0  0  0  0  0  0  0  0  0  0
   14.6840  -61.1984   34.3236 N   0  0  0  0  0  0  0  0  0  0  0  0
   15.5393  -60.2017   34.0392 C   0  0  0  0  0  0  0  0  0  0  0  0
   13.2975  -57.3486   33.9303 N   0  0  0  0  0  0  0  0  0  0  0  0
   12.5801  -57.0553   33.2357 H   0  0  0  0  0  0  0  0  0  0  0  0
   13.6896  -56.6107   34.5509 H   0  0  0  0  0  0  0  0  0  0  0  0
   12.5023  -62.0628   34.7926 N   0  0  0  0  0  0  0  0  0  0  0  0
   13.0043  -63.3617   35.1695 C   0  0  0  0  0  0  0  0  0  0  0  0
   12.4651  -63.8798   36.4739 C   0  0  0  0  0  0  0  0  0  0  0  0
   11.1168  -63.2701   36.8208 C   0  0  0  0  0  0  0  0  0  0  0  0
   10.4488  -63.0722   35.4493 C   0  0  0  0  0  0  0  0  0  0  0  0
   11.0594  -61.9138   34.7338 C   0  0  0  0  0  0  0  0  0  0  0  0
   11.1710  -62.0523   37.4765 N   0  0  0  0  0  0  0  0  0  0  0  0
   12.1725  -61.7568   38.4255 C   0  0  0  0  0  0  0  0  0  0  0  0
   12.4533  -60.2472   38.3362 C   0  0  0  0  0  0  0  0  0  0  0  0
   11.2329  -59.5828   37.7591 C   0  0  0  0  0  0  0  0  0  0  0  0
    9.9497  -60.1751   38.2838 C   0  0  0  0  0  0  0  0  0  0  0  0
    9.9141  -61.6786   38.0650 C   0  0  0  0  0  0  0  0  0  0  0  0
   10.3161  -64.3074   37.5099 C   0  0  0  0  0  0  0  0  0  0  0  0
    9.1623  -64.6378   37.0728 O   0  0  0  0  0  0  0  0  0  0  0  0
   10.7509  -64.9821   38.6560 N   0  0  0  0  0  0  0  0  0  0  0  0
   10.3212  -64.7167   39.5841 H   0  0  0  0  0  0  0  0  0  0  0  0
   11.4617  -65.7392   38.7008 H   0  0  0  0  0  0  0  0  0  0  0  0
   16.2170  -57.5885   33.5304 S   0  0  0  0  0  0  0  0  0  0  0  0
   17.5158  -58.0935   32.9919 O   0  0  0  0  0  0  0  0  0  0  0  0
   15.5212  -56.6731   32.5553 O   0  0  0  0  0  0  0  0  0  0  0  0
   16.4856  -56.6757   35.0229 C   0  0  0  0  0  0  0  0  0  0  0  0
   17.2823  -55.5490   35.0094 C   0  0  0  0  0  0  0  0  0  0  0  0
   17.4635  -54.8690   36.1953 C   0  0  0  0  0  0  0  0  0  0  0  0
   16.8683  -55.2935   37.3787 C   0  0  0  0  0  0  0  0  0  0  0  0
   16.0794  -56.4231   37.3512 C   0  0  0  0  0  0  0  0  0  0  0  0
   15.8789  -57.1254   36.1802 C   0  0  0  0  0  0  0  0  0  0  0  0
   15.3146  -56.9776   38.8468 Cl  0  0  0  0  0  0  0  0  0  0  0  0
   17.8513  -55.1626   33.8278 O   0  0  0  0  0  0  0  0  0  0  0  0
   19.2022  -54.8443   33.6428 C   0  0  0  0  0  0  0  0  0  0  0  0
 27 28  2  0  0  0
 27 29  2  0  0  0
 27  1  1  0  0  0
 27 30  1  0  0  0
  1  2  2  0  0  0
  1  6  1  0  0  0
  2  3  1  0  0  0
  2  7  1  0  0  0
  3  4  2  0  0  0
  4  5  1  0  0  0
  4 10  1  0  0  0
  5  6  2  0  0  0
 10 11  1  0  0  0
 10 15  1  0  0  0
 11 12  1  0  0  0
 12 13  1  0  0  0
 13 14  1  0  0  0
 13 16  1  0  0  0
 13 22  1  0  0  0
 14 15  1  0  0  0
 16 17  1  0  0  0
 16 21  1  0  0  0
 17 18  1  0  0  0
 18 19  1  0  0  0
 19 20  1  0  0  0
 20 21  1  0  0  0
 22 23  2  0  0  0
 22 24  1  0  0  0
 30 31  2  0  0  0
 30 35  1  0  0  0
 31 32  1  0  0  0
 31 37  1  0  0  0
 32 33  2  0  0  0
 33 34  1  0  0  0
 34 35  2  0  0  0
 34 36  1  0  0  0
 37 38  1  0  0  0
 24 25  1  0  0  0
 24 26  1  0  0  0
  7  8  1  0  0  0
  7  9  1  0  0  0
M  END
> <minimizedAffinity>
-8.06117

$$$$
1651


 23 26  0  0  0  0  0  0  0  0999 V2000
   16.6922  -55.0455   38.2588 Cl  0  0  0  0  0  0  0  0  0  0  0  0
   16.9622  -55.3735   36.5447 C   0  0  0  0  0  0  0  0  0  0  0  0
   16.5938  -56.5658   35.9712 C   0  0  0  0  0  0  0  0  0  0  0  0
   16.8192  -56.8026   34.6063 C   0  0  0  0  0  0  0  0  0  0  0  0
   17.4073  -55.8632   33.8079 C   0  0  0  0  0  0  0  0  0  0  0  0
   17.7873  -54.6391   34.3879 C   0  0  0  0  0  0  0  0  0  0  0  0
   17.5526  -54.4405   35.7262 C   0  0  0  0  0  0  0  0  0  0  0  0
   17.5390  -56.3058   32.4668 N   0  0  0  0  0  0  0  0  0  0  0  0
   16.9963  -57.6138   32.4218 C   0  0  0  0  0  0  0  0  0  0  0  0
   16.9475  -58.3201   31.3724 O   0  0  0  0  0  0  0  0  0  0  0  0
   16.5152  -57.9889   33.7697 C   0  0  0  0  0  0  0  0  0  0  0  0
   17.3235  -59.1942   34.2014 C   0  0  0  0  0  0  0  0  0  0  0  0
   16.8278  -60.3240   33.3451 C   0  0  0  0  0  0  0  0  0  0  0  0
   17.5785  -61.0366   32.6540 O   0  0  0  0  0  0  0  0  0  0  0  0
   15.4134  -60.5517   33.3575 N   0  0  0  0  0  0  0  0  0  0  0  0
   14.5318  -59.4614   33.5917 C   0  0  0  0  0  0  0  0  0  0  0  0
   13.1767  -59.3660   33.6692 N   0  0  0  0  0  0  0  0  0  0  0  0
   12.8677  -58.1159   33.9145 N   0  0  0  0  0  0  0  0  0  0  0  0
   13.9700  -57.3556   34.0066 C   0  0  0  0  0  0  0  0  0  0  0  0
   15.0587  -58.2119   33.7992 C   0  0  0  0  0  0  0  0  0  0  0  0
   18.1260  -55.5435   31.3602 C   0  0  0  0  0  0  0  0  0  0  0  0
   15.0197  -61.5049   33.1977 H   0  0  0  0  0  0  0  0  0  0  0  0
   12.5404  -60.1874   33.5454 H   0  0  0  0  0  0  0  0  0  0  0  0
  1  2  1  0  0  0
  2  3  2  0  0  0
  2  7  1  0  0  0
  3  4  1  0  0  0
  4  5  2  0  0  0
  4 11  1  0  0  0
  5  6  1  0  0  0
  5  8  1  0  0  0
  6  7  2  0  0  0
  8  9  1  0  0  0
  8 21  1  0  0  0
  9 10  2  0  0  0
  9 11  1  0  0  0
 11 12  1  0  0  0
 11 20  1  0  0  0
 12 13  1  0  0  0
 13 14  2  0  0  0
 13 15  1  0  0  0
 15 16  1  0  0  0
 16 17  1  0  0  0
 16 20  2  0  0  0
 17 18  1  0  0  0
 18 19  2  0  0  0
 19 20  1  0  0  0
 15 22  1  0  0  0
 17 23  1  0  0  0
M  END
> <minimizedAffinity>
-8.35906

$$$$
1657


 33 36  0  0  0  0  0  0  0  0999 V2000
   20.0226  -51.7273   36.6092 Cl  0  0  0  0  0  0  0  0  0  0  0  0
   19.1813  -52.9894   35.7004 C   0  0  0  0  0  0  0  0  0  0  0  0
   19.6723  -53.4123   34.4841 C   0  0  0  0  0  0  0  0  0  0  0  0
   19.0252  -54.3828   33.7905 C   0  0  0  0  0  0  0  0  0  0  0  0
   17.8551  -54.9602   34.3017 C   0  0  0  0  0  0  0  0  0  0  0  0
   17.3835  -54.5225   35.5161 C   0  0  0  0  0  0  0  0  0  0  0  0
   18.0338  -53.5312   36.2395 C   0  0  0  0  0  0  0  0  0  0  0  0
   17.1711  -55.9795   33.5802 N   0  0  0  0  0  0  0  0  0  0  0  0
   17.9244  -56.8138   32.6561 C   0  0  0  0  0  0  0  0  0  0  0  0
   18.7162  -55.9151   31.8492 N   0  0  0  0  0  0  0  0  0  0  0  0
   19.4641  -54.8982   32.4958 C   0  0  0  0  0  0  0  0  0  0  0  0
   20.5117  -54.4001   32.0083 O   0  0  0  0  0  0  0  0  0  0  0  0
   16.9588  -57.5618   31.7994 C   0  0  0  0  0  0  0  0  0  0  0  0
   16.4952  -58.8632   32.4126 C   0  0  0  0  0  0  0  0  0  0  0  0
   16.0925  -58.6996   33.7939 N   0  0  0  0  0  0  0  0  0  0  0  0
   16.9971  -58.2471   34.8317 C   0  0  0  0  0  0  0  0  0  0  0  0
   16.4637  -58.0214   35.9421 O   0  0  0  0  0  0  0  0  0  0  0  0
   18.4492  -58.0092   34.7852 C   0  0  0  0  0  0  0  0  0  0  0  0
   18.9094  -57.6995   33.3922 C   0  0  0  0  0  0  0  0  0  0  0  0
   16.1491  -56.0775   33.7535 H   0  0  0  0  0  0  0  0  0  0  0  0
   18.7676  -55.9749   30.8133 H   0  0  0  0  0  0  0  0  0  0  0  0
   14.7710  -58.9546   34.2005 C   0  0  0  0  0  0  0  0  0  0  0  0
   14.2757  -60.2940   34.4230 C   0  0  0  0  0  0  0  0  0  0  0  0
   15.2454  -61.1960   34.2657 O   0  0  0  0  0  0  0  0  0  0  0  0
   13.0214  -60.7516   34.7584 N   0  0  0  0  0  0  0  0  0  0  0  0
   12.8200  -62.2151   34.9181 C   0  0  0  0  0  0  0  0  0  0  0  0
   12.0024  -62.3387   36.2136 C   0  0  0  0  0  0  0  0  0  0  0  0
   12.1491  -61.1834   37.0340 N   0  0  0  0  0  0  0  0  0  0  0  0
   11.5669  -59.9775   36.5254 C   0  0  0  0  0  0  0  0  0  0  0  0
   11.8643  -59.9829   34.9991 C   0  0  0  0  0  0  0  0  0  0  0  0
   11.9834  -61.3823   38.4336 C   0  0  0  0  0  0  0  0  0  0  0  0
   12.1074  -60.1120   39.2497 C   0  0  0  0  0  0  0  0  0  0  0  0
   10.6989  -62.0772   38.7953 C   0  0  0  0  0  0  0  0  0  0  0  0
  1  2  1  0  0  0
  2  3  2  0  0  0
  2  7  1  0  0  0
  3  4  1  0  0  0
  4  5  2  0  0  0
  4 11  1  0  0  0
  5  6  1  0  0  0
  5  8  1  0  0  0
  6  7  2  0  0  0
  8  9  1  0  0  0
  9 10  1  0  0  0
  9 13  1  0  0  0
  9 19  1  0  0  0
 10 11  1  0  0  0
 11 12  2  0  0  0
 13 14  1  0  0  0
 14 15  1  0  0  0
 15 16  1  0  0  0
 15 22  1  0  0  0
 16 17  2  0  0  0
 16 18  1  0  0  0
 18 19  1  0  0  0
 22 23  1  0  0  0
 23 24  2  0  0  0
 23 25  1  0  0  0
 25 26  1  0  0  0
 25 30  1  0  0  0
 26 27  1  0  0  0
 27 28  1  0  0  0
 28 29  1  0  0  0
 28 31  1  0  0  0
 29 30  1  0  0  0
 31 32  1  0  0  0
 31 33  1  0  0  0
  8 20  1  0  0  0
 10 21  1  0  0  0
M  END
> <minimizedAffinity>
-9.27922

$$$$
1660


 31 34  0  0  0  0  0  0  0  0999 V2000
   16.3804  -54.2647   38.2728 N   0  0  0  0  0  0  0  0  0  0  0  0
   15.5740  -53.9608   39.2535 N   0  0  0  0  0  0  0  0  0  0  0  0
   14.7501  -54.9645   39.5729 C   0  0  0  0  0  0  0  0  0  0  0  0
   15.0526  -56.0158   38.7181 C   0  0  0  0  0  0  0  0  0  0  0  0
   16.0828  -55.5351   37.9161 C   0  0  0  0  0  0  0  0  0  0  0  0
   16.5535  -56.3757   36.9910 N   0  0  0  0  0  0  0  0  0  0  0  0
   16.0552  -57.6232   36.8461 C   0  0  0  0  0  0  0  0  0  0  0  0
   15.0624  -58.1146   37.6042 N   0  0  0  0  0  0  0  0  0  0  0  0
   14.5567  -57.2884   38.5563 C   0  0  0  0  0  0  0  0  0  0  0  0
   13.6249  -57.7043   39.2894 O   0  0  0  0  0  0  0  0  0  0  0  0
   20.4971  -50.5198   36.0967 Cl  0  0  0  0  0  0  0  0  0  0  0  0
   19.3265  -51.6528   36.6917 C   0  0  0  0  0  0  0  0  0  0  0  0
   19.3925  -53.0110   36.4790 C   0  0  0  0  0  0  0  0  0  0  0  0
   18.4515  -53.8974   36.9653 C   0  0  0  0  0  0  0  0  0  0  0  0
   17.3859  -53.4448   37.6990 C   0  0  0  0  0  0  0  0  0  0  0  0
   17.3304  -52.0766   37.9054 C   0  0  0  0  0  0  0  0  0  0  0  0
   18.2584  -51.1764   37.4292 C   0  0  0  0  0  0  0  0  0  0  0  0
   14.5280  -59.4723   37.4607 C   0  0  0  0  0  0  0  0  0  0  0  0
   13.1296  -59.4706   36.9961 C   0  0  0  0  0  0  0  0  0  0  0  0
   12.9056  -58.7222   35.9802 O   0  0  0  0  0  0  0  0  0  0  0  0
   12.0632  -60.1841   37.5380 N   0  0  0  0  0  0  0  0  0  0  0  0
   10.7003  -60.0344   37.0045 C   0  0  0  0  0  0  0  0  0  0  0  0
    9.9128  -59.4015   38.1595 C   0  0  0  0  0  0  0  0  0  0  0  0
   10.0902  -60.1673   39.3651 N   0  0  0  0  0  0  0  0  0  0  0  0
   10.8790  -61.3819   39.2761 C   0  0  0  0  0  0  0  0  0  0  0  0
   12.2129  -61.1293   38.6220 C   0  0  0  0  0  0  0  0  0  0  0  0
    9.5406  -59.7427   40.5945 C   0  0  0  0  0  0  0  0  0  0  0  0
    8.9026  -58.6252   40.6038 O   0  0  0  0  0  0  0  0  0  0  0  0
    9.6176  -60.4118   41.7952 O   0  0  0  0  0  0  0  0  0  0  0  0
   10.3696  -59.8673   42.8967 C   0  0  0  0  0  0  0  0  0  0  0  0
   11.7889  -60.3813   42.7349 C   0  0  0  0  0  0  0  0  0  0  0  0
 11 12  1  0  0  0
 12 13  2  0  0  0
 12 17  1  0  0  0
 13 14  1  0  0  0
 14 15  2  0  0  0
 15 16  1  0  0  0
 15  1  1  0  0  0
 16 17  2  0  0  0
  1  2  1  0  0  0
  1  5  1  0  0  0
  2  3  2  0  0  0
  3  4  1  0  0  0
  4  5  2  0  0  0
  4  9  1  0  0  0
  5  6  1  0  0  0
  6  7  2  0  0  0
  7  8  1  0  0  0
  8  9  1  0  0  0
  8 18  1  0  0  0
  9 10  2  0  0  0
 18 19  1  0  0  0
 19 20  2  0  0  0
 19 21  1  0  0  0
 21 22  1  0  0  0
 21 26  1  0  0  0
 22 23  1  0  0  0
 23 24  1  0  0  0
 24 25  1  0  0  0
 24 27  1  0  0  0
 25 26  1  0  0  0
 27 28  2  0  0  0
 27 29  1  0  0  0
 29 30  1  0  0  0
 30 31  1  0  0  0
M  END
> <minimizedAffinity>
-9.15955

$$$$
1666


 30 34  0  0  0  0  0  0  0  0999 V2000
   16.7898  -57.3368   32.0166 N   0  0  0  0  0  0  0  0  0  0  0  0
   16.4802  -55.9983   32.4453 C   0  0  0  0  0  0  0  0  0  0  0  0
   17.6241  -55.0477   32.1761 C   0  0  0  0  0  0  0  0  0  0  0  0
   18.8707  -55.5662   32.7934 N   0  0  0  0  0  0  0  0  0  0  0  0
   19.2033  -56.8150   32.1230 C   0  0  0  0  0  0  0  0  0  0  0  0
   18.0442  -57.3944   31.3309 C   0  0  0  0  0  0  0  0  0  0  0  0
   16.4248  -58.5768   33.0885 S   0  0  0  0  0  0  0  0  0  0  0  0
   15.4931  -59.5505   32.3782 O   0  0  0  0  0  0  0  0  0  0  0  0
   17.7014  -59.3896   33.3079 O   0  0  0  0  0  0  0  0  0  0  0  0
   15.8295  -58.1347   34.6375 C   0  0  0  0  0  0  0  0  0  0  0  0
   14.4802  -58.0103   34.8637 C   0  0  0  0  0  0  0  0  0  0  0  0
   14.0370  -57.6625   36.1272 C   0  0  0  0  0  0  0  0  0  0  0  0
   14.9025  -57.4319   37.1810 C   0  0  0  0  0  0  0  0  0  0  0  0
   16.2560  -57.5583   36.9491 C   0  0  0  0  0  0  0  0  0  0  0  0
   16.7007  -57.9080   35.6789 C   0  0  0  0  0  0  0  0  0  0  0  0
   14.2934  -56.9505   38.9223 Br  0  0  0  0  0  0  0  0  0  0  0  0
   19.8595  -54.5623   32.4639 C   0  0  0  0  0  0  0  0  0  0  0  0
   20.5956  -53.9329   33.5688 C   0  0  0  0  0  0  0  0  0  0  0  0
   19.9615  -53.7526   34.8306 N   0  0  0  0  0  0  0  0  0  0  0  0
   19.3920  -54.6987   35.7281 C   0  0  0  0  0  0  0  0  0  0  0  0
   18.9443  -55.8098   35.4092 O   0  0  0  0  0  0  0  0  0  0  0  0
   19.4232  -54.1356   37.0993 C   0  0  0  0  0  0  0  0  0  0  0  0
   19.3158  -52.6263   36.7825 C   0  0  0  0  0  0  0  0  0  0  0  0
   17.8880  -52.2793   36.9769 C   0  0  0  0  0  0  0  0  0  0  0  0
   17.1948  -53.6386   36.7834 C   0  0  0  0  0  0  0  0  0  0  0  0
   18.1200  -54.3610   37.7784 C   0  0  0  0  0  0  0  0  0  0  0  0
   18.0504  -53.3828   38.9151 C   0  0  0  0  0  0  0  0  0  0  0  0
   17.6743  -52.1827   38.4731 C   0  0  0  0  0  0  0  0  0  0  0  0
   19.8499  -52.4473   35.4400 C   0  0  0  0  0  0  0  0  0  0  0  0
   20.1497  -51.3377   34.9324 O   0  0  0  0  0  0  0  0  0  0  0  0
  7  8  2  0  0  0
  7  9  2  0  0  0
  7  1  1  0  0  0
  7 10  1  0  0  0
  1  2  1  0  0  0
  1  6  1  0  0  0
  2  3  1  0  0  0
  3  4  1  0  0  0
  4  5  1  0  0  0
  4 17  1  0  0  0
  5  6  1  0  0  0
 17 18  1  0  0  0
 18 19  1  0  0  0
 19 20  1  0  0  0
 19 29  1  0  0  0
 20 21  2  0  0  0
 20 22  1  0  0  0
 22 23  1  0  0  0
 22 26  1  0  0  0
 23 24  1  0  0  0
 23 29  1  0  0  0
 24 25  1  0  0  0
 24 28  1  0  0  0
 25 26  1  0  0  0
 26 27  1  0  0  0
 27 28  2  0  0  0
 29 30  2  0  0  0
 10 11  2  0  0  0
 10 15  1  0  0  0
 11 12  1  0  0  0
 12 13  2  0  0  0
 13 14  1  0  0  0
 13 16  1  0  0  0
 14 15  2  0  0  0
M  END
> <minimizedAffinity>
-10.44950

$$$$
1673


 35 38  0  0  0  0  0  0  0  0999 V2000
   17.9508  -57.3860   34.1773 C   0  0  0  0  0  0  0  0  0  0  0  0
   18.8845  -56.4411   33.4697 C   0  0  0  0  0  0  0  0  0  0  0  0
   18.6276  -56.5574   32.1038 N   0  0  0  0  0  0  0  0  0  0  0  0
   18.4219  -58.0188   31.9577 C   0  0  0  0  0  0  0  0  0  0  0  0
   18.7165  -58.7316   30.9608 O   0  0  0  0  0  0  0  0  0  0  0  0
   17.8070  -58.4807   33.1917 C   0  0  0  0  0  0  0  0  0  0  0  0
   17.2615  -59.6074   33.3648 O   0  0  0  0  0  0  0  0  0  0  0  0
   19.2191  -55.2342   34.1828 C   0  0  0  0  0  0  0  0  0  0  0  0
   19.1336  -55.0581   35.5279 C   0  0  0  0  0  0  0  0  0  0  0  0
   19.4992  -53.8597   36.1208 C   0  0  0  0  0  0  0  0  0  0  0  0
   19.9640  -52.8109   35.3128 C   0  0  0  0  0  0  0  0  0  0  0  0
   20.0491  -52.9896   33.9617 C   0  0  0  0  0  0  0  0  0  0  0  0
   19.6915  -54.1664   33.3815 C   0  0  0  0  0  0  0  0  0  0  0  0
   20.3401  -51.5969   35.8523 O   0  0  0  0  0  0  0  0  0  0  0  0
   19.4277  -53.6541   37.4611 O   0  0  0  0  0  0  0  0  0  0  0  0
   18.2398  -53.5032   38.1684 C   0  0  0  0  0  0  0  0  0  0  0  0
   17.6553  -52.1042   38.0892 C   0  0  0  0  0  0  0  0  0  0  0  0
   16.6502  -56.8175   34.5316 C   0  0  0  0  0  0  0  0  0  0  0  0
   16.2146  -55.7968   33.8943 O   0  0  0  0  0  0  0  0  0  0  0  0
   12.8067  -59.0414   38.8384 Br  0  0  0  0  0  0  0  0  0  0  0  0
   13.9982  -58.3402   37.4950 C   0  0  0  0  0  0  0  0  0  0  0  0
   15.1897  -57.7543   37.8360 C   0  0  0  0  0  0  0  0  0  0  0  0
   16.0846  -57.2327   36.9076 C   0  0  0  0  0  0  0  0  0  0  0  0
   15.7586  -57.3088   35.5725 C   0  0  0  0  0  0  0  0  0  0  0  0
   14.5511  -57.9036   35.2401 C   0  0  0  0  0  0  0  0  0  0  0  0
   13.6667  -58.4184   36.1587 C   0  0  0  0  0  0  0  0  0  0  0  0
   18.6287  -55.8013   30.8906 C   0  0  0  0  0  0  0  0  0  0  0  0
   19.9250  -55.6406   30.1913 C   0  0  0  0  0  0  0  0  0  0  0  0
   20.0184  -55.5243   28.7984 N   0  0  0  0  0  0  0  0  0  0  0  0
   21.3759  -55.1998   28.3411 C   0  0  0  0  0  0  0  0  0  0  0  0
   22.3640  -56.2715   28.6585 C   0  0  0  0  0  0  0  0  0  0  0  0
   21.7082  -57.3824   29.1378 O   0  0  0  0  0  0  0  0  0  0  0  0
   20.7492  -57.7582   28.1826 C   0  0  0  0  0  0  0  0  0  0  0  0
   19.5904  -56.7840   28.1640 C   0  0  0  0  0  0  0  0  0  0  0  0
   19.4088  -54.8032   28.4208 H   0  0  0  0  0  0  0  0  0  0  0  0
 20 21  1  0  0  0
 21 22  2  0  0  0
 21 26  1  0  0  0
 22 23  1  0  0  0
 23 24  2  0  0  0
 24 25  1  0  0  0
 24 18  1  0  0  0
 25 26  2  0  0  0
 18 19  2  0  0  0
 18  1  1  0  0  0
  1  2  1  0  0  0
  1  6  1  0  0  0
  2  3  1  0  0  0
  2  8  1  0  0  0
  3  4  1  0  0  0
  3 27  1  0  0  0
  4  5  2  0  0  0
  4  6  1  0  0  0
  6  7  2  0  0  0
 27 28  1  0  0  0
 28 29  1  0  0  0
 29 30  1  0  0  0
 29 34  1  0  0  0
 30 31  1  0  0  0
 31 32  1  0  0  0
 32 33  1  0  0  0
 33 34  1  0  0  0
  8  9  2  0  0  0
  8 13  1  0  0  0
  9 10  1  0  0  0
 10 11  2  0  0  0
 10 15  1  0  0  0
 11 12  1  0  0  0
 11 14  1  0  0  0
 12 13  2  0  0  0
 15 16  1  0  0  0
 16 17  1  0  0  0
 29 35  1  0  0  0
M  CHG 1  14  -1
M  CHG 1  29   1
M  END
> <minimizedAffinity>
-9.26807

$$$$
1676


 25 28  0  0  0  0  0  0  0  0999 V2000
   17.7851  -55.2818   34.9148 C   0  0  0  0  0  0  0  0  0  0  0  0
   18.7496  -56.0343   34.6788 O   0  0  0  0  0  0  0  0  0  0  0  0
   16.5178  -55.6021   34.3657 N   0  0  0  0  0  0  0  0  0  0  0  0
   15.7096  -54.9867   34.5531 H   0  0  0  0  0  0  0  0  0  0  0  0
   16.4352  -52.4498   39.2158 Br  0  0  0  0  0  0  0  0  0  0  0  0
   17.4755  -52.7687   37.6439 C   0  0  0  0  0  0  0  0  0  0  0  0
   18.4608  -51.8829   37.2640 C   0  0  0  0  0  0  0  0  0  0  0  0
   19.2207  -52.0940   36.1369 C   0  0  0  0  0  0  0  0  0  0  0  0
   20.2283  -51.4156   35.5369 N   0  0  0  0  0  0  0  0  0  0  0  0
   20.5824  -52.0995   34.4642 N   0  0  0  0  0  0  0  0  0  0  0  0
   19.8675  -53.1815   34.3281 N   0  0  0  0  0  0  0  0  0  0  0  0
   18.9938  -53.2106   35.3703 C   0  0  0  0  0  0  0  0  0  0  0  0
   18.0051  -54.1034   35.7460 C   0  0  0  0  0  0  0  0  0  0  0  0
   17.2430  -53.8852   36.8842 C   0  0  0  0  0  0  0  0  0  0  0  0
   19.8799  -53.9345   33.6099 H   0  0  0  0  0  0  0  0  0  0  0  0
   16.3300  -56.7741   33.5464 C   0  0  0  0  0  0  0  0  0  0  0  0
   15.0458  -57.4478   33.9470 C   0  0  0  0  0  0  0  0  0  0  0  0
   14.8505  -58.2555   35.0015 N   0  0  0  0  0  0  0  0  0  0  0  0
   13.5685  -58.6770   35.0486 C   0  0  0  0  0  0  0  0  0  0  0  0
   12.9578  -58.1156   33.9979 N   0  0  0  0  0  0  0  0  0  0  0  0
   13.8509  -57.3709   33.3285 N   0  0  0  0  0  0  0  0  0  0  0  0
   13.2122  -59.5836   36.1744 C   0  0  0  0  0  0  0  0  0  0  0  0
   13.6541  -58.8288   37.4365 C   0  0  0  0  0  0  0  0  0  0  0  0
   15.0877  -58.4131   37.3842 C   0  0  0  0  0  0  0  0  0  0  0  0
   15.7237  -58.7354   36.0493 C   0  0  0  0  0  0  0  0  0  0  0  0
  5  6  1  0  0  0
  6  7  2  0  0  0
  6 14  1  0  0  0
  7  8  1  0  0  0
  8  9  1  0  0  0
  8 12  2  0  0  0
  9 10  2  0  0  0
 10 11  1  0  0  0
 11 12  1  0  0  0
 12 13  1  0  0  0
 13 14  2  0  0  0
 13  1  1  0  0  0
  1  2  2  0  0  0
  1  3  1  0  0  0
  3 16  1  0  0  0
 16 17  1  0  0  0
 17 18  1  0  0  0
 17 21  2  0  0  0
 18 19  1  0  0  0
 18 25  1  0  0  0
 19 20  2  0  0  0
 19 22  1  0  0  0
 20 21  1  0  0  0
 22 23  1  0  0  0
 23 24  1  0  0  0
 24 25  1  0  0  0
 11 15  1  0  0  0
  3  4  1  0  0  0
M  END
> <minimizedAffinity>
-9.71009

$$$$
1687


 27 30  0  0  0  0  0  0  0  0999 V2000
   13.9917  -57.2693   37.8701 N   0  0  0  0  0  0  0  0  0  0  0  0
   13.3876  -58.3189   38.4715 C   0  0  0  0  0  0  0  0  0  0  0  0
   12.9784  -59.4306   37.7687 C   0  0  0  0  0  0  0  0  0  0  0  0
   13.1980  -59.4916   36.3289 C   0  0  0  0  0  0  0  0  0  0  0  0
   12.7054  -60.6707   35.9236 N   0  0  0  0  0  0  0  0  0  0  0  0
   12.2022  -61.3490   36.9668 N   0  0  0  0  0  0  0  0  0  0  0  0
   12.3576  -60.6202   38.0830 C   0  0  0  0  0  0  0  0  0  0  0  0
   11.9849  -60.9893   39.2198 O   0  0  0  0  0  0  0  0  0  0  0  0
   13.8187  -58.3995   35.7458 C   0  0  0  0  0  0  0  0  0  0  0  0
   14.1816  -57.3513   36.5454 C   0  0  0  0  0  0  0  0  0  0  0  0
   11.7665  -62.3001   36.8619 H   0  0  0  0  0  0  0  0  0  0  0  0
   14.0554  -58.4245   34.3067 C   0  0  0  0  0  0  0  0  0  0  0  0
   13.1218  -58.1026   33.5287 O   0  0  0  0  0  0  0  0  0  0  0  0
   15.2664  -58.7899   33.7818 O   0  0  0  0  0  0  0  0  0  0  0  0
   16.1617  -57.8322   33.2401 C   0  0  0  0  0  0  0  0  0  0  0  0
   14.4124  -56.1075   38.6453 C   0  0  0  0  0  0  0  0  0  0  0  0
   15.8798  -55.8674   38.3652 C   0  0  0  0  0  0  0  0  0  0  0  0
   20.2041  -50.8466   36.0606 Cl  0  0  0  0  0  0  0  0  0  0  0  0
   19.0264  -51.9548   36.7634 C   0  0  0  0  0  0  0  0  0  0  0  0
   18.0944  -51.5407   37.6916 C   0  0  0  0  0  0  0  0  0  0  0  0
   17.1959  -52.4525   38.2085 C   0  0  0  0  0  0  0  0  0  0  0  0
   16.1854  -52.3536   39.1146 N   0  0  0  0  0  0  0  0  0  0  0  0
   15.6123  -53.5608   39.2633 C   0  0  0  0  0  0  0  0  0  0  0  0
   16.2244  -54.4656   38.4704 N   0  0  0  0  0  0  0  0  0  0  0  0
   17.1889  -53.7804   37.8309 C   0  0  0  0  0  0  0  0  0  0  0  0
   18.1141  -54.2030   36.9051 C   0  0  0  0  0  0  0  0  0  0  0  0
   19.0093  -53.2858   36.3932 C   0  0  0  0  0  0  0  0  0  0  0  0
 18 19  1  0  0  0
 19 20  2  0  0  0
 19 27  1  0  0  0
 20 21  1  0  0  0
 21 22  1  0  0  0
 21 25  2  0  0  0
 22 23  2  0  0  0
 23 24  1  0  0  0
 24 25  1  0  0  0
 24 17  1  0  0  0
 25 26  1  0  0  0
 26 27  2  0  0  0
 17 16  1  0  0  0
 16  1  1  0  0  0
  1  2  1  0  0  0
  1 10  1  0  0  0
  2  3  2  0  0  0
  3  4  1  0  0  0
  3  7  1  0  0  0
  4  5  2  0  0  0
  4  9  1  0  0  0
  5  6  1  0  0  0
  6  7  1  0  0  0
  7  8  2  0  0  0
  9 10  2  0  0  0
  9 12  1  0  0  0
 12 13  2  0  0  0
 12 14  1  0  0  0
 14 15  1  0  0  0
  6 11  1  0  0  0
M  END
> <minimizedAffinity>
-9.22983

$$$$
1689


 32 35  0  0  0  0  0  0  0  0999 V2000
   16.7428  -58.2314   33.0234 C   0  0  0  0  0  0  0  0  0  0  0  0
   16.5033  -57.8200   31.8617 O   0  0  0  0  0  0  0  0  0  0  0  0
   15.6833  -58.7892   33.7695 N   0  0  0  0  0  0  0  0  0  0  0  0
   15.6548  -59.3281   35.1136 C   0  0  0  0  0  0  0  0  0  0  0  0
   14.3779  -58.8510   35.6449 C   0  0  0  0  0  0  0  0  0  0  0  0
   13.5795  -58.2877   34.4672 C   0  0  0  0  0  0  0  0  0  0  0  0
   14.3343  -58.9406   33.2900 C   0  0  0  0  0  0  0  0  0  0  0  0
   12.2616  -58.6705   34.4764 O   0  0  0  0  0  0  0  0  0  0  0  0
   12.1814  -59.5157   33.9671 H   0  0  0  0  0  0  0  0  0  0  0  0
   14.3146  -57.9976   36.7668 N   0  0  0  0  0  0  0  0  0  0  0  0
   15.3008  -57.0708   36.9066 C   0  0  0  0  0  0  0  0  0  0  0  0
   15.3267  -56.1906   37.9649 C   0  0  0  0  0  0  0  0  0  0  0  0
   14.3390  -56.2273   38.9210 C   0  0  0  0  0  0  0  0  0  0  0  0
   14.3386  -55.4286   39.9055 O   0  0  0  0  0  0  0  0  0  0  0  0
   13.3662  -57.1411   38.7830 N   0  0  0  0  0  0  0  0  0  0  0  0
   13.3937  -57.9685   37.7354 C   0  0  0  0  0  0  0  0  0  0  0  0
   12.4632  -58.7960   37.6561 O   0  0  0  0  0  0  0  0  0  0  0  0
   16.4202  -55.1738   38.1045 C   0  0  0  0  0  0  0  0  0  0  0  0
   12.5890  -57.1926   39.5119 H   0  0  0  0  0  0  0  0  0  0  0  0
   18.1210  -58.1051   33.5411 C   0  0  0  0  0  0  0  0  0  0  0  0
   18.8388  -56.9852   32.8512 C   0  0  0  0  0  0  0  0  0  0  0  0
   20.4528  -50.2261   36.0875 Cl  0  0  0  0  0  0  0  0  0  0  0  0
   19.9714  -51.8935   35.8857 C   0  0  0  0  0  0  0  0  0  0  0  0
   19.9653  -52.4666   34.6210 C   0  0  0  0  0  0  0  0  0  0  0  0
   19.5887  -53.7873   34.4439 C   0  0  0  0  0  0  0  0  0  0  0  0
   19.4798  -54.6044   33.3849 N   0  0  0  0  0  0  0  0  0  0  0  0
   19.0544  -55.8425   33.7589 C   0  0  0  0  0  0  0  0  0  0  0  0
   18.9027  -55.7563   35.1073 N   0  0  0  0  0  0  0  0  0  0  0  0
   19.2182  -54.5289   35.5396 C   0  0  0  0  0  0  0  0  0  0  0  0
   19.2262  -53.9545   36.7927 C   0  0  0  0  0  0  0  0  0  0  0  0
   19.6011  -52.6330   36.9878 C   0  0  0  0  0  0  0  0  0  0  0  0
   19.7071  -54.2758   32.4137 H   0  0  0  0  0  0  0  0  0  0  0  0
 22 23  1  0  0  0
 23 24  2  0  0  0
 23 31  1  0  0  0
 24 25  1  0  0  0
 25 26  1  0  0  0
 25 29  2  0  0  0
 26 27  1  0  0  0
 27 28  2  0  0  0
 27 21  1  0  0  0
 28 29  1  0  0  0
 29 30  1  0  0  0
 30 31  2  0  0  0
 21 20  1  0  0  0
 20  1  1  0  0  0
  1  2  2  0  0  0
  1  3  1  0  0  0
  3  4  1  0  0  0
  3  7  1  0  0  0
  4  5  1  0  0  0
  5  6  1  0  0  0
  5 10  1  0  0  0
  6  7  1  0  0  0
  6  8  1  0  0  0
 10 11  1  0  0  0
 10 16  1  0  0  0
 11 12  2  0  0  0
 12 13  1  0  0  0
 12 18  1  0  0  0
 13 14  2  0  0  0
 13 15  1  0  0  0
 15 16  1  0  0  0
 16 17  2  0  0  0
 26 32  1  0  0  0
  8  9  1  0  0  0
 15 19  1  0  0  0
M  END
> <minimizedAffinity>
-10.12233

$$$$
1690


 34 37  0  0  0  0  0  0  0  0999 V2000
   14.5269  -56.9511   37.4345 C   0  0  0  0  0  0  0  0  0  0  0  0
   13.4337  -56.3295   37.4418 O   0  0  0  0  0  0  0  0  0  0  0  0
   14.8528  -57.8469   36.3728 N   0  0  0  0  0  0  0  0  0  0  0  0
   16.0880  -58.5949   36.2982 C   0  0  0  0  0  0  0  0  0  0  0  0
   16.5673  -58.6926   34.8396 C   0  0  0  0  0  0  0  0  0  0  0  0
   16.0076  -57.5059   34.1329 C   0  0  0  0  0  0  0  0  0  0  0  0
   14.5177  -57.6889   33.9557 C   0  0  0  0  0  0  0  0  0  0  0  0
   13.9019  -58.0297   35.2971 C   0  0  0  0  0  0  0  0  0  0  0  0
   17.9679  -58.6611   34.9120 O   0  0  0  0  0  0  0  0  0  0  0  0
   16.1149  -60.0210   34.3214 C   0  0  0  0  0  0  0  0  0  0  0  0
   18.3107  -59.6076   34.9970 H   0  0  0  0  0  0  0  0  0  0  0  0
   16.6752  -57.1144   32.9421 N   0  0  0  0  0  0  0  0  0  0  0  0
   16.8802  -57.9332   31.8997 C   0  0  0  0  0  0  0  0  0  0  0  0
   17.5381  -57.5149   30.7500 C   0  0  0  0  0  0  0  0  0  0  0  0
   17.9948  -56.2196   30.6755 C   0  0  0  0  0  0  0  0  0  0  0  0
   18.5966  -55.8320   29.6258 O   0  0  0  0  0  0  0  0  0  0  0  0
   17.7892  -55.4036   31.7189 N   0  0  0  0  0  0  0  0  0  0  0  0
   17.1462  -55.8563   32.8090 C   0  0  0  0  0  0  0  0  0  0  0  0
   16.9519  -55.0728   33.8041 O   0  0  0  0  0  0  0  0  0  0  0  0
   17.7370  -58.4789   29.6133 C   0  0  0  0  0  0  0  0  0  0  0  0
   18.1296  -54.4207   31.6745 H   0  0  0  0  0  0  0  0  0  0  0  0
   15.5009  -56.7728   38.5251 C   0  0  0  0  0  0  0  0  0  0  0  0
   15.4747  -55.3461   38.9923 C   0  0  0  0  0  0  0  0  0  0  0  0
   20.1860  -49.9648   36.2065 Cl  0  0  0  0  0  0  0  0  0  0  0  0
   19.4160  -51.5050   36.5112 C   0  0  0  0  0  0  0  0  0  0  0  0
   18.3560  -51.6426   37.3904 C   0  0  0  0  0  0  0  0  0  0  0  0
   17.7570  -52.8577   37.6233 C   0  0  0  0  0  0  0  0  0  0  0  0
   16.7421  -53.2489   38.4048 N   0  0  0  0  0  0  0  0  0  0  0  0
   16.5295  -54.5875   38.2783 C   0  0  0  0  0  0  0  0  0  0  0  0
   17.4377  -54.9947   37.4043 N   0  0  0  0  0  0  0  0  0  0  0  0
   18.2039  -53.9855   36.9801 C   0  0  0  0  0  0  0  0  0  0  0  0
   19.2578  -53.8748   36.1005 C   0  0  0  0  0  0  0  0  0  0  0  0
   19.8610  -52.6453   35.8663 C   0  0  0  0  0  0  0  0  0  0  0  0
   16.1660  -52.6330   39.0416 H   0  0  0  0  0  0  0  0  0  0  0  0
 24 25  1  0  0  0
 25 26  2  0  0  0
 25 33  1  0  0  0
 26 27  1  0  0  0
 27 28  1  0  0  0
 27 31  2  0  0  0
 28 29  1  0  0  0
 29 30  2  0  0  0
 29 23  1  0  0  0
 30 31  1  0  0  0
 31 32  1  0  0  0
 32 33  2  0  0  0
 23 22  1  0  0  0
 22  1  1  0  0  0
  1  2  2  0  0  0
  1  3  1  0  0  0
  3  4  1  0  0  0
  3  8  1  0  0  0
  4  5  1  0  0  0
  5  6  1  0  0  0
  5  9  1  0  0  0
  5 10  1  0  0  0
  6  7  1  0  0  0
  6 12  1  0  0  0
  7  8  1  0  0  0
 12 13  1  0  0  0
 12 18  1  0  0  0
 13 14  2  0  0  0
 14 15  1  0  0  0
 14 20  1  0  0  0
 15 16  2  0  0  0
 15 17  1  0  0  0
 17 18  1  0  0  0
 18 19  2  0  0  0
 28 34  1  0  0  0
 17 21  1  0  0  0
  9 11  1  0  0  0
M  END
> <minimizedAffinity>
-10.18844

$$$$
1691


 35 39  0  0  0  0  0  0  0  0999 V2000
   15.1518  -57.9560   37.3423 C   0  0  0  0  0  0  0  0  0  0  0  0
   16.2078  -58.3491   37.8740 O   0  0  0  0  0  0  0  0  0  0  0  0
   14.8716  -58.2814   36.0053 N   0  0  0  0  0  0  0  0  0  0  0  0
   15.6079  -59.0260   35.0337 C   0  0  0  0  0  0  0  0  0  0  0  0
   15.4317  -58.2268   33.7202 C   0  0  0  0  0  0  0  0  0  0  0  0
   14.0427  -57.7298   33.9129 C   0  0  0  0  0  0  0  0  0  0  0  0
   13.6445  -57.8860   35.3415 C   0  0  0  0  0  0  0  0  0  0  0  0
   13.0993  -58.4181   33.1509 O   0  0  0  0  0  0  0  0  0  0  0  0
   13.4996  -59.2153   32.7028 H   0  0  0  0  0  0  0  0  0  0  0  0
   16.4307  -57.1974   33.6727 N   0  0  0  0  0  0  0  0  0  0  0  0
   17.4153  -57.0393   32.7725 C   0  0  0  0  0  0  0  0  0  0  0  0
   18.1582  -55.8911   33.1151 C   0  0  0  0  0  0  0  0  0  0  0  0
   17.5851  -55.3968   34.2244 N   0  0  0  0  0  0  0  0  0  0  0  0
   16.5538  -56.1633   34.5704 C   0  0  0  0  0  0  0  0  0  0  0  0
   19.2361  -55.4861   32.3605 C   0  0  0  0  0  0  0  0  0  0  0  0
   19.8806  -54.4552   32.6920 O   0  0  0  0  0  0  0  0  0  0  0  0
   19.5538  -56.2196   31.2876 N   0  0  0  0  0  0  0  0  0  0  0  0
   18.8456  -57.3044   30.9703 C   0  0  0  0  0  0  0  0  0  0  0  0
   19.1584  -57.9845   29.9576 O   0  0  0  0  0  0  0  0  0  0  0  0
   17.7676  -57.7519   31.6841 N   0  0  0  0  0  0  0  0  0  0  0  0
   17.0555  -58.9247   31.2861 C   0  0  0  0  0  0  0  0  0  0  0  0
   20.6953  -55.8139   30.4642 C   0  0  0  0  0  0  0  0  0  0  0  0
   14.2051  -57.1493   38.1278 C   0  0  0  0  0  0  0  0  0  0  0  0
   14.8913  -56.5578   39.3387 C   0  0  0  0  0  0  0  0  0  0  0  0
   20.0341  -51.6584   36.3909 Cl  0  0  0  0  0  0  0  0  0  0  0  0
   18.6370  -52.3230   37.2292 C   0  0  0  0  0  0  0  0  0  0  0  0
   18.4110  -53.6780   37.2946 C   0  0  0  0  0  0  0  0  0  0  0  0
   17.2908  -54.1651   37.9690 C   0  0  0  0  0  0  0  0  0  0  0  0
   16.8169  -55.4011   38.1980 N   0  0  0  0  0  0  0  0  0  0  0  0
   15.6790  -55.3546   38.9129 C   0  0  0  0  0  0  0  0  0  0  0  0
   15.4392  -54.0619   39.1339 N   0  0  0  0  0  0  0  0  0  0  0  0
   16.4026  -53.3017   38.5734 C   0  0  0  0  0  0  0  0  0  0  0  0
   16.6291  -51.9435   38.5063 C   0  0  0  0  0  0  0  0  0  0  0  0
   17.7530  -51.4699   37.8291 C   0  0  0  0  0  0  0  0  0  0  0  0
   17.2989  -56.2718   37.8471 H   0  0  0  0  0  0  0  0  0  0  0  0
 25 26  1  0  0  0
 26 27  2  0  0  0
 26 34  1  0  0  0
 27 28  1  0  0  0
 28 29  1  0  0  0
 28 32  2  0  0  0
 29 30  1  0  0  0
 30 31  2  0  0  0
 30 24  1  0  0  0
 31 32  1  0  0  0
 32 33  1  0  0  0
 33 34  2  0  0  0
 24 23  1  0  0  0
 23  1  1  0  0  0
  1  2  2  0  0  0
  1  3  1  0  0  0
  3  4  1  0  0  0
  3  7  1  0  0  0
  4  5  1  0  0  0
  5  6  1  0  0  0
  5 10  1  0  0  0
  6  7  1  0  0  0
  6  8  1  0  0  0
 10 11  1  0  0  0
 10 14  1  0  0  0
 11 12  2  0  0  0
 11 20  1  0  0  0
 12 13  1  0  0  0
 12 15  1  0  0  0
 13 14  2  0  0  0
 15 16  2  0  0  0
 15 17  1  0  0  0
 17 18  1  0  0  0
 17 22  1  0  0  0
 18 19  2  0  0  0
 18 20  1  0  0  0
 20 21  1  0  0  0
 29 35  1  0  0  0
  8  9  1  0  0  0
M  END
> <minimizedAffinity>
-11.23535

$$$$
1699


 31 34  0  0  0  0  0  0  0  0999 V2000
   17.0342  -63.9778   33.5761 Cl  0  0  0  0  0  0  0  0  0  0  0  0
   16.0513  -62.5498   33.5935 C   0  0  0  0  0  0  0  0  0  0  0  0
   16.6042  -61.3014   33.3480 C   0  0  0  0  0  0  0  0  0  0  0  0
   15.8345  -60.1559   33.3583 C   0  0  0  0  0  0  0  0  0  0  0  0
   14.4987  -60.2825   33.6193 C   0  0  0  0  0  0  0  0  0  0  0  0
   13.9035  -61.5226   33.8704 C   0  0  0  0  0  0  0  0  0  0  0  0
   14.7009  -62.6454   33.8520 C   0  0  0  0  0  0  0  0  0  0  0  0
   13.8835  -59.0012   33.6068 N   0  0  0  0  0  0  0  0  0  0  0  0
   14.8843  -58.0342   33.3283 C   0  0  0  0  0  0  0  0  0  0  0  0
   14.6107  -56.7909   33.2919 O   0  0  0  0  0  0  0  0  0  0  0  0
   16.1387  -58.7462   33.1218 C   0  0  0  0  0  0  0  0  0  0  0  0
   16.6837  -58.5239   31.7798 N   0  0  0  0  0  0  0  0  0  0  0  0
   17.2159  -57.1865   31.9134 C   0  0  0  0  0  0  0  0  0  0  0  0
   17.8321  -57.1131   33.2727 C   0  0  0  0  0  0  0  0  0  0  0  0
   17.2834  -58.3200   33.9722 C   0  0  0  0  0  0  0  0  0  0  0  0
   16.9152  -57.9169   35.3518 C   0  0  0  0  0  0  0  0  0  0  0  0
   16.5436  -58.7654   36.2039 O   0  0  0  0  0  0  0  0  0  0  0  0
   17.0719  -56.5104   35.4455 N   0  0  0  0  0  0  0  0  0  0  0  0
   17.2608  -56.0137   34.1153 C   0  0  0  0  0  0  0  0  0  0  0  0
   17.0134  -54.8825   33.6852 O   0  0  0  0  0  0  0  0  0  0  0  0
   12.8539  -58.7960   33.7730 H   0  0  0  0  0  0  0  0  0  0  0  0
   17.4930  -59.1798   31.6994 H   0  0  0  0  0  0  0  0  0  0  0  0
   18.1786  -56.8361   30.8079 C   0  0  0  0  0  0  0  0  0  0  0  0
   18.1638  -55.4553   30.6554 O   0  0  0  0  0  0  0  0  0  0  0  0
   19.5805  -57.3129   31.0873 C   0  0  0  0  0  0  0  0  0  0  0  0
   18.9608  -55.0185   31.0511 H   0  0  0  0  0  0  0  0  0  0  0  0
   17.0537  -55.7346   36.6272 C   0  0  0  0  0  0  0  0  0  0  0  0
   16.0259  -56.0065   37.6539 C   0  0  0  0  0  0  0  0  0  0  0  0
   15.6137  -54.8901   38.5340 C   0  0  0  0  0  0  0  0  0  0  0  0
   14.5169  -55.1277   39.3483 O   0  0  0  0  0  0  0  0  0  0  0  0
   14.1474  -56.4833   39.1733 C   0  0  0  0  0  0  0  0  0  0  0  0
  1  2  1  0  0  0
  2  3  2  0  0  0
  2  7  1  0  0  0
  3  4  1  0  0  0
  4  5  2  0  0  0
  4 11  1  0  0  0
  5  6  1  0  0  0
  5  8  1  0  0  0
  6  7  2  0  0  0
  8  9  1  0  0  0
  9 10  2  0  0  0
  9 11  1  0  0  0
 11 12  1  0  0  0
 11 15  1  0  0  0
 12 13  1  0  0  0
 13 14  1  0  0  0
 13 23  1  0  0  0
 14 15  1  0  0  0
 14 19  1  0  0  0
 15 16  1  0  0  0
 16 17  2  0  0  0
 16 18  1  0  0  0
 18 19  1  0  0  0
 18 27  1  0  0  0
 19 20  2  0  0  0
 27 28  1  0  0  0
 28 29  1  0  0  0
 29 30  1  0  0  0
 30 31  1  0  0  0
 23 24  1  0  0  0
 23 25  1  0  0  0
  8 21  1  0  0  0
 12 22  1  0  0  0
 24 26  1  0  0  0
M  END
> <minimizedAffinity>
-7.73977

$$$$
1706


 25 28  0  0  0  0  0  0  0  0999 V2000
   20.3728  -52.4309   33.9637 F   0  0  0  0  0  0  0  0  0  0  0  0
   19.5509  -53.4497   34.3855 C   0  0  0  0  0  0  0  0  0  0  0  0
   19.0442  -54.3407   33.4310 C   0  0  0  0  0  0  0  0  0  0  0  0
   18.2286  -55.3565   33.8280 C   0  0  0  0  0  0  0  0  0  0  0  0
   17.8987  -55.5094   35.1817 C   0  0  0  0  0  0  0  0  0  0  0  0
   18.4076  -54.6251   36.0926 C   0  0  0  0  0  0  0  0  0  0  0  0
   19.2317  -53.5929   35.7138 C   0  0  0  0  0  0  0  0  0  0  0  0
   19.8873  -52.4527   36.8963 Cl  0  0  0  0  0  0  0  0  0  0  0  0
   17.8371  -56.1458   32.6309 C   0  0  0  0  0  0  0  0  0  0  0  0
   16.4138  -56.1379   32.5040 N   0  0  0  0  0  0  0  0  0  0  0  0
   15.6179  -57.0945   33.1684 C   0  0  0  0  0  0  0  0  0  0  0  0
   14.2814  -56.9251   33.3421 N   0  0  0  0  0  0  0  0  0  0  0  0
   13.4830  -57.7987   33.9635 C   0  0  0  0  0  0  0  0  0  0  0  0
   14.0300  -58.9702   34.4754 C   0  0  0  0  0  0  0  0  0  0  0  0
   15.3675  -59.2176   34.3431 C   0  0  0  0  0  0  0  0  0  0  0  0
   16.1307  -58.2733   33.6912 C   0  0  0  0  0  0  0  0  0  0  0  0
   17.5737  -58.4440   33.4972 C   0  0  0  0  0  0  0  0  0  0  0  0
   18.0900  -59.5161   33.9635 O   0  0  0  0  0  0  0  0  0  0  0  0
   18.3602  -57.4858   32.8329 N   0  0  0  0  0  0  0  0  0  0  0  0
   18.5101  -55.4755   31.5128 C   0  0  0  0  0  0  0  0  0  0  0  0
   18.4650  -55.8033   30.2701 O   0  0  0  0  0  0  0  0  0  0  0  0
   19.2395  -54.3840   32.0111 N   0  0  0  0  0  0  0  0  0  0  0  0
   15.9228  -55.4224   31.9141 H   0  0  0  0  0  0  0  0  0  0  0  0
   19.3086  -57.7830   32.5067 H   0  0  0  0  0  0  0  0  0  0  0  0
   19.8376  -53.6882   31.4915 H   0  0  0  0  0  0  0  0  0  0  0  0
  1  2  1  0  0  0
  2  3  2  0  0  0
  2  7  1  0  0  0
  3  4  1  0  0  0
  3 22  1  0  0  0
  4  5  2  0  0  0
  4  9  1  0  0  0
  5  6  1  0  0  0
  6  7  2  0  0  0
  7  8  1  0  0  0
  9 10  1  0  0  0
  9 19  1  0  0  0
  9 20  1  0  0  0
 10 11  1  0  0  0
 11 12  2  0  0  0
 11 16  1  0  0  0
 12 13  1  0  0  0
 13 14  2  0  0  0
 14 15  1  0  0  0
 15 16  2  0  0  0
 16 17  1  0  0  0
 17 18  2  0  0  0
 17 19  1  0  0  0
 20 21  2  0  0  0
 20 22  1  0  0  0
 10 23  1  0  0  0
 19 24  1  0  0  0
 22 25  1  0  0  0
M  END
> <minimizedAffinity>
-8.84029

$$$$
1711


 30 33  0  0  0  0  0  0  0  0999 V2000
   14.3746  -58.9724   35.3346 N   0  0  0  0  0  0  0  0  0  0  0  0
   13.8627  -58.1391   34.3038 C   0  0  0  0  0  0  0  0  0  0  0  0
   14.8960  -57.7595   33.2733 C   0  0  0  0  0  0  0  0  0  0  0  0
   16.2163  -57.6377   33.8343 N   0  0  0  0  0  0  0  0  0  0  0  0
   16.7328  -58.7008   34.6623 C   0  0  0  0  0  0  0  0  0  0  0  0
   15.6028  -59.6108   35.0323 C   0  0  0  0  0  0  0  0  0  0  0  0
   17.0350  -56.5050   33.6025 C   0  0  0  0  0  0  0  0  0  0  0  0
   16.5969  -55.5823   32.8884 O   0  0  0  0  0  0  0  0  0  0  0  0
   14.1347  -58.4561   36.9137 S   0  0  0  0  0  0  0  0  0  0  0  0
   15.3720  -58.8026   37.7306 O   0  0  0  0  0  0  0  0  0  0  0  0
   14.0715  -56.9405   36.9199 O   0  0  0  0  0  0  0  0  0  0  0  0
   12.7102  -59.0400   37.6864 C   0  0  0  0  0  0  0  0  0  0  0  0
   11.6853  -59.5781   36.9259 C   0  0  0  0  0  0  0  0  0  0  0  0
   10.5236  -60.0605   37.4936 C   0  0  0  0  0  0  0  0  0  0  0  0
   10.4001  -59.9956   38.8695 C   0  0  0  0  0  0  0  0  0  0  0  0
   11.4289  -59.4565   39.6144 C   0  0  0  0  0  0  0  0  0  0  0  0
   12.5955  -58.9710   39.0604 C   0  0  0  0  0  0  0  0  0  0  0  0
    8.8050  -60.6516   39.7270 Br  0  0  0  0  0  0  0  0  0  0  0  0
   18.3915  -56.3870   34.1824 C   0  0  0  0  0  0  0  0  0  0  0  0
   18.5744  -55.1168   34.8219 N   0  0  0  0  0  0  0  0  0  0  0  0
   19.4851  -54.0689   34.5177 C   0  0  0  0  0  0  0  0  0  0  0  0
   20.3143  -54.1082   33.5825 O   0  0  0  0  0  0  0  0  0  0  0  0
   19.2730  -52.9870   35.4648 C   0  0  0  0  0  0  0  0  0  0  0  0
   18.2668  -53.3410   36.3322 C   0  0  0  0  0  0  0  0  0  0  0  0
   17.8869  -52.4568   37.3331 C   0  0  0  0  0  0  0  0  0  0  0  0
   18.4894  -51.2380   37.4795 C   0  0  0  0  0  0  0  0  0  0  0  0
   19.5112  -50.8659   36.6066 C   0  0  0  0  0  0  0  0  0  0  0  0
   19.8752  -51.7634   35.6138 C   0  0  0  0  0  0  0  0  0  0  0  0
   17.8124  -54.6719   35.9501 C   0  0  0  0  0  0  0  0  0  0  0  0
   16.8905  -55.2729   36.5614 O   0  0  0  0  0  0  0  0  0  0  0  0
  9 10  2  0  0  0
  9 11  2  0  0  0
  9  1  1  0  0  0
  9 12  1  0  0  0
  1  2  1  0  0  0
  1  6  1  0  0  0
  2  3  1  0  0  0
  3  4  1  0  0  0
  4  5  1  0  0  0
  4  7  1  0  0  0
  5  6  1  0  0  0
  7  8  2  0  0  0
  7 19  1  0  0  0
 19 20  1  0  0  0
 20 21  1  0  0  0
 20 29  1  0  0  0
 21 22  2  0  0  0
 21 23  1  0  0  0
 23 24  2  0  0  0
 23 28  1  0  0  0
 24 25  1  0  0  0
 24 29  1  0  0  0
 25 26  2  0  0  0
 26 27  1  0  0  0
 27 28  2  0  0  0
 29 30  2  0  0  0
 12 13  2  0  0  0
 12 17  1  0  0  0
 13 14  1  0  0  0
 14 15  2  0  0  0
 15 16  1  0  0  0
 15 18  1  0  0  0
 16 17  2  0  0  0
M  END
> <minimizedAffinity>
-9.74168

$$$$
1718


 34 38  0  0  0  0  0  0  0  0999 V2000
   19.2531  -55.4489   28.2334 Cl  0  0  0  0  0  0  0  0  0  0  0  0
   18.8841  -56.7319   29.3632 C   0  0  0  0  0  0  0  0  0  0  0  0
   18.3050  -56.3634   30.5782 C   0  0  0  0  0  0  0  0  0  0  0  0
   17.9994  -57.3448   31.4946 C   0  0  0  0  0  0  0  0  0  0  0  0
   18.2879  -58.6688   31.1581 C   0  0  0  0  0  0  0  0  0  0  0  0
   18.8607  -59.0232   29.9558 C   0  0  0  0  0  0  0  0  0  0  0  0
   19.1654  -58.0396   29.0383 C   0  0  0  0  0  0  0  0  0  0  0  0
   17.4056  -56.7645   32.6989 C   0  0  0  0  0  0  0  0  0  0  0  0
   16.0961  -57.3102   33.0023 N   0  0  0  0  0  0  0  0  0  0  0  0
   15.8952  -57.0525   34.4219 C   0  0  0  0  0  0  0  0  0  0  0  0
   17.2526  -57.1440   35.0629 C   0  0  0  0  0  0  0  0  0  0  0  0
   18.2448  -56.9849   33.9375 C   0  0  0  0  0  0  0  0  0  0  0  0
   19.0510  -55.7845   34.2735 C   0  0  0  0  0  0  0  0  0  0  0  0
   19.8870  -55.3007   33.4606 O   0  0  0  0  0  0  0  0  0  0  0  0
   18.7167  -55.3385   35.5770 N   0  0  0  0  0  0  0  0  0  0  0  0
   17.4658  -55.9208   35.9111 C   0  0  0  0  0  0  0  0  0  0  0  0
   16.6213  -55.5319   36.7666 O   0  0  0  0  0  0  0  0  0  0  0  0
   17.3643  -55.3177   32.4331 C   0  0  0  0  0  0  0  0  0  0  0  0
   16.9148  -54.3946   33.2059 O   0  0  0  0  0  0  0  0  0  0  0  0
   17.9189  -55.1178   31.1445 N   0  0  0  0  0  0  0  0  0  0  0  0
   16.0379  -58.3308   32.7870 H   0  0  0  0  0  0  0  0  0  0  0  0
   18.0345  -54.1845   30.6638 H   0  0  0  0  0  0  0  0  0  0  0  0
   19.4893  -54.4762   36.3953 C   0  0  0  0  0  0  0  0  0  0  0  0
   19.1580  -53.0370   36.3681 C   0  0  0  0  0  0  0  0  0  0  0  0
   20.2467  -52.1791   36.3343 O   0  0  0  0  0  0  0  0  0  0  0  0
   19.6097  -50.9447   36.2031 C   0  0  0  0  0  0  0  0  0  0  0  0
   18.4623  -50.9877   37.2202 C   0  0  0  0  0  0  0  0  0  0  0  0
   18.3451  -52.4980   37.4868 C   0  0  0  0  0  0  0  0  0  0  0  0
   14.9343  -58.0659   34.9702 C   0  0  0  0  0  0  0  0  0  0  0  0
   13.9882  -58.4181   33.8639 C   0  0  0  0  0  0  0  0  0  0  0  0
   13.2100  -57.5085   33.4779 O   0  0  0  0  0  0  0  0  0  0  0  0
   13.9543  -59.7044   33.2678 N   0  0  0  0  0  0  0  0  0  0  0  0
   14.7268  -59.9650   32.6240 H   0  0  0  0  0  0  0  0  0  0  0  0
   13.2054  -60.4049   33.4344 H   0  0  0  0  0  0  0  0  0  0  0  0
  1  2  1  0  0  0
  2  3  2  0  0  0
  2  7  1  0  0  0
  3  4  1  0  0  0
  3 20  1  0  0  0
  4  5  2  0  0  0
  4  8  1  0  0  0
  5  6  1  0  0  0
  6  7  2  0  0  0
  8  9  1  0  0  0
  8 12  1  0  0  0
  8 18  1  0  0  0
  9 10  1  0  0  0
 10 11  1  0  0  0
 10 29  1  0  0  0
 11 12  1  0  0  0
 11 16  1  0  0  0
 12 13  1  0  0  0
 13 14  2  0  0  0
 13 15  1  0  0  0
 15 16  1  0  0  0
 15 23  1  0  0  0
 16 17  2  0  0  0
 23 24  1  0  0  0
 24 25  1  0  0  0
 24 28  1  0  0  0
 25 26  1  0  0  0
 26 27  1  0  0  0
 27 28  1  0  0  0
 29 30  1  0  0  0
 30 31  2  0  0  0
 30 32  1  0  0  0
 18 19  2  0  0  0
 18 20  1  0  0  0
  9 21  1  0  0  0
 32 33  1  0  0  0
 32 34  1  0  0  0
 20 22  1  0  0  0
M  END
> <minimizedAffinity>
-9.21265

$$$$
1721


 28 31  0  0  0  0  0  0  0  0999 V2000
   14.9735  -59.1871   34.6511 C   0  0  0  0  0  0  0  0  0  0  0  0
   15.2711  -58.0373   33.8115 C   0  0  0  0  0  0  0  0  0  0  0  0
   14.1715  -57.2996   33.5445 O   0  0  0  0  0  0  0  0  0  0  0  0
   16.4351  -57.5828   33.2563 N   0  0  0  0  0  0  0  0  0  0  0  0
   17.7188  -58.1969   33.2655 C   0  0  0  0  0  0  0  0  0  0  0  0
   18.7415  -57.3621   34.0331 C   0  0  0  0  0  0  0  0  0  0  0  0
   18.3326  -55.9984   33.8553 N   0  0  0  0  0  0  0  0  0  0  0  0
   17.7570  -55.6316   32.5942 C   0  0  0  0  0  0  0  0  0  0  0  0
   16.3520  -56.2424   32.5607 C   0  0  0  0  0  0  0  0  0  0  0  0
   18.4785  -55.0250   34.8596 C   0  0  0  0  0  0  0  0  0  0  0  0
   17.4228  -54.2791   35.2980 N   0  0  0  0  0  0  0  0  0  0  0  0
   17.4921  -53.3502   36.2350 C   0  0  0  0  0  0  0  0  0  0  0  0
   18.6693  -53.0506   36.8611 C   0  0  0  0  0  0  0  0  0  0  0  0
   19.7848  -53.7726   36.4627 C   0  0  0  0  0  0  0  0  0  0  0  0
   19.6875  -54.7433   35.4780 C   0  0  0  0  0  0  0  0  0  0  0  0
   15.5657  -59.1942   35.9356 N   0  0  0  0  0  0  0  0  0  0  0  0
   16.4016  -59.7527   36.1291 H   0  0  0  0  0  0  0  0  0  0  0  0
   15.4240  -54.8927   38.7112 Cl  0  0  0  0  0  0  0  0  0  0  0  0
   14.8411  -56.4845   38.3008 C   0  0  0  0  0  0  0  0  0  0  0  0
   13.8228  -57.0412   38.9429 N   0  0  0  0  0  0  0  0  0  0  0  0
   13.3137  -58.2521   38.6930 C   0  0  0  0  0  0  0  0  0  0  0  0
   12.3178  -58.9972   39.1988 N   0  0  0  0  0  0  0  0  0  0  0  0
   12.2602  -60.1658   38.5380 C   0  0  0  0  0  0  0  0  0  0  0  0
   13.2379  -60.1325   37.6130 N   0  0  0  0  0  0  0  0  0  0  0  0
   13.9156  -58.9764   37.6675 C   0  0  0  0  0  0  0  0  0  0  0  0
   14.9712  -58.4086   36.9953 C   0  0  0  0  0  0  0  0  0  0  0  0
   15.4257  -57.1868   37.3043 N   0  0  0  0  0  0  0  0  0  0  0  0
   13.4842  -60.8841   36.9150 H   0  0  0  0  0  0  0  0  0  0  0  0
 18 19  1  0  0  0
 19 20  2  0  0  0
 19 27  1  0  0  0
 20 21  1  0  0  0
 21 22  1  0  0  0
 21 25  2  0  0  0
 22 23  2  0  0  0
 23 24  1  0  0  0
 24 25  1  0  0  0
 25 26  1  0  0  0
 26 27  2  0  0  0
 26 16  1  0  0  0
 16  1  1  0  0  0
  1  2  1  0  0  0
  2  3  2  0  0  0
  2  4  1  0  0  0
  4  5  1  0  0  0
  4  9  1  0  0  0
  5  6  1  0  0  0
  6  7  1  0  0  0
  7  8  1  0  0  0
  7 10  1  0  0  0
  8  9  1  0  0  0
 10 11  2  0  0  0
 10 15  1  0  0  0
 11 12  1  0  0  0
 12 13  2  0  0  0
 13 14  1  0  0  0
 14 15  2  0  0  0
 24 28  1  0  0  0
 16 17  1  0  0  0
M  END
> <minimizedAffinity>
-8.65197

$$$$
1726


 30 33  0  0  0  0  0  0  0  0999 V2000
   14.3793  -56.9643   37.6329 C   0  0  0  0  0  0  0  0  0  0  0  0
   14.5973  -58.2044   36.9140 N   0  0  0  0  0  0  0  0  0  0  0  0
   13.5628  -58.3148   35.9409 C   0  0  0  0  0  0  0  0  0  0  0  0
   14.0228  -58.6090   34.5481 C   0  0  0  0  0  0  0  0  0  0  0  0
   14.6811  -57.4659   33.8605 C   0  0  0  0  0  0  0  0  0  0  0  0
   16.0802  -57.6448   33.5904 N   0  0  0  0  0  0  0  0  0  0  0  0
   16.8855  -58.4925   34.2579 C   0  0  0  0  0  0  0  0  0  0  0  0
   18.2157  -58.6624   34.0021 C   0  0  0  0  0  0  0  0  0  0  0  0
   18.7942  -57.9230   32.9906 C   0  0  0  0  0  0  0  0  0  0  0  0
   17.9789  -57.0553   32.3038 C   0  0  0  0  0  0  0  0  0  0  0  0
   16.6425  -56.9088   32.5888 C   0  0  0  0  0  0  0  0  0  0  0  0
   15.9267  -56.1035   31.9383 O   0  0  0  0  0  0  0  0  0  0  0  0
   16.1907  -59.2704   35.3526 C   0  0  0  0  0  0  0  0  0  0  0  0
   15.9277  -58.3235   36.4554 C   0  0  0  0  0  0  0  0  0  0  0  0
   14.9553  -59.8190   34.6816 C   0  0  0  0  0  0  0  0  0  0  0  0
   14.4358  -58.9716   37.6355 H   0  0  0  0  0  0  0  0  0  0  0  0
   15.6280  -56.3578   38.1877 C   0  0  0  0  0  0  0  0  0  0  0  0
   15.3800  -55.8432   39.4590 O   0  0  0  0  0  0  0  0  0  0  0  0
   14.9108  -54.9729   39.3151 H   0  0  0  0  0  0  0  0  0  0  0  0
   16.0497  -55.2570   37.2151 C   0  0  0  0  0  0  0  0  0  0  0  0
   17.3109  -54.8184   37.6296 O   0  0  0  0  0  0  0  0  0  0  0  0
   19.3435  -55.3185   35.4665 Br  0  0  0  0  0  0  0  0  0  0  0  0
   18.9178  -53.6699   36.3208 C   0  0  0  0  0  0  0  0  0  0  0  0
   17.9439  -53.6688   37.2939 C   0  0  0  0  0  0  0  0  0  0  0  0
   17.6479  -52.4693   37.9022 C   0  0  0  0  0  0  0  0  0  0  0  0
   18.3152  -51.2946   37.5410 C   0  0  0  0  0  0  0  0  0  0  0  0
   19.2876  -51.3287   36.5602 C   0  0  0  0  0  0  0  0  0  0  0  0
   19.5920  -52.5090   35.9483 C   0  0  0  0  0  0  0  0  0  0  0  0
   20.0157  -50.0860   36.1554 C   0  0  0  0  0  0  0  0  0  0  0  0
   16.3068  -52.4335   39.2519 Br  0  0  0  0  0  0  0  0  0  0  0  0
 22 23  1  0  0  0
 23 24  2  0  0  0
 23 28  1  0  0  0
 24 25  1  0  0  0
 24 21  1  0  0  0
 25 26  2  0  0  0
 25 30  1  0  0  0
 26 27  1  0  0  0
 27 28  2  0  0  0
 27 29  1  0  0  0
 21 20  1  0  0  0
 20 17  1  0  0  0
 17 18  1  0  0  0
 17  1  1  0  0  0
  1  2  1  0  0  0
  2  3  1  0  0  0
  2 14  1  0  0  0
  3  4  1  0  0  0
  4  5  1  0  0  0
  4 15  1  0  0  0
  5  6  1  0  0  0
  6  7  1  0  0  0
  6 11  1  0  0  0
  7  8  2  0  0  0
  7 13  1  0  0  0
  8  9  1  0  0  0
  9 10  2  0  0  0
 10 11  1  0  0  0
 11 12  2  0  0  0
 13 14  1  0  0  0
 13 15  1  0  0  0
 18 19  1  0  0  0
  2 16  1  0  0  0
M  CHG 1   2   1
M  END
> <minimizedAffinity>
-8.85702

$$$$
1732


 28 31  0  0  0  0  0  0  0  0999 V2000
   14.7930  -56.3489   38.2504 N   0  0  0  0  0  0  0  0  0  0  0  0
   15.7887  -57.0810   37.7788 N   0  0  0  0  0  0  0  0  0  0  0  0
   15.3259  -58.2481   37.3450 N   0  0  0  0  0  0  0  0  0  0  0  0
   13.9911  -58.2699   37.5430 C   0  0  0  0  0  0  0  0  0  0  0  0
   13.7032  -57.0827   38.1015 N   0  0  0  0  0  0  0  0  0  0  0  0
   13.0740  -59.3520   37.2167 C   0  0  0  0  0  0  0  0  0  0  0  0
   12.8476  -59.6299   35.8888 C   0  0  0  0  0  0  0  0  0  0  0  0
   11.9743  -60.6594   35.5793 C   0  0  0  0  0  0  0  0  0  0  0  0
   11.3399  -61.3958   36.5476 C   0  0  0  0  0  0  0  0  0  0  0  0
   11.5654  -61.1181   37.8808 C   0  0  0  0  0  0  0  0  0  0  0  0
   12.4387  -60.0895   38.1880 C   0  0  0  0  0  0  0  0  0  0  0  0
   13.4696  -58.9089   34.8261 N   0  0  0  0  0  0  0  0  0  0  0  0
   13.0524  -57.7290   34.3850 N   0  0  0  0  0  0  0  0  0  0  0  0
   13.8383  -57.3413   33.4053 N   0  0  0  0  0  0  0  0  0  0  0  0
   14.7616  -58.2822   33.2215 N   0  0  0  0  0  0  0  0  0  0  0  0
   14.5290  -59.2666   34.1147 C   0  0  0  0  0  0  0  0  0  0  0  0
   14.8773  -54.9955   38.8224 C   0  0  0  0  0  0  0  0  0  0  0  0
   16.4361  -53.7805   37.2661 N   0  0  0  0  0  0  0  0  0  0  0  0
   16.1893  -54.3726   38.5049 C   0  0  0  0  0  0  0  0  0  0  0  0
   17.0557  -54.4068   39.3980 O   0  0  0  0  0  0  0  0  0  0  0  0
   15.6275  -53.8071   36.5756 H   0  0  0  0  0  0  0  0  0  0  0  0
   17.7758  -55.3673   35.0476 Br  0  0  0  0  0  0  0  0  0  0  0  0
   18.3707  -53.7281   35.7848 C   0  0  0  0  0  0  0  0  0  0  0  0
   17.6122  -53.1523   36.8048 C   0  0  0  0  0  0  0  0  0  0  0  0
   18.1059  -51.9575   37.2942 C   0  0  0  0  0  0  0  0  0  0  0  0
   19.2757  -51.3680   36.8089 C   0  0  0  0  0  0  0  0  0  0  0  0
   19.9789  -51.9833   35.8038 C   0  0  0  0  0  0  0  0  0  0  0  0
   19.5240  -53.1749   35.2848 C   0  0  0  0  0  0  0  0  0  0  0  0
 22 23  1  0  0  0
 23 24  2  0  0  0
 23 28  1  0  0  0
 24 25  1  0  0  0
 24 18  1  0  0  0
 25 26  2  0  0  0
 26 27  1  0  0  0
 27 28  2  0  0  0
 18 19  1  0  0  0
 19 20  2  0  0  0
 19 17  1  0  0  0
 17  1  1  0  0  0
  1  2  1  0  0  0
  1  5  1  0  0  0
  2  3  2  0  0  0
  3  4  1  0  0  0
  4  5  2  0  0  0
  4  6  1  0  0  0
  6  7  1  0  0  0
  6 11  2  0  0  0
  7  8  2  0  0  0
  7 12  1  0  0  0
  8  9  1  0  0  0
  9 10  2  0  0  0
 10 11  1  0  0  0
 12 13  1  0  0  0
 12 16  1  0  0  0
 13 14  2  0  0  0
 14 15  1  0  0  0
 15 16  2  0  0  0
 18 21  1  0  0  0
M  END
> <minimizedAffinity>
-9.30366

$$$$
1736


 35 39  0  0  0  0  0  0  0  0999 V2000
   17.4883  -64.7174   35.4390 Cl  0  0  0  0  0  0  0  0  0  0  0  0
   16.9306  -64.1056   33.8733 C   0  0  0  0  0  0  0  0  0  0  0  0
   16.1805  -62.9590   33.7910 C   0  0  0  0  0  0  0  0  0  0  0  0
   15.7535  -62.4928   32.5763 C   0  0  0  0  0  0  0  0  0  0  0  0
   16.0823  -63.1841   31.4376 C   0  0  0  0  0  0  0  0  0  0  0  0
   16.8433  -64.3518   31.4895 C   0  0  0  0  0  0  0  0  0  0  0  0
   17.2573  -64.7943   32.7257 C   0  0  0  0  0  0  0  0  0  0  0  0
   15.5527  -62.5546   30.2858 N   0  0  0  0  0  0  0  0  0  0  0  0
   14.8536  -61.4048   30.7389 C   0  0  0  0  0  0  0  0  0  0  0  0
   14.2433  -60.5909   30.0131 O   0  0  0  0  0  0  0  0  0  0  0  0
   14.9500  -61.3049   32.2077 C   0  0  0  0  0  0  0  0  0  0  0  0
   13.6575  -61.2961   32.8478 N   0  0  0  0  0  0  0  0  0  0  0  0
   13.7317  -60.4111   33.9678 C   0  0  0  0  0  0  0  0  0  0  0  0
   14.7036  -59.3150   33.5977 C   0  0  0  0  0  0  0  0  0  0  0  0
   15.5792  -60.0148   32.5897 C   0  0  0  0  0  0  0  0  0  0  0  0
   16.9179  -60.1462   33.2155 C   0  0  0  0  0  0  0  0  0  0  0  0
   17.8519  -60.9370   32.9288 O   0  0  0  0  0  0  0  0  0  0  0  0
   16.9606  -59.1551   34.2626 N   0  0  0  0  0  0  0  0  0  0  0  0
   15.6081  -58.9334   34.7123 C   0  0  0  0  0  0  0  0  0  0  0  0
   15.2393  -58.4982   35.8339 O   0  0  0  0  0  0  0  0  0  0  0  0
   15.6345  -62.8461   29.2679 H   0  0  0  0  0  0  0  0  0  0  0  0
   13.3844  -62.2475   33.1136 H   0  0  0  0  0  0  0  0  0  0  0  0
   12.3737  -59.8537   34.3369 C   0  0  0  0  0  0  0  0  0  0  0  0
   12.4562  -58.4659   34.2676 O   0  0  0  0  0  0  0  0  0  0  0  0
   12.1492  -60.1976   35.8056 C   0  0  0  0  0  0  0  0  0  0  0  0
   12.9275  -58.1237   35.0606 H   0  0  0  0  0  0  0  0  0  0  0  0
   18.1364  -58.4903   34.7831 C   0  0  0  0  0  0  0  0  0  0  0  0
   18.3526  -57.1973   34.0672 C   0  0  0  0  0  0  0  0  0  0  0  0
   17.9984  -55.9993   34.6506 C   0  0  0  0  0  0  0  0  0  0  0  0
   18.2095  -54.8142   33.9666 C   0  0  0  0  0  0  0  0  0  0  0  0
   18.7702  -54.7879   32.7047 C   0  0  0  0  0  0  0  0  0  0  0  0
   19.1273  -55.9791   32.1126 C   0  0  0  0  0  0  0  0  0  0  0  0
   18.9126  -57.1499   32.8029 C   0  0  0  0  0  0  0  0  0  0  0  0
   17.4309  -56.0279   35.9284 O   0  0  0  0  0  0  0  0  0  0  0  0
   17.4461  -54.8252   36.7047 C   0  0  0  0  0  0  0  0  0  0  0  0
  1  2  1  0  0  0
  2  3  2  0  0  0
  2  7  1  0  0  0
  3  4  1  0  0  0
  4  5  2  0  0  0
  4 11  1  0  0  0
  5  6  1  0  0  0
  5  8  1  0  0  0
  6  7  2  0  0  0
  8  9  1  0  0  0
  9 10  2  0  0  0
  9 11  1  0  0  0
 11 12  1  0  0  0
 11 15  1  0  0  0
 12 13  1  0  0  0
 13 14  1  0  0  0
 13 23  1  0  0  0
 14 15  1  0  0  0
 14 19  1  0  0  0
 15 16  1  0  0  0
 16 17  2  0  0  0
 16 18  1  0  0  0
 18 19  1  0  0  0
 18 27  1  0  0  0
 19 20  2  0  0  0
 27 28  1  0  0  0
 28 29  2  0  0  0
 28 33  1  0  0  0
 29 30  1  0  0  0
 29 34  1  0  0  0
 30 31  2  0  0  0
 31 32  1  0  0  0
 32 33  2  0  0  0
 34 35  1  0  0  0
 23 24  1  0  0  0
 23 25  1  0  0  0
  8 21  1  0  0  0
 12 22  1  0  0  0
 24 26  1  0  0  0
M  END
> <minimizedAffinity>
-7.63960

$$$$
1741


 28 31  0  0  0  0  0  0  0  0999 V2000
   14.9105  -56.4443   37.9877 C   0  0  0  0  0  0  0  0  0  0  0  0
   13.8630  -55.7707   38.0469 O   0  0  0  0  0  0  0  0  0  0  0  0
   14.9753  -57.5841   37.1733 N   0  0  0  0  0  0  0  0  0  0  0  0
   13.8707  -58.0457   36.3617 C   0  0  0  0  0  0  0  0  0  0  0  0
   14.4031  -58.2195   34.9490 C   0  0  0  0  0  0  0  0  0  0  0  0
   15.7150  -57.7369   34.8245 N   0  0  0  0  0  0  0  0  0  0  0  0
   16.7305  -58.2308   35.6607 C   0  0  0  0  0  0  0  0  0  0  0  0
   16.1893  -58.4085   37.0749 C   0  0  0  0  0  0  0  0  0  0  0  0
   16.0941  -56.0089   38.8048 C   0  0  0  0  0  0  0  0  0  0  0  0
   20.2470  -50.8967   36.0765 Br  0  0  0  0  0  0  0  0  0  0  0  0
   19.0247  -52.1242   36.8998 C   0  0  0  0  0  0  0  0  0  0  0  0
   17.9928  -51.6399   37.7067 C   0  0  0  0  0  0  0  0  0  0  0  0
   17.1183  -52.5497   38.2924 C   0  0  0  0  0  0  0  0  0  0  0  0
   17.2417  -53.9057   38.0999 C   0  0  0  0  0  0  0  0  0  0  0  0
   16.2643  -54.5717   38.7796 N   0  0  0  0  0  0  0  0  0  0  0  0
   15.5417  -53.6240   39.3892 C   0  0  0  0  0  0  0  0  0  0  0  0
   16.0309  -52.3622   39.1179 C   0  0  0  0  0  0  0  0  0  0  0  0
   18.2555  -54.3897   37.3060 C   0  0  0  0  0  0  0  0  0  0  0  0
   19.1338  -53.4860   36.7173 C   0  0  0  0  0  0  0  0  0  0  0  0
   15.9766  -56.6416   33.9863 C   0  0  0  0  0  0  0  0  0  0  0  0
   16.8760  -56.9440   32.8417 C   0  0  0  0  0  0  0  0  0  0  0  0
   16.4324  -57.7368   31.9735 O   0  0  0  0  0  0  0  0  0  0  0  0
   18.1610  -56.4006   32.6923 N   0  0  0  0  0  0  0  0  0  0  0  0
   18.9782  -56.7556   31.5491 C   0  0  0  0  0  0  0  0  0  0  0  0
   19.4049  -55.4619   30.8876 C   0  0  0  0  0  0  0  0  0  0  0  0
   20.2378  -54.8232   31.8179 O   0  0  0  0  0  0  0  0  0  0  0  0
   19.5393  -54.4147   32.9290 C   0  0  0  0  0  0  0  0  0  0  0  0
   18.7625  -55.4739   33.6304 C   0  0  0  0  0  0  0  0  0  0  0  0
 10 11  1  0  0  0
 11 12  2  0  0  0
 11 19  1  0  0  0
 12 13  1  0  0  0
 13 14  2  0  0  0
 13 17  1  0  0  0
 14 15  1  0  0  0
 14 18  1  0  0  0
 15 16  1  0  0  0
 15  9  1  0  0  0
 16 17  2  0  0  0
  9  1  1  0  0  0
  1  2  2  0  0  0
  1  3  1  0  0  0
  3  4  1  0  0  0
  3  8  1  0  0  0
  4  5  1  0  0  0
  5  6  1  0  0  0
  6  7  1  0  0  0
  6 20  1  0  0  0
  7  8  1  0  0  0
 20 21  1  0  0  0
 21 22  2  0  0  0
 21 23  1  0  0  0
 23 24  1  0  0  0
 23 28  1  0  0  0
 24 25  1  0  0  0
 25 26  1  0  0  0
 26 27  1  0  0  0
 27 28  1  0  0  0
 18 19  2  0  0  0
M  END
> <minimizedAffinity>
-10.05093

$$$$
1744


 34 37  0  0  0  0  0  0  0  0999 V2000
   16.4484  -58.2955   33.4744 N   0  0  0  0  0  0  0  0  0  0  0  0
   17.1502  -59.4218   32.9506 C   0  0  0  0  0  0  0  0  0  0  0  0
   17.2992  -60.5003   33.5755 O   0  0  0  0  0  0  0  0  0  0  0  0
   17.7122  -59.3179   31.6442 N   0  0  0  0  0  0  0  0  0  0  0  0
   17.5569  -58.0966   30.9054 C   0  0  0  0  0  0  0  0  0  0  0  0
   17.8695  -58.1526   29.6691 O   0  0  0  0  0  0  0  0  0  0  0  0
   17.0689  -56.8501   31.5233 C   0  0  0  0  0  0  0  0  0  0  0  0
   16.2788  -57.0797   32.7577 C   0  0  0  0  0  0  0  0  0  0  0  0
   15.4825  -56.1834   33.1303 O   0  0  0  0  0  0  0  0  0  0  0  0
   18.2426  -60.1097   31.1972 H   0  0  0  0  0  0  0  0  0  0  0  0
   12.4514  -59.6052   36.4662 Cl  0  0  0  0  0  0  0  0  0  0  0  0
   14.0797  -59.0218   36.2501 C   0  0  0  0  0  0  0  0  0  0  0  0
   14.6239  -58.8797   34.9978 C   0  0  0  0  0  0  0  0  0  0  0  0
   15.9107  -58.4156   34.7864 C   0  0  0  0  0  0  0  0  0  0  0  0
   16.6604  -58.0871   35.8747 C   0  0  0  0  0  0  0  0  0  0  0  0
   16.1566  -58.2130   37.1657 C   0  0  0  0  0  0  0  0  0  0  0  0
   14.8689  -58.6804   37.3338 C   0  0  0  0  0  0  0  0  0  0  0  0
   18.2203  -55.9169   31.8153 C   0  0  0  0  0  0  0  0  0  0  0  0
   19.3530  -56.2930   32.3803 C   0  0  0  0  0  0  0  0  0  0  0  0
   20.1702  -55.0625   32.4697 C   0  0  0  0  0  0  0  0  0  0  0  0
   19.6715  -54.2896   31.3464 N   0  0  0  0  0  0  0  0  0  0  0  0
   18.2841  -54.5236   31.5125 N   0  0  0  0  0  0  0  0  0  0  0  0
   19.9305  -53.2997   31.3464 H   0  0  0  0  0  0  0  0  0  0  0  0
   17.4714  -53.9106   31.4492 H   0  0  0  0  0  0  0  0  0  0  0  0
   19.9144  -54.3512   33.7534 C   0  0  0  0  0  0  0  0  0  0  0  0
   20.2539  -53.0540   34.0123 C   0  0  0  0  0  0  0  0  0  0  0  0
   19.9588  -52.4285   35.2075 C   0  0  0  0  0  0  0  0  0  0  0  0
   19.2931  -53.1132   36.2078 C   0  0  0  0  0  0  0  0  0  0  0  0
   18.9470  -54.4467   35.9356 C   0  0  0  0  0  0  0  0  0  0  0  0
   19.2499  -55.0541   34.7398 C   0  0  0  0  0  0  0  0  0  0  0  0
   20.3322  -51.0904   35.4246 O   0  0  0  0  0  0  0  0  0  0  0  0
   20.8189  -50.6044   34.6786 H   0  0  0  0  0  0  0  0  0  0  0  0
   18.9784  -52.5223   37.4077 O   0  0  0  0  0  0  0  0  0  0  0  0
   17.6759  -52.0543   37.6900 C   0  0  0  0  0  0  0  0  0  0  0  0
 11 12  1  0  0  0
 12 13  2  0  0  0
 12 17  1  0  0  0
 13 14  1  0  0  0
 14 15  2  0  0  0
 14  1  1  0  0  0
 15 16  1  0  0  0
 16 17  2  0  0  0
  1  2  1  0  0  0
  1  8  1  0  0  0
  2  3  2  0  0  0
  2  4  1  0  0  0
  4  5  1  0  0  0
  5  6  2  0  0  0
  5  7  1  0  0  0
  7  8  1  0  0  0
  7 18  1  0  0  0
  8  9  2  0  0  0
 18 19  2  0  0  0
 18 22  1  0  0  0
 19 20  1  0  0  0
 20 21  1  0  0  0
 20 25  1  0  0  0
 21 22  1  0  0  0
 25 26  2  0  0  0
 25 30  1  0  0  0
 26 27  1  0  0  0
 27 28  2  0  0  0
 27 31  1  0  0  0
 28 29  1  0  0  0
 28 33  1  0  0  0
 29 30  2  0  0  0
 33 34  1  0  0  0
  4 10  1  0  0  0
 21 23  1  0  0  0
 22 24  1  0  0  0
 31 32  1  0  0  0
M  END
> <minimizedAffinity>
-9.86220

$$$$
1745


 34 37  0  0  0  0  0  0  0  0999 V2000
   15.5418  -57.4745   34.6019 N   0  0  0  0  0  0  0  0  0  0  0  0
   14.1332  -57.5908   34.4822 C   0  0  0  0  0  0  0  0  0  0  0  0
   13.5185  -57.0672   33.5432 O   0  0  0  0  0  0  0  0  0  0  0  0
   13.3890  -58.3263   35.4641 N   0  0  0  0  0  0  0  0  0  0  0  0
   14.0450  -58.9514   36.5656 C   0  0  0  0  0  0  0  0  0  0  0  0
   13.5485  -59.9139   37.1760 O   0  0  0  0  0  0  0  0  0  0  0  0
   15.3857  -58.4148   36.9935 C   0  0  0  0  0  0  0  0  0  0  0  0
   16.1283  -58.1293   35.7476 C   0  0  0  0  0  0  0  0  0  0  0  0
   17.3626  -58.4595   35.6249 O   0  0  0  0  0  0  0  0  0  0  0  0
   12.3689  -58.3975   35.3591 H   0  0  0  0  0  0  0  0  0  0  0  0
   17.8407  -57.8086   30.0680 Cl  0  0  0  0  0  0  0  0  0  0  0  0
   17.5047  -56.9050   31.5200 C   0  0  0  0  0  0  0  0  0  0  0  0
   16.6904  -57.4654   32.4791 C   0  0  0  0  0  0  0  0  0  0  0  0
   16.3789  -56.8016   33.6717 C   0  0  0  0  0  0  0  0  0  0  0  0
   16.9311  -55.5583   33.8328 C   0  0  0  0  0  0  0  0  0  0  0  0
   17.7463  -54.9898   32.8779 C   0  0  0  0  0  0  0  0  0  0  0  0
   18.0525  -55.6614   31.6912 C   0  0  0  0  0  0  0  0  0  0  0  0
   15.1805  -57.2052   37.8454 C   0  0  0  0  0  0  0  0  0  0  0  0
   15.6992  -56.9211   39.0223 C   0  0  0  0  0  0  0  0  0  0  0  0
   15.1865  -55.5936   39.4598 C   0  0  0  0  0  0  0  0  0  0  0  0
   13.9244  -55.5185   38.6804 N   0  0  0  0  0  0  0  0  0  0  0  0
   14.3096  -56.1268   37.4787 N   0  0  0  0  0  0  0  0  0  0  0  0
   13.1748  -56.0424   39.1740 H   0  0  0  0  0  0  0  0  0  0  0  0
   14.0423  -55.8774   36.5325 H   0  0  0  0  0  0  0  0  0  0  0  0
   16.0625  -54.5278   38.9022 C   0  0  0  0  0  0  0  0  0  0  0  0
   17.3672  -54.8110   38.4444 C   0  0  0  0  0  0  0  0  0  0  0  0
   18.1909  -53.8775   37.8959 C   0  0  0  0  0  0  0  0  0  0  0  0
   17.7505  -52.5737   37.7672 C   0  0  0  0  0  0  0  0  0  0  0  0
   16.4836  -52.2613   38.2038 C   0  0  0  0  0  0  0  0  0  0  0  0
   15.6606  -53.2169   38.7575 C   0  0  0  0  0  0  0  0  0  0  0  0
   18.5788  -51.6066   37.2071 O   0  0  0  0  0  0  0  0  0  0  0  0
   19.5032  -51.8737   36.8954 H   0  0  0  0  0  0  0  0  0  0  0  0
   19.4812  -54.2122   37.4606 O   0  0  0  0  0  0  0  0  0  0  0  0
   19.7015  -54.4915   36.0953 C   0  0  0  0  0  0  0  0  0  0  0  0
 11 12  1  0  0  0
 12 13  2  0  0  0
 12 17  1  0  0  0
 13 14  1  0  0  0
 14 15  2  0  0  0
 14  1  1  0  0  0
 15 16  1  0  0  0
 16 17  2  0  0  0
  1  2  1  0  0  0
  1  8  1  0  0  0
  2  3  2  0  0  0
  2  4  1  0  0  0
  4  5  1  0  0  0
  5  6  2  0  0  0
  5  7  1  0  0  0
  7  8  1  0  0  0
  7 18  1  0  0  0
  8  9  2  0  0  0
 18 19  2  0  0  0
 18 22  1  0  0  0
 19 20  1  0  0  0
 20 21  1  0  0  0
 20 25  1  0  0  0
 21 22  1  0  0  0
 25 26  2  0  0  0
 25 30  1  0  0  0
 26 27  1  0  0  0
 27 28  2  0  0  0
 27 33  1  0  0  0
 28 29  1  0  0  0
 28 31  1  0  0  0
 29 30  2  0  0  0
 33 34  1  0  0  0
  4 10  1  0  0  0
 21 23  1  0  0  0
 22 24  1  0  0  0
 31 32  1  0  0  0
M  END
> <minimizedAffinity>
-10.09322

$$$$
1750


 27 30  0  0  0  0  0  0  0  0999 V2000
   15.1084  -59.1155   33.4563 N   0  0  0  0  0  0  0  0  0  0  0  0
   14.4792  -57.8356   33.5718 C   0  0  0  0  0  0  0  0  0  0  0  0
   15.0489  -57.0062   34.7067 C   0  0  0  0  0  0  0  0  0  0  0  0
   15.1122  -57.8178   35.8928 N   0  0  0  0  0  0  0  0  0  0  0  0
   14.5376  -59.1474   35.8414 C   0  0  0  0  0  0  0  0  0  0  0  0
   15.1657  -59.8635   34.6658 C   0  0  0  0  0  0  0  0  0  0  0  0
   15.7121  -57.3706   37.1050 C   0  0  0  0  0  0  0  0  0  0  0  0
   15.7557  -58.0975   38.1243 O   0  0  0  0  0  0  0  0  0  0  0  0
   16.3012  -56.0326   37.1952 C   0  0  0  0  0  0  0  0  0  0  0  0
   15.9012  -55.0287   38.0231 N   0  0  0  0  0  0  0  0  0  0  0  0
   16.6813  -53.9562   37.8169 C   0  0  0  0  0  0  0  0  0  0  0  0
   17.5596  -54.2845   36.8699 N   0  0  0  0  0  0  0  0  0  0  0  0
   17.3490  -55.5468   36.4730 C   0  0  0  0  0  0  0  0  0  0  0  0
   18.4644  -53.3665   36.4785 C   0  0  0  0  0  0  0  0  0  0  0  0
   18.5446  -52.1024   36.9941 C   0  0  0  0  0  0  0  0  0  0  0  0
   17.6363  -51.7414   37.9829 C   0  0  0  0  0  0  0  0  0  0  0  0
   16.7163  -52.6877   38.3746 C   0  0  0  0  0  0  0  0  0  0  0  0
   19.7410  -50.9277   36.4579 Cl  0  0  0  0  0  0  0  0  0  0  0  0
   16.5135  -59.1571   32.5183 S   0  0  0  0  0  0  0  0  0  0  0  0
   17.5652  -59.9633   33.2084 O   0  0  0  0  0  0  0  0  0  0  0  0
   16.1949  -59.8167   31.2060 O   0  0  0  0  0  0  0  0  0  0  0  0
   17.1623  -57.6055   32.1672 N   0  0  0  0  0  0  0  0  0  0  0  0
   17.4741  -57.4433   30.7593 C   0  0  0  0  0  0  0  0  0  0  0  0
   18.5205  -56.3594   30.6557 C   0  0  0  0  0  0  0  0  0  0  0  0
   18.3512  -55.3852   31.6338 O   0  0  0  0  0  0  0  0  0  0  0  0
   18.6076  -55.8625   32.9172 C   0  0  0  0  0  0  0  0  0  0  0  0
   18.3967  -57.3631   32.8908 C   0  0  0  0  0  0  0  0  0  0  0  0
 19 20  2  0  0  0
 19 21  2  0  0  0
 19  1  1  0  0  0
 19 22  1  0  0  0
  1  2  1  0  0  0
  1  6  1  0  0  0
  2  3  1  0  0  0
  3  4  1  0  0  0
  4  5  1  0  0  0
  4  7  1  0  0  0
  5  6  1  0  0  0
  7  8  2  0  0  0
  7  9  1  0  0  0
  9 10  1  0  0  0
  9 13  2  0  0  0
 10 11  2  0  0  0
 11 12  1  0  0  0
 11 17  1  0  0  0
 12 13  1  0  0  0
 12 14  1  0  0  0
 14 15  2  0  0  0
 15 16  1  0  0  0
 15 18  1  0  0  0
 16 17  2  0  0  0
 22 23  1  0  0  0
 22 27  1  0  0  0
 23 24  1  0  0  0
 24 25  1  0  0  0
 25 26  1  0  0  0
 26 27  1  0  0  0
M  END
> <minimizedAffinity>
-9.18892

$$$$
1758


 28 32  0  0  0  0  0  0  0  0999 V2000
   13.3864  -58.0679   38.2884 N   0  0  0  0  0  0  0  0  0  0  0  0
   13.5031  -56.8801   38.8536 N   0  0  0  0  0  0  0  0  0  0  0  0
   14.6266  -56.2470   38.4597 C   0  0  0  0  0  0  0  0  0  0  0  0
   15.0756  -55.0638   38.8048 C   0  0  0  0  0  0  0  0  0  0  0  0
   15.2664  -57.0989   37.5811 C   0  0  0  0  0  0  0  0  0  0  0  0
   16.4258  -56.8609   36.9494 C   0  0  0  0  0  0  0  0  0  0  0  0
   14.4652  -58.2170   37.5012 C   0  0  0  0  0  0  0  0  0  0  0  0
   14.7018  -59.2321   36.7982 O   0  0  0  0  0  0  0  0  0  0  0  0
   12.8198  -56.4609   39.5276 H   0  0  0  0  0  0  0  0  0  0  0  0
    8.7629  -62.2251   39.4671 I   0  0  0  0  0  0  0  0  0  0  0  0
   10.2911  -60.8414   39.0392 C   0  0  0  0  0  0  0  0  0  0  0  0
   10.4902  -60.3528   37.7641 C   0  0  0  0  0  0  0  0  0  0  0  0
   11.5024  -59.4358   37.4770 C   0  0  0  0  0  0  0  0  0  0  0  0
   12.3140  -59.0116   38.4803 C   0  0  0  0  0  0  0  0  0  0  0  0
   12.1049  -59.5084   39.7542 C   0  0  0  0  0  0  0  0  0  0  0  0
   11.1116  -60.4139   40.0581 C   0  0  0  0  0  0  0  0  0  0  0  0
   16.8978  -57.8873   36.0865 N   0  0  0  0  0  0  0  0  0  0  0  0
   17.0386  -58.8746   36.3782 H   0  0  0  0  0  0  0  0  0  0  0  0
   17.2070  -57.5501   34.7064 C   0  0  0  0  0  0  0  0  0  0  0  0
   16.0664  -57.9845   33.7985 C   0  0  0  0  0  0  0  0  0  0  0  0
   16.3625  -57.5896   32.4491 N   0  0  0  0  0  0  0  0  0  0  0  0
   17.5948  -58.2658   32.0580 C   0  0  0  0  0  0  0  0  0  0  0  0
   18.7058  -57.8474   32.8659 N   0  0  0  0  0  0  0  0  0  0  0  0
   18.8594  -56.4104   32.8155 C   0  0  0  0  0  0  0  0  0  0  0  0
   17.6617  -55.7231   33.2184 N   0  0  0  0  0  0  0  0  0  0  0  0
   16.5227  -56.1538   32.4141 C   0  0  0  0  0  0  0  0  0  0  0  0
   17.3698  -56.0501   34.5950 C   0  0  0  0  0  0  0  0  0  0  0  0
   18.4523  -58.2359   34.2304 C   0  0  0  0  0  0  0  0  0  0  0  0
 10 11  1  0  0  0
 11 12  2  0  0  0
 11 16  1  0  0  0
 12 13  1  0  0  0
 13 14  2  0  0  0
 14 15  1  0  0  0
 14  1  1  0  0  0
 15 16  2  0  0  0
  1  2  1  0  0  0
  1  7  1  0  0  0
  2  3  1  0  0  0
  3  4  2  0  0  0
  3  5  1  0  0  0
  5  6  2  0  0  0
  5  7  1  0  0  0
  6 17  1  0  0  0
 17 19  1  0  0  0
 19 20  1  0  0  0
 19 27  1  0  0  0
 19 28  1  0  0  0
 20 21  1  0  0  0
 21 22  1  0  0  0
 21 26  1  0  0  0
 22 23  1  0  0  0
 23 24  1  0  0  0
 23 28  1  0  0  0
 24 25  1  0  0  0
 25 26  1  0  0  0
 25 27  1  0  0  0
  7  8  2  0  0  0
  2  9  1  0  0  0
 17 18  1  0  0  0
M  END
> <minimizedAffinity>
-8.23375

$$$$
1764


 34 37  0  0  0  0  0  0  0  0999 V2000
   15.5890  -57.3580   35.5404 N   0  0  0  0  0  0  0  0  0  0  0  0
   14.5313  -57.5134   36.4154 C   0  0  0  0  0  0  0  0  0  0  0  0
   14.7916  -58.8396   37.1433 C   0  0  0  0  0  0  0  0  0  0  0  0
   16.2976  -58.8170   37.2854 C   0  0  0  0  0  0  0  0  0  0  0  0
   16.7698  -58.0092   36.1004 C   0  0  0  0  0  0  0  0  0  0  0  0
   14.5838  -56.3916   37.4387 C   0  0  0  0  0  0  0  0  0  0  0  0
   13.5641  -56.2423   38.1248 O   0  0  0  0  0  0  0  0  0  0  0  0
   15.7464  -55.6097   37.5511 N   0  0  0  0  0  0  0  0  0  0  0  0
   16.5819  -55.7534   36.9485 H   0  0  0  0  0  0  0  0  0  0  0  0
   15.8163  -54.5476   38.5247 C   0  0  0  0  0  0  0  0  0  0  0  0
   17.1791  -54.1184   38.9129 C   0  0  0  0  0  0  0  0  0  0  0  0
   17.9912  -53.5748   37.8828 N   0  0  0  0  0  0  0  0  0  0  0  0
   19.3977  -53.7521   38.0434 C   0  0  0  0  0  0  0  0  0  0  0  0
   19.9860  -54.0529   36.6795 C   0  0  0  0  0  0  0  0  0  0  0  0
   19.5291  -52.9870   35.7048 C   0  0  0  0  0  0  0  0  0  0  0  0
   19.7185  -51.6412   36.3516 C   0  0  0  0  0  0  0  0  0  0  0  0
   18.6544  -51.2620   37.3125 C   0  0  0  0  0  0  0  0  0  0  0  0
   17.5775  -52.2589   37.5219 C   0  0  0  0  0  0  0  0  0  0  0  0
   15.4950  -57.4345   33.8847 S   0  0  0  0  0  0  0  0  0  0  0  0
   14.1599  -56.9242   33.3458 O   0  0  0  0  0  0  0  0  0  0  0  0
   15.5079  -58.9070   33.4689 O   0  0  0  0  0  0  0  0  0  0  0  0
   16.7897  -56.6516   33.0281 C   0  0  0  0  0  0  0  0  0  0  0  0
   17.3167  -57.2746   31.8843 C   0  0  0  0  0  0  0  0  0  0  0  0
   18.3715  -56.7835   31.1695 C   0  0  0  0  0  0  0  0  0  0  0  0
   18.9397  -55.6031   31.6133 C   0  0  0  0  0  0  0  0  0  0  0  0
   18.4785  -54.9456   32.7139 C   0  0  0  0  0  0  0  0  0  0  0  0
   17.4016  -55.4895   33.4042 C   0  0  0  0  0  0  0  0  0  0  0  0
   16.8021  -54.5342   34.7418 Cl  0  0  0  0  0  0  0  0  0  0  0  0
   20.0460  -55.0724   30.8675 N   0  0  0  0  0  0  0  0  0  0  0  0
   20.5135  -55.7673   29.7138 C   0  0  0  0  0  0  0  0  0  0  0  0
   21.6845  -55.6124   29.3244 O   0  0  0  0  0  0  0  0  0  0  0  0
   19.5515  -56.6608   29.0217 C   0  0  0  0  0  0  0  0  0  0  0  0
   18.8871  -57.4025   30.0413 O   0  0  0  0  0  0  0  0  0  0  0  0
   20.4876  -54.1771   31.1927 H   0  0  0  0  0  0  0  0  0  0  0  0
 19 20  2  0  0  0
 19 21  2  0  0  0
 19  1  1  0  0  0
 19 22  1  0  0  0
  1  2  1  0  0  0
  1  5  1  0  0  0
  2  3  1  0  0  0
  2  6  1  0  0  0
  3  4  1  0  0  0
  4  5  1  0  0  0
  6  7  2  0  0  0
  6  8  1  0  0  0
  8 10  1  0  0  0
 10 11  1  0  0  0
 11 12  1  0  0  0
 12 13  1  0  0  0
 12 18  1  0  0  0
 13 14  1  0  0  0
 14 15  1  0  0  0
 15 16  1  0  0  0
 16 17  1  0  0  0
 17 18  1  0  0  0
 22 23  2  0  0  0
 22 27  1  0  0  0
 23 24  1  0  0  0
 24 25  2  0  0  0
 24 33  1  0  0  0
 25 26  1  0  0  0
 25 29  1  0  0  0
 26 27  2  0  0  0
 27 28  1  0  0  0
 29 30  1  0  0  0
 30 31  2  0  0  0
 30 32  1  0  0  0
 32 33  1  0  0  0
  8  9  1  0  0  0
 29 34  1  0  0  0
M  END
> <minimizedAffinity>
-9.76160

$$$$
1781


 24 27  0  0  0  0  0  0  0  0999 V2000
   14.1242  -58.0242   34.3388 C   0  0  0  0  0  0  0  0  0  0  0  0
   13.4200  -57.2330   33.5686 O   0  0  0  0  0  0  0  0  0  0  0  0
   15.4872  -58.0211   34.0837 N   0  0  0  0  0  0  0  0  0  0  0  0
   16.5544  -58.7728   34.6549 C   0  0  0  0  0  0  0  0  0  0  0  0
   17.2233  -57.8139   35.6605 C   0  0  0  0  0  0  0  0  0  0  0  0
   17.2775  -56.4868   35.0197 N   0  0  0  0  0  0  0  0  0  0  0  0
   17.2793  -56.4352   33.5860 C   0  0  0  0  0  0  0  0  0  0  0  0
   15.9802  -57.0271   33.0721 C   0  0  0  0  0  0  0  0  0  0  0  0
   17.3301  -55.3181   35.8338 C   0  0  0  0  0  0  0  0  0  0  0  0
   16.6187  -55.2315   36.9795 N   0  0  0  0  0  0  0  0  0  0  0  0
   16.6411  -54.1641   37.7575 N   0  0  0  0  0  0  0  0  0  0  0  0
   17.3750  -53.0801   37.4692 C   0  0  0  0  0  0  0  0  0  0  0  0
   17.2156  -52.1362   38.4294 N   0  0  0  0  0  0  0  0  0  0  0  0
   16.3790  -52.6335   39.3215 N   0  0  0  0  0  0  0  0  0  0  0  0
   16.0154  -53.8683   38.9316 C   0  0  0  0  0  0  0  0  0  0  0  0
   18.1328  -53.0918   36.3108 C   0  0  0  0  0  0  0  0  0  0  0  0
   18.0914  -54.2150   35.5183 C   0  0  0  0  0  0  0  0  0  0  0  0
   10.5646  -61.0561   38.1811 Cl  0  0  0  0  0  0  0  0  0  0  0  0
   11.6267  -60.1686   37.0790 C   0  0  0  0  0  0  0  0  0  0  0  0
   11.4691  -60.2619   35.7184 C   0  0  0  0  0  0  0  0  0  0  0  0
   12.2974  -59.5710   34.8645 C   0  0  0  0  0  0  0  0  0  0  0  0
   13.3369  -58.7413   35.3011 C   0  0  0  0  0  0  0  0  0  0  0  0
   13.4714  -58.6662   36.6687 C   0  0  0  0  0  0  0  0  0  0  0  0
   12.6320  -59.3673   37.5533 C   0  0  0  0  0  0  0  0  0  0  0  0
 18 19  1  0  0  0
 19 20  2  0  0  0
 19 24  1  0  0  0
 20 21  1  0  0  0
 21 22  2  0  0  0
 22 23  1  0  0  0
 22  1  1  0  0  0
 23 24  2  0  0  0
  1  2  2  0  0  0
  1  3  1  0  0  0
  3  4  1  0  0  0
  3  8  1  0  0  0
  4  5  1  0  0  0
  5  6  1  0  0  0
  6  7  1  0  0  0
  6  9  1  0  0  0
  7  8  1  0  0  0
  9 10  2  0  0  0
  9 17  1  0  0  0
 10 11  1  0  0  0
 11 12  1  0  0  0
 11 15  1  0  0  0
 12 13  2  0  0  0
 12 16  1  0  0  0
 13 14  1  0  0  0
 14 15  2  0  0  0
 16 17  2  0  0  0
M  END
> <minimizedAffinity>
-8.72415

$$$$
1788


 30 33  0  0  0  0  0  0  0  0999 V2000
   15.7101  -57.1738   36.3903 N   0  0  0  0  0  0  0  0  0  0  0  0
   15.9510  -56.0094   36.8797 N   0  0  0  0  0  0  0  0  0  0  0  0
   17.0981  -55.4557   36.3338 C   0  0  0  0  0  0  0  0  0  0  0  0
   17.5592  -56.3464   35.4761 N   0  0  0  0  0  0  0  0  0  0  0  0
   16.6887  -57.4118   35.5141 C   0  0  0  0  0  0  0  0  0  0  0  0
   16.8316  -58.4366   34.8135 O   0  0  0  0  0  0  0  0  0  0  0  0
   11.0513  -60.7018   37.7935 Cl  0  0  0  0  0  0  0  0  0  0  0  0
   12.4092  -59.6740   37.3763 C   0  0  0  0  0  0  0  0  0  0  0  0
   12.6517  -59.2438   36.0853 C   0  0  0  0  0  0  0  0  0  0  0  0
   13.7257  -58.4308   35.7661 C   0  0  0  0  0  0  0  0  0  0  0  0
   14.6116  -58.0104   36.7383 C   0  0  0  0  0  0  0  0  0  0  0  0
   14.3803  -58.4330   38.0305 C   0  0  0  0  0  0  0  0  0  0  0  0
   13.2995  -59.2504   38.3508 C   0  0  0  0  0  0  0  0  0  0  0  0
   17.5616  -54.1426   36.7774 C   0  0  0  0  0  0  0  0  0  0  0  0
   16.6957  -53.3700   37.5619 C   0  0  0  0  0  0  0  0  0  0  0  0
   16.9797  -52.1031   37.9915 C   0  0  0  0  0  0  0  0  0  0  0  0
   18.1848  -51.4993   37.6579 C   0  0  0  0  0  0  0  0  0  0  0  0
   19.0370  -52.2430   36.8909 C   0  0  0  0  0  0  0  0  0  0  0  0
   18.7410  -53.5375   36.4542 C   0  0  0  0  0  0  0  0  0  0  0  0
   18.7668  -56.3322   34.7122 C   0  0  0  0  0  0  0  0  0  0  0  0
   18.6277  -55.8754   33.3163 C   0  0  0  0  0  0  0  0  0  0  0  0
   18.4646  -54.5888   33.2136 O   0  0  0  0  0  0  0  0  0  0  0  0
   18.6412  -56.5681   32.1263 N   0  0  0  0  0  0  0  0  0  0  0  0
   18.7632  -57.9947   31.9887 C   0  0  0  0  0  0  0  0  0  0  0  0
   18.6883  -58.4471   30.5195 C   0  0  0  0  0  0  0  0  0  0  0  0
   19.6776  -57.6979   29.7390 N   0  0  0  0  0  0  0  0  0  0  0  0
   19.6632  -56.2799   30.0127 C   0  0  0  0  0  0  0  0  0  0  0  0
   20.5580  -55.5375   29.5478 O   0  0  0  0  0  0  0  0  0  0  0  0
   18.5363  -55.8217   30.8604 C   0  0  0  0  0  0  0  0  0  0  0  0
   20.3167  -58.1307   29.0670 H   0  0  0  0  0  0  0  0  0  0  0  0
  7  8  1  0  0  0
  8  9  2  0  0  0
  8 13  1  0  0  0
  9 10  1  0  0  0
 10 11  2  0  0  0
 11 12  1  0  0  0
 11  1  1  0  0  0
 12 13  2  0  0  0
  1  2  1  0  0  0
  1  5  1  0  0  0
  2  3  2  0  0  0
  3  4  1  0  0  0
  3 14  1  0  0  0
  4  5  1  0  0  0
  4 20  1  0  0  0
  5  6  2  0  0  0
 20 21  1  0  0  0
 21 22  2  0  0  0
 21 23  1  0  0  0
 23 24  1  0  0  0
 23 29  1  0  0  0
 24 25  1  0  0  0
 25 26  1  0  0  0
 26 27  1  0  0  0
 27 28  2  0  0  0
 27 29  1  0  0  0
 14 15  2  0  0  0
 14 19  1  0  0  0
 15 16  1  0  0  0
 16 17  2  0  0  0
 17 18  1  0  0  0
 18 19  2  0  0  0
 26 30  1  0  0  0
M  END
> <minimizedAffinity>
-9.59957

$$$$
1789


 29 32  0  0  0  0  0  0  0  0999 V2000
   16.7849  -54.7454   37.9615 N   0  0  0  0  0  0  0  0  0  0  0  0
   16.1954  -54.8326   39.1302 N   0  0  0  0  0  0  0  0  0  0  0  0
   15.5132  -55.9737   39.1290 N   0  0  0  0  0  0  0  0  0  0  0  0
   15.6647  -56.6217   37.9581 C   0  0  0  0  0  0  0  0  0  0  0  0
   16.4686  -55.8337   37.2368 C   0  0  0  0  0  0  0  0  0  0  0  0
   16.6262  -56.4979   36.0286 C   0  0  0  0  0  0  0  0  0  0  0  0
   17.3210  -56.0671   35.0810 O   0  0  0  0  0  0  0  0  0  0  0  0
   15.9473  -57.6546   36.0014 N   0  0  0  0  0  0  0  0  0  0  0  0
   15.3474  -57.7328   37.2037 C   0  0  0  0  0  0  0  0  0  0  0  0
   14.6025  -58.6838   37.5866 O   0  0  0  0  0  0  0  0  0  0  0  0
   16.2473  -54.1319   39.9278 H   0  0  0  0  0  0  0  0  0  0  0  0
   14.9435  -56.2975   39.9470 H   0  0  0  0  0  0  0  0  0  0  0  0
   20.3447  -50.3225   36.1477 Cl  0  0  0  0  0  0  0  0  0  0  0  0
   19.2777  -51.6185   36.6928 C   0  0  0  0  0  0  0  0  0  0  0  0
   18.1204  -51.3817   37.3786 C   0  0  0  0  0  0  0  0  0  0  0  0
   17.2620  -52.3670   37.8205 C   0  0  0  0  0  0  0  0  0  0  0  0
   17.6144  -53.6837   37.5409 C   0  0  0  0  0  0  0  0  0  0  0  0
   18.8002  -53.9343   36.8383 C   0  0  0  0  0  0  0  0  0  0  0  0
   19.6171  -52.9213   36.4221 C   0  0  0  0  0  0  0  0  0  0  0  0
   15.8525  -58.6183   34.9565 C   0  0  0  0  0  0  0  0  0  0  0  0
   14.6582  -59.1974   34.5746 C   0  0  0  0  0  0  0  0  0  0  0  0
   14.5748  -60.1291   33.5610 C   0  0  0  0  0  0  0  0  0  0  0  0
   15.7010  -60.5322   32.8740 C   0  0  0  0  0  0  0  0  0  0  0  0
   16.9011  -59.9628   33.2444 C   0  0  0  0  0  0  0  0  0  0  0  0
   16.9744  -59.0283   34.2617 C   0  0  0  0  0  0  0  0  0  0  0  0
   15.6068  -61.4740   31.8525 O   0  0  0  0  0  0  0  0  0  0  0  0
   15.7142  -61.1603   30.4980 C   0  0  0  0  0  0  0  0  0  0  0  0
   13.3714  -60.7124   33.1769 O   0  0  0  0  0  0  0  0  0  0  0  0
   12.6406  -61.4091   34.1692 C   0  0  0  0  0  0  0  0  0  0  0  0
 13 14  1  0  0  0
 14 15  2  0  0  0
 14 19  1  0  0  0
 15 16  1  0  0  0
 16 17  2  0  0  0
 17 18  1  0  0  0
 17  1  1  0  0  0
 18 19  2  0  0  0
  1  2  1  0  0  0
  1  5  1  0  0  0
  2  3  1  0  0  0
  3  4  1  0  0  0
  4  5  2  0  0  0
  4  9  1  0  0  0
  5  6  1  0  0  0
  6  7  2  0  0  0
  6  8  1  0  0  0
  8  9  1  0  0  0
  8 20  1  0  0  0
  9 10  2  0  0  0
 20 21  2  0  0  0
 20 25  1  0  0  0
 21 22  1  0  0  0
 22 23  2  0  0  0
 22 28  1  0  0  0
 23 24  1  0  0  0
 23 26  1  0  0  0
 24 25  2  0  0  0
 26 27  1  0  0  0
 28 29  1  0  0  0
  2 11  1  0  0  0
  3 12  1  0  0  0
M  END
> <minimizedAffinity>
-9.13395

$$$$
1790


 29 32  0  0  0  0  0  0  0  0999 V2000
   16.4921  -54.5595   38.3442 N   0  0  0  0  0  0  0  0  0  0  0  0
   15.9158  -54.4800   39.5270 N   0  0  0  0  0  0  0  0  0  0  0  0
   15.1108  -55.5315   39.6131 N   0  0  0  0  0  0  0  0  0  0  0  0
   15.1633  -56.2838   38.5006 C   0  0  0  0  0  0  0  0  0  0  0  0
   16.0434  -55.6567   37.7022 C   0  0  0  0  0  0  0  0  0  0  0  0
   16.0954  -56.4320   36.5593 C   0  0  0  0  0  0  0  0  0  0  0  0
   16.8353  -56.1384   35.5738 O   0  0  0  0  0  0  0  0  0  0  0  0
   15.2828  -57.4987   36.6395 N   0  0  0  0  0  0  0  0  0  0  0  0
   14.7021  -57.4078   37.8477 C   0  0  0  0  0  0  0  0  0  0  0  0
   13.8596  -58.2413   38.2961 O   0  0  0  0  0  0  0  0  0  0  0  0
   16.0768  -53.7278   40.2389 H   0  0  0  0  0  0  0  0  0  0  0  0
   14.5110  -55.7497   40.4379 H   0  0  0  0  0  0  0  0  0  0  0  0
   20.4549  -50.6415   36.1340 Cl  0  0  0  0  0  0  0  0  0  0  0  0
   19.2713  -51.7782   36.7932 C   0  0  0  0  0  0  0  0  0  0  0  0
   19.4904  -53.1367   36.6926 C   0  0  0  0  0  0  0  0  0  0  0  0
   18.6008  -54.0524   37.1900 C   0  0  0  0  0  0  0  0  0  0  0  0
   17.4352  -53.6415   37.8183 C   0  0  0  0  0  0  0  0  0  0  0  0
   17.2320  -52.2744   37.9103 C   0  0  0  0  0  0  0  0  0  0  0  0
   18.1255  -51.3498   37.4110 C   0  0  0  0  0  0  0  0  0  0  0  0
   15.1138  -58.4870   35.6257 C   0  0  0  0  0  0  0  0  0  0  0  0
   13.8698  -58.9540   35.2522 C   0  0  0  0  0  0  0  0  0  0  0  0
   13.6812  -59.9088   34.2741 C   0  0  0  0  0  0  0  0  0  0  0  0
   14.7921  -60.4227   33.6389 C   0  0  0  0  0  0  0  0  0  0  0  0
   16.0603  -59.9932   33.9719 C   0  0  0  0  0  0  0  0  0  0  0  0
   16.1998  -59.0286   34.9652 C   0  0  0  0  0  0  0  0  0  0  0  0
   17.1550  -60.5341   33.3104 O   0  0  0  0  0  0  0  0  0  0  0  0
   17.0232  -61.5858   32.3939 C   0  0  0  0  0  0  0  0  0  0  0  0
   12.3894  -60.3517   33.9299 O   0  0  0  0  0  0  0  0  0  0  0  0
   11.6068  -60.9994   34.9060 C   0  0  0  0  0  0  0  0  0  0  0  0
 13 14  1  0  0  0
 14 15  2  0  0  0
 14 19  1  0  0  0
 15 16  1  0  0  0
 16 17  2  0  0  0
 17 18  1  0  0  0
 17  1  1  0  0  0
 18 19  2  0  0  0
  1  2  1  0  0  0
  1  5  1  0  0  0
  2  3  1  0  0  0
  3  4  1  0  0  0
  4  5  2  0  0  0
  4  9  1  0  0  0
  5  6  1  0  0  0
  6  7  2  0  0  0
  6  8  1  0  0  0
  8  9  1  0  0  0
  8 20  1  0  0  0
  9 10  2  0  0  0
 20 21  2  0  0  0
 20 25  1  0  0  0
 21 22  1  0  0  0
 22 23  2  0  0  0
 22 28  1  0  0  0
 23 24  1  0  0  0
 24 25  2  0  0  0
 24 26  1  0  0  0
 26 27  1  0  0  0
 28 29  1  0  0  0
  2 11  1  0  0  0
  3 12  1  0  0  0
M  END
> <minimizedAffinity>
-9.02892

$$$$
1801


 26 29  0  0  0  0  0  0  0  0999 V2000
   20.0444  -51.0207   35.9599 Cl  0  0  0  0  0  0  0  0  0  0  0  0
   18.8460  -52.1189   36.6436 C   0  0  0  0  0  0  0  0  0  0  0  0
   18.6728  -53.3842   36.1110 C   0  0  0  0  0  0  0  0  0  0  0  0
   17.7474  -54.2456   36.6323 C   0  0  0  0  0  0  0  0  0  0  0  0
   17.0069  -53.7947   37.6987 C   0  0  0  0  0  0  0  0  0  0  0  0
   17.1587  -52.5473   38.2455 C   0  0  0  0  0  0  0  0  0  0  0  0
   18.0998  -51.6851   37.7079 C   0  0  0  0  0  0  0  0  0  0  0  0
   15.9980  -54.6975   38.2874 C   0  0  0  0  0  0  0  0  0  0  0  0
   15.1710  -54.5702   39.2647 N   0  0  0  0  0  0  0  0  0  0  0  0
   14.3769  -55.7487   39.4603 C   0  0  0  0  0  0  0  0  0  0  0  0
   14.8418  -56.7016   38.4083 C   0  0  0  0  0  0  0  0  0  0  0  0
   15.8694  -55.9795   37.6962 N   0  0  0  0  0  0  0  0  0  0  0  0
   16.6698  -56.3991   36.5818 C   0  0  0  0  0  0  0  0  0  0  0  0
   16.7199  -57.5384   35.8761 N   0  0  0  0  0  0  0  0  0  0  0  0
   17.6355  -57.4455   34.9278 N   0  0  0  0  0  0  0  0  0  0  0  0
   18.1621  -56.2153   35.0533 C   0  0  0  0  0  0  0  0  0  0  0  0
   19.0720  -55.7647   34.3159 O   0  0  0  0  0  0  0  0  0  0  0  0
   17.5758  -55.5416   36.0791 N   0  0  0  0  0  0  0  0  0  0  0  0
   18.0150  -58.4495   33.9391 C   0  0  0  0  0  0  0  0  0  0  0  0
   17.5136  -58.0269   32.6101 C   0  0  0  0  0  0  0  0  0  0  0  0
   16.2680  -58.0342   32.4006 O   0  0  0  0  0  0  0  0  0  0  0  0
   18.3747  -57.6131   31.5602 N   0  0  0  0  0  0  0  0  0  0  0  0
   19.3974  -57.6131   31.7504 H   0  0  0  0  0  0  0  0  0  0  0  0
   17.8385  -57.2101   30.2797 C   0  0  0  0  0  0  0  0  0  0  0  0
   18.7552  -56.1803   29.6138 C   0  0  0  0  0  0  0  0  0  0  0  0
   17.8784  -58.4403   29.3835 C   0  0  0  0  0  0  0  0  0  0  0  0
  1  2  1  0  0  0
  2  3  2  0  0  0
  2  7  1  0  0  0
  3  4  1  0  0  0
  4  5  2  0  0  0
  4 18  1  0  0  0
  5  6  1  0  0  0
  5  8  1  0  0  0
  6  7  2  0  0  0
  8  9  2  0  0  0
  8 12  1  0  0  0
  9 10  1  0  0  0
 10 11  1  0  0  0
 11 12  1  0  0  0
 12 13  1  0  0  0
 13 14  2  0  0  0
 13 18  1  0  0  0
 14 15  1  0  0  0
 15 16  1  0  0  0
 15 19  1  0  0  0
 16 17  2  0  0  0
 16 18  1  0  0  0
 19 20  1  0  0  0
 20 21  2  0  0  0
 20 22  1  0  0  0
 22 24  1  0  0  0
 24 25  1  0  0  0
 24 26  1  0  0  0
 22 23  1  0  0  0
M  END
> <minimizedAffinity>
-9.64012

$$$$
1802


 27 30  0  0  0  0  0  0  0  0999 V2000
   19.5850  -50.6928   36.4675 Cl  0  0  0  0  0  0  0  0  0  0  0  0
   18.4388  -51.9168   37.0204 C   0  0  0  0  0  0  0  0  0  0  0  0
   18.4297  -53.1540   36.3712 C   0  0  0  0  0  0  0  0  0  0  0  0
   17.5659  -54.1587   36.7572 C   0  0  0  0  0  0  0  0  0  0  0  0
   16.7178  -53.8754   37.8094 C   0  0  0  0  0  0  0  0  0  0  0  0
   16.6937  -52.6896   38.4658 C   0  0  0  0  0  0  0  0  0  0  0  0
   17.5768  -51.6748   38.0662 C   0  0  0  0  0  0  0  0  0  0  0  0
   15.7983  -54.9695   38.2136 C   0  0  0  0  0  0  0  0  0  0  0  0
   14.8936  -55.0309   39.1430 N   0  0  0  0  0  0  0  0  0  0  0  0
   14.2544  -56.3265   39.1442 C   0  0  0  0  0  0  0  0  0  0  0  0
   14.9057  -57.1359   38.0502 C   0  0  0  0  0  0  0  0  0  0  0  0
   15.8594  -56.1819   37.5082 N   0  0  0  0  0  0  0  0  0  0  0  0
   16.7668  -56.3958   36.4287 C   0  0  0  0  0  0  0  0  0  0  0  0
   16.9910  -57.4662   35.6382 N   0  0  0  0  0  0  0  0  0  0  0  0
   17.9592  -57.1725   34.7729 N   0  0  0  0  0  0  0  0  0  0  0  0
   18.3130  -55.9201   35.0523 C   0  0  0  0  0  0  0  0  0  0  0  0
   19.2118  -55.2705   34.4487 O   0  0  0  0  0  0  0  0  0  0  0  0
   17.5845  -55.4059   36.0819 N   0  0  0  0  0  0  0  0  0  0  0  0
   18.5140  -58.0628   33.7495 C   0  0  0  0  0  0  0  0  0  0  0  0
   17.3655  -58.1274   32.6955 C   0  0  0  0  0  0  0  0  0  0  0  0
   17.4934  -57.1201   31.9141 O   0  0  0  0  0  0  0  0  0  0  0  0
   16.4634  -59.1178   32.7236 N   0  0  0  0  0  0  0  0  0  0  0  0
   15.9046  -58.6443   31.5805 H   0  0  0  0  0  0  0  0  0  0  0  0
   15.5358  -60.1357   32.7524 C   0  0  0  0  0  0  0  0  0  0  0  0
   14.3342  -59.8101   33.6476 C   0  0  0  0  0  0  0  0  0  0  0  0
   13.6492  -58.7099   33.1901 O   0  0  0  0  0  0  0  0  0  0  0  0
   13.5930  -57.6524   34.0511 C   0  0  0  0  0  0  0  0  0  0  0  0
  1  2  1  0  0  0
  2  3  2  0  0  0
  2  7  1  0  0  0
  3  4  1  0  0  0
  4  5  2  0  0  0
  4 18  1  0  0  0
  5  6  1  0  0  0
  5  8  1  0  0  0
  6  7  2  0  0  0
  8  9  2  0  0  0
  8 12  1  0  0  0
  9 10  1  0  0  0
 10 11  1  0  0  0
 11 12  1  0  0  0
 12 13  1  0  0  0
 13 14  2  0  0  0
 13 18  1  0  0  0
 14 15  1  0  0  0
 15 16  1  0  0  0
 15 19  1  0  0  0
 16 17  2  0  0  0
 16 18  1  0  0  0
 19 20  1  0  0  0
 20 21  2  0  0  0
 20 22  1  0  0  0
 22 24  1  0  0  0
 24 25  1  0  0  0
 25 26  1  0  0  0
 26 27  1  0  0  0
 22 23  1  0  0  0
M  END
> <minimizedAffinity>
-9.38985

$$$$
1804


 26 30  0  0  0  0  0  0  0  0999 V2000
   20.0543  -50.8839   36.0701 Cl  0  0  0  0  0  0  0  0  0  0  0  0
   18.8747  -52.0231   36.6819 C   0  0  0  0  0  0  0  0  0  0  0  0
   18.7006  -53.2883   36.1462 C   0  0  0  0  0  0  0  0  0  0  0  0
   17.7704  -54.1745   36.6366 C   0  0  0  0  0  0  0  0  0  0  0  0
   17.0092  -53.7453   37.6967 C   0  0  0  0  0  0  0  0  0  0  0  0
   17.1391  -52.5013   38.2678 C   0  0  0  0  0  0  0  0  0  0  0  0
   18.0933  -51.6246   37.7461 C   0  0  0  0  0  0  0  0  0  0  0  0
   15.9997  -54.6691   38.2490 C   0  0  0  0  0  0  0  0  0  0  0  0
   15.1661  -54.5397   39.2157 N   0  0  0  0  0  0  0  0  0  0  0  0
   14.3644  -55.7195   39.4011 C   0  0  0  0  0  0  0  0  0  0  0  0
   14.8452  -56.6647   38.3468 C   0  0  0  0  0  0  0  0  0  0  0  0
   15.8784  -55.9433   37.6514 N   0  0  0  0  0  0  0  0  0  0  0  0
   16.7066  -56.3399   36.5389 C   0  0  0  0  0  0  0  0  0  0  0  0
   16.7710  -57.4771   35.8197 N   0  0  0  0  0  0  0  0  0  0  0  0
   17.7038  -57.3554   34.8906 N   0  0  0  0  0  0  0  0  0  0  0  0
   18.2122  -56.1225   35.0505 C   0  0  0  0  0  0  0  0  0  0  0  0
   19.1373  -55.6644   34.3210 O   0  0  0  0  0  0  0  0  0  0  0  0
   17.6118  -55.4671   36.0671 N   0  0  0  0  0  0  0  0  0  0  0  0
   18.1080  -58.3519   33.8877 C   0  0  0  0  0  0  0  0  0  0  0  0
   17.4798  -57.9832   32.5917 C   0  0  0  0  0  0  0  0  0  0  0  0
   16.2240  -58.0059   32.5476 O   0  0  0  0  0  0  0  0  0  0  0  0
   18.2526  -57.6241   31.4549 N   0  0  0  0  0  0  0  0  0  0  0  0
   17.6977  -57.2570   30.1660 C   0  0  0  0  0  0  0  0  0  0  0  0
   18.8620  -57.1478   29.2184 C   0  0  0  0  0  0  0  0  0  0  0  0
   19.9149  -57.9834   29.9168 C   0  0  0  0  0  0  0  0  0  0  0  0
   19.6925  -57.5562   31.3716 C   0  0  0  0  0  0  0  0  0  0  0  0
  1  2  1  0  0  0
  2  3  2  0  0  0
  2  7  1  0  0  0
  3  4  1  0  0  0
  4  5  2  0  0  0
  4 18  1  0  0  0
  5  6  1  0  0  0
  5  8  1  0  0  0
  6  7  2  0  0  0
  8  9  2  0  0  0
  8 12  1  0  0  0
  9 10  1  0  0  0
 10 11  1  0  0  0
 11 12  1  0  0  0
 12 13  1  0  0  0
 13 14  2  0  0  0
 13 18  1  0  0  0
 14 15  1  0  0  0
 15 16  1  0  0  0
 15 19  1  0  0  0
 16 17  2  0  0  0
 16 18  1  0  0  0
 19 20  1  0  0  0
 20 21  2  0  0  0
 20 22  1  0  0  0
 22 23  1  0  0  0
 22 26  1  0  0  0
 23 24  1  0  0  0
 24 25  1  0  0  0
 25 26  1  0  0  0
M  END
> <minimizedAffinity>
-10.40516

$$$$
1806


 32 35  0  0  0  0  0  0  0  0999 V2000
   14.8563  -57.5237   37.5543 N   0  0  0  0  0  0  0  0  0  0  0  0
   13.7228  -58.1439   36.9000 C   0  0  0  0  0  0  0  0  0  0  0  0
   14.2293  -58.7291   35.5717 C   0  0  0  0  0  0  0  0  0  0  0  0
   15.5735  -58.3513   35.2991 N   0  0  0  0  0  0  0  0  0  0  0  0
   16.5458  -58.8278   36.2814 C   0  0  0  0  0  0  0  0  0  0  0  0
   16.0931  -58.2783   37.6130 C   0  0  0  0  0  0  0  0  0  0  0  0
   20.6166  -50.8278   36.3623 Cl  0  0  0  0  0  0  0  0  0  0  0  0
   19.4533  -52.1254   36.6269 C   0  0  0  0  0  0  0  0  0  0  0  0
   18.3825  -51.9923   37.4561 C   0  0  0  0  0  0  0  0  0  0  0  0
   17.4965  -53.0369   37.6328 C   0  0  0  0  0  0  0  0  0  0  0  0
   17.6792  -54.2267   36.9755 C   0  0  0  0  0  0  0  0  0  0  0  0
   18.7588  -54.3586   36.1411 C   0  0  0  0  0  0  0  0  0  0  0  0
   19.6484  -53.3141   35.9614 C   0  0  0  0  0  0  0  0  0  0  0  0
   16.7735  -55.3420   37.1370 N   0  0  0  0  0  0  0  0  0  0  0  0
   15.6474  -55.2499   37.9875 C   0  0  0  0  0  0  0  0  0  0  0  0
   14.8026  -56.2392   38.1598 C   0  0  0  0  0  0  0  0  0  0  0  0
   15.4355  -54.0046   38.6898 N   0  0  0  0  0  0  0  0  0  0  0  0
   16.3410  -52.9304   38.5121 C   0  0  0  0  0  0  0  0  0  0  0  0
   16.1744  -51.8194   39.1226 O   0  0  0  0  0  0  0  0  0  0  0  0
   16.9611  -56.2157   36.6151 H   0  0  0  0  0  0  0  0  0  0  0  0
   14.6186  -53.9014   39.3238 H   0  0  0  0  0  0  0  0  0  0  0  0
   16.0861  -57.5728   34.2316 C   0  0  0  0  0  0  0  0  0  0  0  0
   16.2897  -56.2210   34.4509 N   0  0  0  0  0  0  0  0  0  0  0  0
   16.7523  -55.3801   33.5280 C   0  0  0  0  0  0  0  0  0  0  0  0
   17.0450  -55.8784   32.2891 C   0  0  0  0  0  0  0  0  0  0  0  0
   16.8574  -57.2080   32.0363 C   0  0  0  0  0  0  0  0  0  0  0  0
   16.3691  -58.1035   33.0087 C   0  0  0  0  0  0  0  0  0  0  0  0
   16.2141  -59.4965   32.7187 C   0  0  0  0  0  0  0  0  0  0  0  0
   15.1867  -60.0357   32.3137 O   0  0  0  0  0  0  0  0  0  0  0  0
   17.3315  -60.3557   32.9077 N   0  0  0  0  0  0  0  0  0  0  0  0
   18.1719  -60.2822   32.2912 H   0  0  0  0  0  0  0  0  0  0  0  0
   17.3778  -61.0883   33.6499 H   0  0  0  0  0  0  0  0  0  0  0  0
  7  8  1  0  0  0
  8  9  2  0  0  0
  8 13  1  0  0  0
  9 10  1  0  0  0
 10 11  2  0  0  0
 10 18  1  0  0  0
 11 12  1  0  0  0
 11 14  1  0  0  0
 12 13  2  0  0  0
 14 15  1  0  0  0
 15 16  2  0  0  0
 15 17  1  0  0  0
 16  1  1  0  0  0
  1  2  1  0  0  0
  1  6  1  0  0  0
  2  3  1  0  0  0
  3  4  1  0  0  0
  4  5  1  0  0  0
  4 22  1  0  0  0
  5  6  1  0  0  0
 22 23  2  0  0  0
 22 27  1  0  0  0
 23 24  1  0  0  0
 24 25  2  0  0  0
 25 26  1  0  0  0
 26 27  2  0  0  0
 27 28  1  0  0  0
 28 29  2  0  0  0
 28 30  1  0  0  0
 17 18  1  0  0  0
 18 19  2  0  0  0
 14 20  1  0  0  0
 30 31  1  0  0  0
 30 32  1  0  0  0
 17 21  1  0  0  0
M  END
> <minimizedAffinity>
-9.68961

$$$$
1808


 24 28  0  0  0  0  0  0  0  0999 V2000
   15.9968  -57.2385   36.1383 N   0  0  0  0  0  0  0  0  0  0  0  0
   16.7255  -58.2652   35.4835 C   0  0  0  0  0  0  0  0  0  0  0  0
   17.9771  -58.3021   35.4075 O   0  0  0  0  0  0  0  0  0  0  0  0
   15.7700  -59.2577   34.9224 C   0  0  0  0  0  0  0  0  0  0  0  0
   15.4387  -58.9769   33.4892 C   0  0  0  0  0  0  0  0  0  0  0  0
   14.1115  -59.4577   33.4350 O   0  0  0  0  0  0  0  0  0  0  0  0
   13.5769  -58.5934   34.4235 C   0  0  0  0  0  0  0  0  0  0  0  0
   14.4352  -58.9311   35.5936 C   0  0  0  0  0  0  0  0  0  0  0  0
   14.6827  -57.7190   36.4198 C   0  0  0  0  0  0  0  0  0  0  0  0
   13.8721  -57.2287   37.2104 O   0  0  0  0  0  0  0  0  0  0  0  0
   14.0251  -57.2885   33.8713 C   0  0  0  0  0  0  0  0  0  0  0  0
   15.2220  -57.5287   33.3445 C   0  0  0  0  0  0  0  0  0  0  0  0
   18.3857  -51.7663   37.3504 Br  0  0  0  0  0  0  0  0  0  0  0  0
   17.6410  -53.4716   36.9830 C   0  0  0  0  0  0  0  0  0  0  0  0
   17.1185  -54.2180   38.0113 C   0  0  0  0  0  0  0  0  0  0  0  0
   16.5831  -55.4522   37.7155 C   0  0  0  0  0  0  0  0  0  0  0  0
   16.5591  -55.9536   36.4328 C   0  0  0  0  0  0  0  0  0  0  0  0
   17.0860  -55.2002   35.3927 C   0  0  0  0  0  0  0  0  0  0  0  0
   17.6269  -53.9492   35.6964 C   0  0  0  0  0  0  0  0  0  0  0  0
   16.3178  -59.6097   32.4982 C   0  0  0  0  0  0  0  0  0  0  0  0
   15.6556  -60.1503   31.4302 O   0  0  0  0  0  0  0  0  0  0  0  0
   15.7465  -61.5179   31.5004 C   0  0  0  0  0  0  0  0  0  0  0  0
   16.5473  -61.8260   32.7226 C   0  0  0  0  0  0  0  0  0  0  0  0
   17.1037  -60.5981   33.0627 O   0  0  0  0  0  0  0  0  0  0  0  0
 13 14  1  0  0  0
 14 15  2  0  0  0
 14 19  1  0  0  0
 15 16  1  0  0  0
 16 17  2  0  0  0
 17 18  1  0  0  0
 17  1  1  0  0  0
 18 19  2  0  0  0
  1  2  1  0  0  0
  1  9  1  0  0  0
  2  3  2  0  0  0
  2  4  1  0  0  0
  4  5  1  0  0  0
  4  8  1  0  0  0
  5  6  1  0  0  0
  5 12  1  0  0  0
  5 20  1  0  0  0
  6  7  1  0  0  0
  7  8  1  0  0  0
  7 11  1  0  0  0
  8  9  1  0  0  0
  9 10  2  0  0  0
 11 12  2  0  0  0
 20 21  1  0  0  0
 20 24  1  0  0  0
 21 22  1  0  0  0
 22 23  1  0  0  0
 23 24  1  0  0  0
M  END
> <minimizedAffinity>
-8.43716

$$$$
1810


 32 35  0  0  0  0  0  0  0  0999 V2000
   14.9714  -58.5526   34.1395 N   0  0  0  0  0  0  0  0  0  0  0  0
   14.3641  -57.5177   33.3412 C   0  0  0  0  0  0  0  0  0  0  0  0
   15.4678  -56.6192   32.8343 C   0  0  0  0  0  0  0  0  0  0  0  0
   16.7424  -57.2459   33.0735 N   0  0  0  0  0  0  0  0  0  0  0  0
   16.9484  -58.6718   32.8474 C   0  0  0  0  0  0  0  0  0  0  0  0
   15.6848  -59.4393   33.2428 C   0  0  0  0  0  0  0  0  0  0  0  0
   17.8213  -56.4778   33.5468 C   0  0  0  0  0  0  0  0  0  0  0  0
   18.9574  -57.0424   33.7152 O   0  0  0  0  0  0  0  0  0  0  0  0
   17.6452  -55.0317   33.8512 C   0  0  0  0  0  0  0  0  0  0  0  0
   17.5821  -54.7515   35.3251 C   0  0  0  0  0  0  0  0  0  0  0  0
   18.8862  -54.1957   35.6728 N   0  0  0  0  0  0  0  0  0  0  0  0
   19.7260  -54.1990   34.5335 C   0  0  0  0  0  0  0  0  0  0  0  0
   20.9798  -54.1808   34.5731 O   0  0  0  0  0  0  0  0  0  0  0  0
   18.8180  -54.2247   33.3668 C   0  0  0  0  0  0  0  0  0  0  0  0
   19.2522  -53.7230   36.9885 C   0  0  0  0  0  0  0  0  0  0  0  0
   18.0633  -53.5041   37.8462 C   0  0  0  0  0  0  0  0  0  0  0  0
   17.6095  -52.2103   38.0555 C   0  0  0  0  0  0  0  0  0  0  0  0
   16.5073  -51.9280   38.8445 C   0  0  0  0  0  0  0  0  0  0  0  0
   15.8606  -52.9972   39.4301 C   0  0  0  0  0  0  0  0  0  0  0  0
   16.2866  -54.3007   39.2422 C   0  0  0  0  0  0  0  0  0  0  0  0
   17.3996  -54.5552   38.4421 C   0  0  0  0  0  0  0  0  0  0  0  0
   18.4697  -50.9031   37.2887 Cl  0  0  0  0  0  0  0  0  0  0  0  0
   13.7988  -59.3882   35.0787 S   0  0  0  0  0  0  0  0  0  0  0  0
   14.0318  -60.8722   35.0637 O   0  0  0  0  0  0  0  0  0  0  0  0
   12.4634  -59.1731   34.3986 O   0  0  0  0  0  0  0  0  0  0  0  0
   13.7100  -58.7639   36.6976 C   0  0  0  0  0  0  0  0  0  0  0  0
   14.6110  -58.0223   37.4281 C   0  0  0  0  0  0  0  0  0  0  0  0
   14.0579  -57.7961   38.6590 N   0  0  0  0  0  0  0  0  0  0  0  0
   12.9079  -58.3567   38.6768 O   0  0  0  0  0  0  0  0  0  0  0  0
   12.6326  -58.9534   37.5419 C   0  0  0  0  0  0  0  0  0  0  0  0
   11.3696  -59.6799   37.2860 C   0  0  0  0  0  0  0  0  0  0  0  0
   15.9255  -57.5607   36.9428 C   0  0  0  0  0  0  0  0  0  0  0  0
 23 24  2  0  0  0
 23 25  2  0  0  0
 23  1  1  0  0  0
 23 26  1  0  0  0
  1  2  1  0  0  0
  1  6  1  0  0  0
  2  3  1  0  0  0
  3  4  1  0  0  0
  4  5  1  0  0  0
  4  7  1  0  0  0
  5  6  1  0  0  0
  7  8  2  0  0  0
  7  9  1  0  0  0
  9 10  1  0  0  0
  9 14  1  0  0  0
 10 11  1  0  0  0
 11 12  1  0  0  0
 11 15  1  0  0  0
 12 13  2  0  0  0
 12 14  1  0  0  0
 15 16  1  0  0  0
 16 17  2  0  0  0
 16 21  1  0  0  0
 17 18  1  0  0  0
 17 22  1  0  0  0
 18 19  2  0  0  0
 19 20  1  0  0  0
 20 21  2  0  0  0
 26 27  1  0  0  0
 26 30  2  0  0  0
 27 28  2  0  0  0
 27 32  1  0  0  0
 28 29  1  0  0  0
 29 30  1  0  0  0
 30 31  1  0  0  0
M  END
> <minimizedAffinity>
-9.85295

$$$$
1816


 36 39  0  0  0  0  0  0  0  0999 V2000
   13.8650  -58.7567   33.9585 C   0  0  0  0  0  0  0  0  0  0  0  0
   13.2509  -57.7478   33.4670 O   0  0  0  0  0  0  0  0  0  0  0  0
   13.1062  -59.7222   34.5959 N   0  0  0  0  0  0  0  0  0  0  0  0
   11.6849  -59.6436   34.7296 C   0  0  0  0  0  0  0  0  0  0  0  0
   11.3529  -59.6476   36.2231 C   0  0  0  0  0  0  0  0  0  0  0  0
   11.9297  -60.7970   36.8339 N   0  0  0  0  0  0  0  0  0  0  0  0
   12.7186  -61.6867   35.9551 C   0  0  0  0  0  0  0  0  0  0  0  0
   13.7363  -60.8882   35.1714 C   0  0  0  0  0  0  0  0  0  0  0  0
   11.8175  -61.1491   38.1955 C   0  0  0  0  0  0  0  0  0  0  0  0
   12.4446  -62.2803   38.5014 O   0  0  0  0  0  0  0  0  0  0  0  0
   11.1568  -60.5149   39.2962 C   0  0  0  0  0  0  0  0  0  0  0  0
   11.7132  -60.6222   40.5961 C   0  0  0  0  0  0  0  0  0  0  0  0
   11.1094  -60.0348   41.6756 C   0  0  0  0  0  0  0  0  0  0  0  0
   11.6242  -60.1455   42.8194 O   0  0  0  0  0  0  0  0  0  0  0  0
    9.9725  -59.3337   41.5755 N   0  0  0  0  0  0  0  0  0  0  0  0
    9.4487  -59.2328   40.3532 C   0  0  0  0  0  0  0  0  0  0  0  0
    8.3666  -58.5760   40.2043 O   0  0  0  0  0  0  0  0  0  0  0  0
   10.0312  -59.8115   39.2454 N   0  0  0  0  0  0  0  0  0  0  0  0
    9.3493  -58.7233   42.7271 C   0  0  0  0  0  0  0  0  0  0  0  0
    9.5455  -59.6700   38.3381 H   0  0  0  0  0  0  0  0  0  0  0  0
   15.3449  -58.7990   33.7992 C   0  0  0  0  0  0  0  0  0  0  0  0
   17.9635  -53.9902   39.2327 Cl  0  0  0  0  0  0  0  0  0  0  0  0
   17.6486  -54.4408   37.5726 C   0  0  0  0  0  0  0  0  0  0  0  0
   17.0498  -55.6509   37.2354 C   0  0  0  0  0  0  0  0  0  0  0  0
   16.8054  -56.0032   35.9301 C   0  0  0  0  0  0  0  0  0  0  0  0
   17.1654  -55.1265   34.9332 C   0  0  0  0  0  0  0  0  0  0  0  0
   17.7674  -53.9087   35.2769 C   0  0  0  0  0  0  0  0  0  0  0  0
   18.0135  -53.5562   36.5840 C   0  0  0  0  0  0  0  0  0  0  0  0
   16.9372  -55.4493   33.6832 O   0  0  0  0  0  0  0  0  0  0  0  0
   16.3771  -56.5813   33.3325 C   0  0  0  0  0  0  0  0  0  0  0  0
   16.1710  -56.8597   32.1039 O   0  0  0  0  0  0  0  0  0  0  0  0
   15.9737  -57.5403   34.2600 C   0  0  0  0  0  0  0  0  0  0  0  0
   16.2050  -57.2160   35.5776 C   0  0  0  0  0  0  0  0  0  0  0  0
   15.8229  -58.1378   36.6426 C   0  0  0  0  0  0  0  0  0  0  0  0
   18.6191  -52.3312   36.9195 O   0  0  0  0  0  0  0  0  0  0  0  0
   19.7737  -51.8677   36.2641 C   0  0  0  0  0  0  0  0  0  0  0  0
 22 23  1  0  0  0
 23 24  2  0  0  0
 23 28  1  0  0  0
 24 25  1  0  0  0
 25 26  2  0  0  0
 25 33  1  0  0  0
 26 27  1  0  0  0
 26 29  1  0  0  0
 27 28  2  0  0  0
 28 35  1  0  0  0
 35 36  1  0  0  0
 29 30  1  0  0  0
 30 31  2  0  0  0
 30 32  1  0  0  0
 32 33  2  0  0  0
 32 21  1  0  0  0
 33 34  1  0  0  0
 21  1  1  0  0  0
  1  2  2  0  0  0
  1  3  1  0  0  0
  3  4  1  0  0  0
  3  8  1  0  0  0
  4  5  1  0  0  0
  5  6  1  0  0  0
  6  7  1  0  0  0
  6  9  1  0  0  0
  7  8  1  0  0  0
  9 10  2  0  0  0
  9 11  1  0  0  0
 11 12  2  0  0  0
 11 18  1  0  0  0
 12 13  1  0  0  0
 13 14  2  0  0  0
 13 15  1  0  0  0
 15 16  1  0  0  0
 15 19  1  0  0  0
 16 17  2  0  0  0
 16 18  1  0  0  0
 18 20  1  0  0  0
M  END
> <minimizedAffinity>
-10.24961

$$$$
1822


 24 27  0  0  0  0  0  0  0  0999 V2000
   14.6960  -60.6808   31.9230 Cl  0  0  0  0  0  0  0  0  0  0  0  0
   14.9426  -59.8198   33.4387 C   0  0  0  0  0  0  0  0  0  0  0  0
   14.3810  -60.3372   34.5844 C   0  0  0  0  0  0  0  0  0  0  0  0
   14.5755  -59.6730   35.7346 N   0  0  0  0  0  0  0  0  0  0  0  0
   15.2980  -58.5245   35.8059 C   0  0  0  0  0  0  0  0  0  0  0  0
   15.8514  -58.0109   34.6945 N   0  0  0  0  0  0  0  0  0  0  0  0
   16.5009  -56.8963   35.0166 N   0  0  0  0  0  0  0  0  0  0  0  0
   16.3875  -56.6589   36.3390 C   0  0  0  0  0  0  0  0  0  0  0  0
   15.6345  -57.6874   36.8036 N   0  0  0  0  0  0  0  0  0  0  0  0
   15.6745  -58.6554   33.5151 C   0  0  0  0  0  0  0  0  0  0  0  0
   16.1977  -58.1714   32.4618 O   0  0  0  0  0  0  0  0  0  0  0  0
   13.5791  -61.6057   34.5227 C   0  0  0  0  0  0  0  0  0  0  0  0
   14.1501  -60.0612   36.6096 H   0  0  0  0  0  0  0  0  0  0  0  0
   16.9327  -55.5727   37.0831 N   0  0  0  0  0  0  0  0  0  0  0  0
   18.1552  -54.9035   36.8064 C   0  0  0  0  0  0  0  0  0  0  0  0
   18.8038  -54.8799   35.7285 O   0  0  0  0  0  0  0  0  0  0  0  0
   18.6089  -54.1780   38.0415 C   0  0  0  0  0  0  0  0  0  0  0  0
   17.4455  -54.1980   38.9673 C   0  0  0  0  0  0  0  0  0  0  0  0
   16.8669  -52.8292   39.2790 C   0  0  0  0  0  0  0  0  0  0  0  0
   16.6698  -52.1424   37.9622 C   0  0  0  0  0  0  0  0  0  0  0  0
   17.7296  -52.1184   37.1744 C   0  0  0  0  0  0  0  0  0  0  0  0
   18.9734  -52.7578   37.6661 C   0  0  0  0  0  0  0  0  0  0  0  0
   16.3991  -54.9328   38.2319 C   0  0  0  0  0  0  0  0  0  0  0  0
   15.1722  -54.9962   38.5697 O   0  0  0  0  0  0  0  0  0  0  0  0
  1  2  1  0  0  0
  2  3  2  0  0  0
  2 10  1  0  0  0
  3  4  1  0  0  0
  3 12  1  0  0  0
  4  5  1  0  0  0
  5  6  1  0  0  0
  5  9  2  0  0  0
  6  7  1  0  0  0
  6 10  1  0  0  0
  7  8  2  0  0  0
  8  9  1  0  0  0
  8 14  1  0  0  0
 14 15  1  0  0  0
 14 23  1  0  0  0
 15 16  2  0  0  0
 15 17  1  0  0  0
 17 18  1  0  0  0
 17 22  1  0  0  0
 18 19  1  0  0  0
 18 23  1  0  0  0
 19 20  1  0  0  0
 20 21  2  0  0  0
 21 22  1  0  0  0
 23 24  2  0  0  0
 10 11  2  0  0  0
  4 13  1  0  0  0
M  END
> <minimizedAffinity>
-9.80160

$$$$
1825


 29 32  0  0  0  0  0  0  0  0999 V2000
   15.9645  -55.7836   38.1051 N   0  0  0  0  0  0  0  0  0  0  0  0
   16.0608  -54.4415   38.3441 C   0  0  0  0  0  0  0  0  0  0  0  0
   16.7801  -53.8707   37.3636 N   0  0  0  0  0  0  0  0  0  0  0  0
   17.1669  -54.7919   36.4722 C   0  0  0  0  0  0  0  0  0  0  0  0
   16.6350  -55.9907   36.9699 C   0  0  0  0  0  0  0  0  0  0  0  0
   16.8849  -52.4371   37.6346 C   0  0  0  0  0  0  0  0  0  0  0  0
   16.4938  -52.2791   39.0918 C   0  0  0  0  0  0  0  0  0  0  0  0
   15.6001  -53.4415   39.3403 C   0  0  0  0  0  0  0  0  0  0  0  0
   17.9536  -54.7063   35.2526 C   0  0  0  0  0  0  0  0  0  0  0  0
   19.2175  -54.1848   35.2231 C   0  0  0  0  0  0  0  0  0  0  0  0
   19.9848  -54.1151   34.0749 C   0  0  0  0  0  0  0  0  0  0  0  0
   19.4939  -54.5817   32.8652 C   0  0  0  0  0  0  0  0  0  0  0  0
   18.2246  -55.1067   32.8930 C   0  0  0  0  0  0  0  0  0  0  0  0
   17.4580  -55.1765   34.0397 C   0  0  0  0  0  0  0  0  0  0  0  0
   20.2329  -54.5275   31.6954 O   0  0  0  0  0  0  0  0  0  0  0  0
   20.2488  -55.5795   30.7481 C   0  0  0  0  0  0  0  0  0  0  0  0
   15.2689  -56.7431   38.9750 C   0  0  0  0  0  0  0  0  0  0  0  0
   13.4372  -57.8388   37.6098 N   0  0  0  0  0  0  0  0  0  0  0  0
   14.7288  -57.8639   38.1109 C   0  0  0  0  0  0  0  0  0  0  0  0
   15.5226  -58.7868   37.8984 O   0  0  0  0  0  0  0  0  0  0  0  0
   12.8494  -56.9862   37.8594 H   0  0  0  0  0  0  0  0  0  0  0  0
   10.4049  -62.0042   37.4979 Cl  0  0  0  0  0  0  0  0  0  0  0  0
   11.4132  -60.7989   36.7256 C   0  0  0  0  0  0  0  0  0  0  0  0
   12.0278  -59.7991   37.4446 C   0  0  0  0  0  0  0  0  0  0  0  0
   12.8352  -58.8301   36.8100 C   0  0  0  0  0  0  0  0  0  0  0  0
   12.9645  -58.9521   35.4574 C   0  0  0  0  0  0  0  0  0  0  0  0
   12.3375  -59.9747   34.7176 C   0  0  0  0  0  0  0  0  0  0  0  0
   11.5577  -60.9007   35.3616 C   0  0  0  0  0  0  0  0  0  0  0  0
   11.8375  -59.7453   38.9046 C   0  0  0  0  0  0  0  0  0  0  0  0
 22 23  1  0  0  0
 23 24  2  0  0  0
 23 28  1  0  0  0
 24 25  1  0  0  0
 24 29  1  0  0  0
 25 26  2  0  0  0
 25 18  1  0  0  0
 26 27  1  0  0  0
 27 28  2  0  0  0
 18 19  1  0  0  0
 19 20  2  0  0  0
 19 17  1  0  0  0
 17  1  1  0  0  0
  1  2  1  0  0  0
  1  5  1  0  0  0
  2  3  2  0  0  0
  2  8  1  0  0  0
  3  4  1  0  0  0
  3  6  1  0  0  0
  4  5  2  0  0  0
  4  9  1  0  0  0
  9 10  2  0  0  0
  9 14  1  0  0  0
 10 11  1  0  0  0
 11 12  2  0  0  0
 12 13  1  0  0  0
 12 15  1  0  0  0
 13 14  2  0  0  0
 15 16  1  0  0  0
  6  7  1  0  0  0
  7  8  1  0  0  0
 18 21  1  0  0  0
M  END
> <minimizedAffinity>
-9.52739

$$$$
1835


 36 39  0  0  0  0  0  0  0  0999 V2000
   15.9918  -57.6866   36.0340 C   0  0  0  0  0  0  0  0  0  0  0  0
   16.3943  -57.7726   34.7565 N   0  0  0  0  0  0  0  0  0  0  0  0
   15.6321  -58.7243   34.1907 C   0  0  0  0  0  0  0  0  0  0  0  0
   15.5807  -59.2420   32.9394 N   0  0  0  0  0  0  0  0  0  0  0  0
   14.7079  -60.2131   32.6075 C   0  0  0  0  0  0  0  0  0  0  0  0
   13.8515  -60.6985   33.5322 N   0  0  0  0  0  0  0  0  0  0  0  0
   13.8417  -60.2360   34.7965 C   0  0  0  0  0  0  0  0  0  0  0  0
   14.7456  -59.2403   35.1118 C   0  0  0  0  0  0  0  0  0  0  0  0
   14.9928  -58.5715   36.2623 N   0  0  0  0  0  0  0  0  0  0  0  0
   12.9335  -60.7647   35.7421 N   0  0  0  0  0  0  0  0  0  0  0  0
   11.9091  -60.6895   35.6176 H   0  0  0  0  0  0  0  0  0  0  0  0
   13.3039  -61.2399   36.5842 H   0  0  0  0  0  0  0  0  0  0  0  0
   17.4125  -57.0458   34.0556 C   0  0  0  0  0  0  0  0  0  0  0  0
   18.1671  -57.8568   33.2118 O   0  0  0  0  0  0  0  0  0  0  0  0
   18.8216  -56.9058   32.4299 C   0  0  0  0  0  0  0  0  0  0  0  0
   17.6411  -56.1000   31.9086 C   0  0  0  0  0  0  0  0  0  0  0  0
   16.8089  -55.9717   33.1679 C   0  0  0  0  0  0  0  0  0  0  0  0
   17.0417  -54.6948   33.6832 O   0  0  0  0  0  0  0  0  0  0  0  0
   18.0359  -54.8627   31.4196 O   0  0  0  0  0  0  0  0  0  0  0  0
   17.6930  -54.7046   34.4130 H   0  0  0  0  0  0  0  0  0  0  0  0
   18.9874  -54.7307   31.6789 H   0  0  0  0  0  0  0  0  0  0  0  0
   19.6169  -57.5219   31.3108 C   0  0  0  0  0  0  0  0  0  0  0  0
   20.2509  -56.5923   30.5241 O   0  0  0  0  0  0  0  0  0  0  0  0
   19.8562  -55.6980   30.6176 H   0  0  0  0  0  0  0  0  0  0  0  0
   16.5254  -56.8037   37.0104 N   0  0  0  0  0  0  0  0  0  0  0  0
   16.6396  -57.1027   38.0081 H   0  0  0  0  0  0  0  0  0  0  0  0
   17.8083  -54.9379   37.4359 C   0  0  0  0  0  0  0  0  0  0  0  0
   16.9214  -55.5007   36.7006 N   0  0  0  0  0  0  0  0  0  0  0  0
   16.3419  -52.7743   38.8649 Cl  0  0  0  0  0  0  0  0  0  0  0  0
   17.6863  -52.4860   37.7851 C   0  0  0  0  0  0  0  0  0  0  0  0
   18.2816  -53.5737   37.1838 C   0  0  0  0  0  0  0  0  0  0  0  0
   19.3408  -53.3415   36.3332 C   0  0  0  0  0  0  0  0  0  0  0  0
   19.8047  -52.0576   36.0820 C   0  0  0  0  0  0  0  0  0  0  0  0
   19.2142  -50.9630   36.6795 C   0  0  0  0  0  0  0  0  0  0  0  0
   18.1550  -51.1952   37.5302 C   0  0  0  0  0  0  0  0  0  0  0  0
   20.1050  -54.7269   35.5626 Cl  0  0  0  0  0  0  0  0  0  0  0  0
 29 30  1  0  0  0
 30 31  2  0  0  0
 30 35  1  0  0  0
 31 32  1  0  0  0
 31 27  1  0  0  0
 32 33  2  0  0  0
 32 36  1  0  0  0
 33 34  1  0  0  0
 34 35  2  0  0  0
 27 28  2  0  0  0
 28 25  1  0  0  0
 25  1  1  0  0  0
  1  2  1  0  0  0
  1  9  2  0  0  0
  2  3  1  0  0  0
  2 13  1  0  0  0
  3  4  2  0  0  0
  3  8  1  0  0  0
  4  5  1  0  0  0
  5  6  2  0  0  0
  6  7  1  0  0  0
  7  8  2  0  0  0
  7 10  1  0  0  0
  8  9  1  0  0  0
 13 14  1  0  0  0
 13 17  1  0  0  0
 14 15  1  0  0  0
 15 16  1  0  0  0
 15 22  1  0  0  0
 16 17  1  0  0  0
 16 19  1  0  0  0
 17 18  1  0  0  0
 22 23  1  0  0  0
 25 26  1  0  0  0
 10 11  1  0  0  0
 10 12  1  0  0  0
 18 20  1  0  0  0
 19 21  1  0  0  0
 23 24  1  0  0  0
M  END
> <minimizedAffinity>
-10.18070

$$$$
1837


 29 32  0  0  0  0  0  0  0  0999 V2000
   15.3429  -56.9318   37.5303 N   0  0  0  0  0  0  0  0  0  0  0  0
   15.7454  -58.3319   37.7789 C   0  0  0  0  0  0  0  0  0  0  0  0
   16.4214  -58.7175   36.4467 C   0  0  0  0  0  0  0  0  0  0  0  0
   15.6096  -58.0061   35.4476 N   0  0  0  0  0  0  0  0  0  0  0  0
   14.2056  -57.9903   35.7120 C   0  0  0  0  0  0  0  0  0  0  0  0
   14.0072  -57.0284   36.8946 C   0  0  0  0  0  0  0  0  0  0  0  0
   16.2562  -57.4041   34.3587 C   0  0  0  0  0  0  0  0  0  0  0  0
   16.7251  -56.1223   34.4561 N   0  0  0  0  0  0  0  0  0  0  0  0
   17.3373  -55.4782   33.4632 C   0  0  0  0  0  0  0  0  0  0  0  0
   17.5172  -56.0958   32.2906 N   0  0  0  0  0  0  0  0  0  0  0  0
   17.1069  -57.3412   32.0745 C   0  0  0  0  0  0  0  0  0  0  0  0
   17.1559  -58.1758   31.0171 N   0  0  0  0  0  0  0  0  0  0  0  0
   16.5807  -59.2895   31.3940 N   0  0  0  0  0  0  0  0  0  0  0  0
   16.1661  -59.1989   32.6483 N   0  0  0  0  0  0  0  0  0  0  0  0
   16.4654  -58.0051   33.1249 C   0  0  0  0  0  0  0  0  0  0  0  0
   17.7191  -57.9375   29.7017 C   0  0  0  0  0  0  0  0  0  0  0  0
   17.5507  -59.1433   28.8034 C   0  0  0  0  0  0  0  0  0  0  0  0
   15.2108  -56.2083   38.7818 C   0  0  0  0  0  0  0  0  0  0  0  0
   16.8672  -54.7314   37.5375 N   0  0  0  0  0  0  0  0  0  0  0  0
   16.0154  -54.9386   38.6264 C   0  0  0  0  0  0  0  0  0  0  0  0
   15.9055  -54.0543   39.5133 O   0  0  0  0  0  0  0  0  0  0  0  0
   16.9453  -55.5388   36.8427 H   0  0  0  0  0  0  0  0  0  0  0  0
   20.3152  -50.0140   36.2292 Cl  0  0  0  0  0  0  0  0  0  0  0  0
   19.3113  -51.3962   36.6129 C   0  0  0  0  0  0  0  0  0  0  0  0
   19.5852  -52.6548   36.0973 C   0  0  0  0  0  0  0  0  0  0  0  0
   18.7824  -53.7200   36.4131 C   0  0  0  0  0  0  0  0  0  0  0  0
   17.6654  -53.6033   37.2540 C   0  0  0  0  0  0  0  0  0  0  0  0
   17.4151  -52.3539   37.7482 C   0  0  0  0  0  0  0  0  0  0  0  0
   18.2207  -51.2653   37.4373 C   0  0  0  0  0  0  0  0  0  0  0  0
 23 24  1  0  0  0
 24 25  2  0  0  0
 24 29  1  0  0  0
 25 26  1  0  0  0
 26 27  2  0  0  0
 27 28  1  0  0  0
 27 19  1  0  0  0
 28 29  2  0  0  0
 19 20  1  0  0  0
 20 21  2  0  0  0
 20 18  1  0  0  0
 18  1  1  0  0  0
  1  2  1  0  0  0
  1  6  1  0  0  0
  2  3  1  0  0  0
  3  4  1  0  0  0
  4  5  1  0  0  0
  4  7  1  0  0  0
  5  6  1  0  0  0
  7  8  2  0  0  0
  7 15  1  0  0  0
  8  9  1  0  0  0
  9 10  2  0  0  0
 10 11  1  0  0  0
 11 12  1  0  0  0
 11 15  2  0  0  0
 12 13  1  0  0  0
 12 16  1  0  0  0
 13 14  2  0  0  0
 14 15  1  0  0  0
 16 17  1  0  0  0
 19 22  1  0  0  0
M  END
> <minimizedAffinity>
-8.97543

$$$$
1846


 31 34  0  0  0  0  0  0  0  0999 V2000
   15.5811  -58.3388   34.7763 N   0  0  0  0  0  0  0  0  0  0  0  0
   15.9110  -58.3252   36.0866 C   0  0  0  0  0  0  0  0  0  0  0  0
   15.0201  -58.7193   37.0205 N   0  0  0  0  0  0  0  0  0  0  0  0
   13.7863  -59.1386   36.7164 C   0  0  0  0  0  0  0  0  0  0  0  0
   12.8927  -59.5331   37.6383 N   0  0  0  0  0  0  0  0  0  0  0  0
   11.6485  -59.9576   37.3600 C   0  0  0  0  0  0  0  0  0  0  0  0
   11.2966  -59.9793   36.0456 N   0  0  0  0  0  0  0  0  0  0  0  0
   12.1589  -59.5937   35.0917 C   0  0  0  0  0  0  0  0  0  0  0  0
   13.4336  -59.1596   35.3888 C   0  0  0  0  0  0  0  0  0  0  0  0
   14.3343  -58.7591   34.4231 C   0  0  0  0  0  0  0  0  0  0  0  0
   13.9529  -58.8007   33.2274 O   0  0  0  0  0  0  0  0  0  0  0  0
   10.7357  -60.3642   38.3619 N   0  0  0  0  0  0  0  0  0  0  0  0
   11.0912  -61.4816   39.2053 C   0  0  0  0  0  0  0  0  0  0  0  0
   10.6441  -61.1813   40.6348 C   0  0  0  0  0  0  0  0  0  0  0  0
    9.3233  -60.7406   40.6806 O   0  0  0  0  0  0  0  0  0  0  0  0
    9.3031  -59.4793   40.0847 C   0  0  0  0  0  0  0  0  0  0  0  0
    9.4639  -59.7159   38.5828 C   0  0  0  0  0  0  0  0  0  0  0  0
   16.4634  -57.9378   33.7265 C   0  0  0  0  0  0  0  0  0  0  0  0
   17.0989  -55.5685   34.3573 N   0  0  0  0  0  0  0  0  0  0  0  0
   17.4652  -56.9120   34.1784 C   0  0  0  0  0  0  0  0  0  0  0  0
   18.6173  -57.3269   34.3795 O   0  0  0  0  0  0  0  0  0  0  0  0
   16.0790  -55.2902   34.1612 H   0  0  0  0  0  0  0  0  0  0  0  0
   17.9699  -51.9224   37.8315 Cl  0  0  0  0  0  0  0  0  0  0  0  0
   18.4833  -52.8061   36.4094 C   0  0  0  0  0  0  0  0  0  0  0  0
   19.6795  -52.5084   35.8023 C   0  0  0  0  0  0  0  0  0  0  0  0
   20.0062  -53.2474   34.6922 C   0  0  0  0  0  0  0  0  0  0  0  0
   19.1925  -54.2583   34.1766 C   0  0  0  0  0  0  0  0  0  0  0  0
   17.9974  -54.5629   34.7752 C   0  0  0  0  0  0  0  0  0  0  0  0
   17.6755  -53.7971   35.9113 C   0  0  0  0  0  0  0  0  0  0  0  0
   20.5224  -51.5007   36.2908 O   0  0  0  0  0  0  0  0  0  0  0  0
   20.2450  -50.1505   35.9983 C   0  0  0  0  0  0  0  0  0  0  0  0
 23 24  1  0  0  0
 24 25  2  0  0  0
 24 29  1  0  0  0
 25 26  1  0  0  0
 25 30  1  0  0  0
 26 27  2  0  0  0
 27 28  1  0  0  0
 28 29  2  0  0  0
 28 19  1  0  0  0
 19 20  1  0  0  0
 20 21  2  0  0  0
 20 18  1  0  0  0
 18  1  1  0  0  0
  1  2  1  0  0  0
  1 10  1  0  0  0
  2  3  2  0  0  0
  3  4  1  0  0  0
  4  5  2  0  0  0
  4  9  1  0  0  0
  5  6  1  0  0  0
  6  7  2  0  0  0
  6 12  1  0  0  0
  7  8  1  0  0  0
  8  9  2  0  0  0
  9 10  1  0  0  0
 10 11  2  0  0  0
 12 13  1  0  0  0
 12 17  1  0  0  0
 13 14  1  0  0  0
 14 15  1  0  0  0
 15 16  1  0  0  0
 16 17  1  0  0  0
 30 31  1  0  0  0
 19 22  1  0  0  0
M  END
> <minimizedAffinity>
-8.89045

$$$$
1850


 24 27  0  0  0  0  0  0  0  0999 V2000
   19.9675  -51.1842   36.3378 Cl  0  0  0  0  0  0  0  0  0  0  0  0
   19.3385  -52.7688   35.9084 C   0  0  0  0  0  0  0  0  0  0  0  0
   18.5229  -53.4588   36.7829 C   0  0  0  0  0  0  0  0  0  0  0  0
   18.0334  -54.6905   36.4501 C   0  0  0  0  0  0  0  0  0  0  0  0
   18.3745  -55.2214   35.2269 C   0  0  0  0  0  0  0  0  0  0  0  0
   19.1873  -54.5503   34.3396 C   0  0  0  0  0  0  0  0  0  0  0  0
   19.6761  -53.3067   34.6852 C   0  0  0  0  0  0  0  0  0  0  0  0
   17.1530  -55.4919   37.3334 C   0  0  0  0  0  0  0  0  0  0  0  0
   16.7896  -54.6519   38.4485 N   0  0  0  0  0  0  0  0  0  0  0  0
   17.8549  -53.9023   39.0719 C   0  0  0  0  0  0  0  0  0  0  0  0
   18.2182  -52.7902   38.0807 C   0  0  0  0  0  0  0  0  0  0  0  0
   15.4631  -54.5473   38.9283 C   0  0  0  0  0  0  0  0  0  0  0  0
   15.2127  -53.7950   39.9064 O   0  0  0  0  0  0  0  0  0  0  0  0
   14.3230  -55.2866   38.3373 C   0  0  0  0  0  0  0  0  0  0  0  0
   14.4909  -56.6679   38.4188 O   0  0  0  0  0  0  0  0  0  0  0  0
   14.0718  -57.5628   37.4430 C   0  0  0  0  0  0  0  0  0  0  0  0
   14.3493  -57.3041   36.1507 N   0  0  0  0  0  0  0  0  0  0  0  0
   13.9755  -58.1209   35.1693 N   0  0  0  0  0  0  0  0  0  0  0  0
   13.2998  -59.2544   35.3994 C   0  0  0  0  0  0  0  0  0  0  0  0
   13.0600  -59.8719   34.2261 N   0  0  0  0  0  0  0  0  0  0  0  0
   13.5851  -59.1204   33.2892 N   0  0  0  0  0  0  0  0  0  0  0  0
   14.1561  -58.0358   33.8388 C   0  0  0  0  0  0  0  0  0  0  0  0
   12.9955  -59.5543   36.7225 C   0  0  0  0  0  0  0  0  0  0  0  0
   13.3808  -58.7118   37.7371 C   0  0  0  0  0  0  0  0  0  0  0  0
  1  2  1  0  0  0
  2  3  2  0  0  0
  2  7  1  0  0  0
  3  4  1  0  0  0
  3 11  1  0  0  0
  4  5  2  0  0  0
  4  8  1  0  0  0
  5  6  1  0  0  0
  6  7  2  0  0  0
  8  9  1  0  0  0
  9 10  1  0  0  0
  9 12  1  0  0  0
 10 11  1  0  0  0
 12 13  2  0  0  0
 12 14  1  0  0  0
 14 15  1  0  0  0
 15 16  1  0  0  0
 16 17  2  0  0  0
 16 24  1  0  0  0
 17 18  1  0  0  0
 18 19  1  0  0  0
 18 22  1  0  0  0
 19 20  2  0  0  0
 19 23  1  0  0  0
 20 21  1  0  0  0
 21 22  2  0  0  0
 23 24  2  0  0  0
M  END
> <minimizedAffinity>
-9.55398

$$$$
1852


 26 29  0  0  0  0  0  0  0  0999 V2000
   13.9188  -58.7967   34.5773 S   0  0  0  0  0  0  0  0  0  0  0  0
   13.0880  -58.5156   33.3714 O   0  0  0  0  0  0  0  0  0  0  0  0
   14.1619  -60.2806   34.6640 O   0  0  0  0  0  0  0  0  0  0  0  0
   15.4588  -57.9810   34.4385 C   0  0  0  0  0  0  0  0  0  0  0  0
   15.6075  -56.9087   33.5815 C   0  0  0  0  0  0  0  0  0  0  0  0
   16.8046  -56.2292   33.4343 C   0  0  0  0  0  0  0  0  0  0  0  0
   17.9110  -56.6205   34.1658 C   0  0  0  0  0  0  0  0  0  0  0  0
   17.7554  -57.6856   35.0153 C   0  0  0  0  0  0  0  0  0  0  0  0
   16.5653  -58.3646   35.1645 C   0  0  0  0  0  0  0  0  0  0  0  0
   19.0888  -55.9117   33.9890 O   0  0  0  0  0  0  0  0  0  0  0  0
   19.3968  -55.1917   32.8085 C   0  0  0  0  0  0  0  0  0  0  0  0
   18.1775  -54.6576   32.1050 C   0  0  0  0  0  0  0  0  0  0  0  0
   16.9645  -55.1598   32.5839 O   0  0  0  0  0  0  0  0  0  0  0  0
   13.0738  -58.3257   36.0012 N   0  0  0  0  0  0  0  0  0  0  0  0
   13.7424  -57.2866   36.7190 C   0  0  0  0  0  0  0  0  0  0  0  0
   13.8224  -57.7126   38.1748 C   0  0  0  0  0  0  0  0  0  0  0  0
   13.8154  -59.2225   38.0547 C   0  0  0  0  0  0  0  0  0  0  0  0
   12.8307  -59.4133   36.8951 C   0  0  0  0  0  0  0  0  0  0  0  0
   15.0889  -57.3125   38.6704 O   0  0  0  0  0  0  0  0  0  0  0  0
   15.5631  -56.0196   38.5175 C   0  0  0  0  0  0  0  0  0  0  0  0
   14.9551  -55.0679   39.2833 N   0  0  0  0  0  0  0  0  0  0  0  0
   15.3942  -53.8049   39.1570 C   0  0  0  0  0  0  0  0  0  0  0  0
   16.4152  -53.4563   38.2957 C   0  0  0  0  0  0  0  0  0  0  0  0
   16.9934  -54.4621   37.5452 C   0  0  0  0  0  0  0  0  0  0  0  0
   16.5522  -55.7318   37.6734 N   0  0  0  0  0  0  0  0  0  0  0  0
   16.9769  -51.8045   38.1406 Cl  0  0  0  0  0  0  0  0  0  0  0  0
  1  2  2  0  0  0
  1  3  2  0  0  0
  1 14  1  0  0  0
  1  4  1  0  0  0
 14 15  1  0  0  0
 14 18  1  0  0  0
 15 16  1  0  0  0
 16 17  1  0  0  0
 16 19  1  0  0  0
 17 18  1  0  0  0
 19 20  1  0  0  0
 20 21  2  0  0  0
 20 25  1  0  0  0
 21 22  1  0  0  0
 22 23  2  0  0  0
 23 24  1  0  0  0
 23 26  1  0  0  0
 24 25  2  0  0  0
  4  5  2  0  0  0
  4  9  1  0  0  0
  5  6  1  0  0  0
  6  7  2  0  0  0
  6 13  1  0  0  0
  7  8  1  0  0  0
  7 10  1  0  0  0
  8  9  2  0  0  0
 10 11  1  0  0  0
 11 12  1  0  0  0
 12 13  1  0  0  0
M  END
> <minimizedAffinity>
-8.43314

$$$$
1856


 31 34  0  0  0  0  0  0  0  0999 V2000
   13.7461  -57.2895   38.3694 C   0  0  0  0  0  0  0  0  0  0  0  0
   14.1111  -57.3942   37.0823 N   0  0  0  0  0  0  0  0  0  0  0  0
   13.8805  -58.4927   36.3160 C   0  0  0  0  0  0  0  0  0  0  0  0
   13.2390  -59.5104   36.9493 N   0  0  0  0  0  0  0  0  0  0  0  0
   12.8507  -59.4639   38.2330 C   0  0  0  0  0  0  0  0  0  0  0  0
   13.1115  -58.3558   38.9146 N   0  0  0  0  0  0  0  0  0  0  0  0
   12.1866  -60.5615   38.8283 N   0  0  0  0  0  0  0  0  0  0  0  0
   11.9232  -61.8028   38.1294 C   0  0  0  0  0  0  0  0  0  0  0  0
   11.9102  -62.9516   39.1143 C   0  0  0  0  0  0  0  0  0  0  0  0
   11.0127  -62.7918   40.1360 O   0  0  0  0  0  0  0  0  0  0  0  0
   10.5417  -61.4920   40.2702 C   0  0  0  0  0  0  0  0  0  0  0  0
   11.7130  -60.5153   40.2153 C   0  0  0  0  0  0  0  0  0  0  0  0
   14.2762  -58.5698   34.9672 N   0  0  0  0  0  0  0  0  0  0  0  0
   13.9043  -57.5444   34.0391 C   0  0  0  0  0  0  0  0  0  0  0  0
   15.1804  -57.0619   33.3702 C   0  0  0  0  0  0  0  0  0  0  0  0
   15.7615  -58.1785   32.7501 O   0  0  0  0  0  0  0  0  0  0  0  0
   16.2348  -59.0709   33.7122 C   0  0  0  0  0  0  0  0  0  0  0  0
   15.0570  -59.6708   34.4901 C   0  0  0  0  0  0  0  0  0  0  0  0
   14.0101  -56.1187   39.1286 N   0  0  0  0  0  0  0  0  0  0  0  0
   13.6590  -56.0178   40.1014 H   0  0  0  0  0  0  0  0  0  0  0  0
   16.0600  -55.1205   38.7058 C   0  0  0  0  0  0  0  0  0  0  0  0
   14.7505  -55.0630   38.5964 N   0  0  0  0  0  0  0  0  0  0  0  0
   19.8430  -53.6945   35.2625 Br  0  0  0  0  0  0  0  0  0  0  0  0
   18.5725  -53.3209   36.6353 C   0  0  0  0  0  0  0  0  0  0  0  0
   17.8040  -54.3197   37.1542 C   0  0  0  0  0  0  0  0  0  0  0  0
   16.8708  -54.0410   38.1648 C   0  0  0  0  0  0  0  0  0  0  0  0
   16.7519  -52.7527   38.6108 C   0  0  0  0  0  0  0  0  0  0  0  0
   17.5466  -51.7281   38.0713 C   0  0  0  0  0  0  0  0  0  0  0  0
   18.4521  -52.0248   37.0849 C   0  0  0  0  0  0  0  0  0  0  0  0
   15.8505  -52.4202   39.6027 O   0  0  0  0  0  0  0  0  0  0  0  0
   15.2376  -53.0674   40.0545 H   0  0  0  0  0  0  0  0  0  0  0  0
 23 24  1  0  0  0
 24 25  2  0  0  0
 24 29  1  0  0  0
 25 26  1  0  0  0
 26 27  2  0  0  0
 26 21  1  0  0  0
 27 28  1  0  0  0
 27 30  1  0  0  0
 28 29  2  0  0  0
 21 22  2  0  0  0
 22 19  1  0  0  0
 19  1  1  0  0  0
  1  2  2  0  0  0
  1  6  1  0  0  0
  2  3  1  0  0  0
  3  4  2  0  0  0
  3 13  1  0  0  0
  4  5  1  0  0  0
  5  6  2  0  0  0
  5  7  1  0  0  0
  7  8  1  0  0  0
  7 12  1  0  0  0
  8  9  1  0  0  0
  9 10  1  0  0  0
 10 11  1  0  0  0
 11 12  1  0  0  0
 13 14  1  0  0  0
 13 18  1  0  0  0
 14 15  1  0  0  0
 15 16  1  0  0  0
 16 17  1  0  0  0
 17 18  1  0  0  0
 30 31  1  0  0  0
 19 20  1  0  0  0
M  END
> <minimizedAffinity>
-9.75935

$$$$
1863


 33 36  0  0  0  0  0  0  0  0999 V2000
   17.7566  -55.7318   33.5076 N   0  0  0  0  0  0  0  0  0  0  0  0
   18.6988  -55.6097   32.5325 C   0  0  0  0  0  0  0  0  0  0  0  0
   18.9213  -56.8577   32.0131 C   0  0  0  0  0  0  0  0  0  0  0  0
   18.1181  -57.6846   32.6812 N   0  0  0  0  0  0  0  0  0  0  0  0
   17.3895  -57.0115   33.6114 C   0  0  0  0  0  0  0  0  0  0  0  0
   19.8341  -56.9907   31.0352 N   0  0  0  0  0  0  0  0  0  0  0  0
   20.5324  -55.9242   30.5606 C   0  0  0  0  0  0  0  0  0  0  0  0
   21.3976  -56.0402   29.6362 O   0  0  0  0  0  0  0  0  0  0  0  0
   20.3366  -54.6887   31.0512 N   0  0  0  0  0  0  0  0  0  0  0  0
   19.4295  -54.5373   32.0260 C   0  0  0  0  0  0  0  0  0  0  0  0
   19.2722  -53.3753   32.4625 O   0  0  0  0  0  0  0  0  0  0  0  0
   20.1068  -58.2818   30.4602 C   0  0  0  0  0  0  0  0  0  0  0  0
   20.8847  -53.8566   30.6765 H   0  0  0  0  0  0  0  0  0  0  0  0
   16.4603  -57.6326   34.5238 N   0  0  0  0  0  0  0  0  0  0  0  0
   17.0258  -58.0629   35.7817 C   0  0  0  0  0  0  0  0  0  0  0  0
   16.0100  -58.6277   36.7415 C   0  0  0  0  0  0  0  0  0  0  0  0
   14.8987  -57.7483   36.7680 N   0  0  0  0  0  0  0  0  0  0  0  0
   14.2240  -57.6934   35.5143 C   0  0  0  0  0  0  0  0  0  0  0  0
   15.0744  -57.8519   34.2885 C   0  0  0  0  0  0  0  0  0  0  0  0
   15.2679  -56.4730   37.2965 C   0  0  0  0  0  0  0  0  0  0  0  0
   14.5033  -56.0752   38.5147 C   0  0  0  0  0  0  0  0  0  0  0  0
   14.5854  -54.9628   39.0589 O   0  0  0  0  0  0  0  0  0  0  0  0
   13.6364  -57.0884   39.0439 N   0  0  0  0  0  0  0  0  0  0  0  0
   13.9931  -57.8454   39.6696 H   0  0  0  0  0  0  0  0  0  0  0  0
   12.6491  -57.0619   38.7982 H   0  0  0  0  0  0  0  0  0  0  0  0
   17.2540  -54.6253   34.2511 C   0  0  0  0  0  0  0  0  0  0  0  0
   16.9604  -52.4172   38.9805 Cl  0  0  0  0  0  0  0  0  0  0  0  0
   17.8283  -53.2880   37.7190 C   0  0  0  0  0  0  0  0  0  0  0  0
   17.2717  -53.6243   36.5173 C   0  0  0  0  0  0  0  0  0  0  0  0
   17.9676  -54.3248   35.5202 C   0  0  0  0  0  0  0  0  0  0  0  0
   19.2572  -54.6726   35.7850 C   0  0  0  0  0  0  0  0  0  0  0  0
   19.8270  -54.3327   37.0032 C   0  0  0  0  0  0  0  0  0  0  0  0
   19.1345  -53.6436   37.9782 C   0  0  0  0  0  0  0  0  0  0  0  0
 27 28  1  0  0  0
 28 29  2  0  0  0
 28 33  1  0  0  0
 29 30  1  0  0  0
 30 31  2  0  0  0
 30 26  1  0  0  0
 31 32  1  0  0  0
 32 33  2  0  0  0
 26  1  1  0  0  0
  1  2  1  0  0  0
  1  5  1  0  0  0
  2  3  2  0  0  0
  2 10  1  0  0  0
  3  4  1  0  0  0
  3  6  1  0  0  0
  4  5  2  0  0  0
  5 14  1  0  0  0
 14 15  1  0  0  0
 14 19  1  0  0  0
 15 16  1  0  0  0
 16 17  1  0  0  0
 17 18  1  0  0  0
 17 20  1  0  0  0
 18 19  1  0  0  0
 20 21  1  0  0  0
 21 22  2  0  0  0
 21 23  1  0  0  0
  6  7  1  0  0  0
  6 12  1  0  0  0
  7  8  2  0  0  0
  7  9  1  0  0  0
  9 10  1  0  0  0
 10 11  2  0  0  0
 23 24  1  0  0  0
 23 25  1  0  0  0
  9 13  1  0  0  0
M  END
> <minimizedAffinity>
-9.42642

$$$$
1865


 29 32  0  0  0  0  0  0  0  0999 V2000
   19.6629  -54.5886   34.9506 N   0  0  0  0  0  0  0  0  0  0  0  0
   19.8323  -53.6755   33.8558 C   0  0  0  0  0  0  0  0  0  0  0  0
   20.2496  -52.4757   33.9684 O   0  0  0  0  0  0  0  0  0  0  0  0
   19.4625  -54.3286   32.6443 N   0  0  0  0  0  0  0  0  0  0  0  0
   18.6103  -55.4280   33.0393 C   0  0  0  0  0  0  0  0  0  0  0  0
   17.2359  -54.8457   33.3112 C   0  0  0  0  0  0  0  0  0  0  0  0
   16.4890  -55.8912   34.1316 C   0  0  0  0  0  0  0  0  0  0  0  0
   16.6242  -57.1966   33.5138 N   0  0  0  0  0  0  0  0  0  0  0  0
   17.2685  -57.3163   32.2326 C   0  0  0  0  0  0  0  0  0  0  0  0
   18.5297  -56.5320   32.0745 C   0  0  0  0  0  0  0  0  0  0  0  0
   16.1157  -58.3451   34.1741 C   0  0  0  0  0  0  0  0  0  0  0  0
   16.2417  -59.4883   33.6291 O   0  0  0  0  0  0  0  0  0  0  0  0
   19.1853  -55.7933   34.3579 C   0  0  0  0  0  0  0  0  0  0  0  0
   19.2725  -56.9199   34.9164 O   0  0  0  0  0  0  0  0  0  0  0  0
   19.7424  -54.0723   31.6790 H   0  0  0  0  0  0  0  0  0  0  0  0
   15.4440  -58.2990   35.4616 C   0  0  0  0  0  0  0  0  0  0  0  0
   14.1127  -58.1290   35.5815 N   0  0  0  0  0  0  0  0  0  0  0  0
   13.5569  -58.0957   36.8052 C   0  0  0  0  0  0  0  0  0  0  0  0
   14.2993  -58.2300   37.9590 C   0  0  0  0  0  0  0  0  0  0  0  0
   15.6251  -58.3992   37.8438 N   0  0  0  0  0  0  0  0  0  0  0  0
   16.1922  -58.4339   36.6076 C   0  0  0  0  0  0  0  0  0  0  0  0
   19.9160  -54.3573   36.3536 C   0  0  0  0  0  0  0  0  0  0  0  0
   15.2506  -54.5235   38.7332 Cl  0  0  0  0  0  0  0  0  0  0  0  0
   16.6563  -53.6687   38.1296 C   0  0  0  0  0  0  0  0  0  0  0  0
   17.7061  -54.3045   37.5000 C   0  0  0  0  0  0  0  0  0  0  0  0
   18.8121  -53.6383   37.0242 C   0  0  0  0  0  0  0  0  0  0  0  0
   18.8975  -52.2731   37.1727 C   0  0  0  0  0  0  0  0  0  0  0  0
   17.8535  -51.6182   37.8025 C   0  0  0  0  0  0  0  0  0  0  0  0
   16.7503  -52.2989   38.2749 C   0  0  0  0  0  0  0  0  0  0  0  0
 23 24  1  0  0  0
 24 25  2  0  0  0
 24 29  1  0  0  0
 25 26  1  0  0  0
 26 27  2  0  0  0
 26 22  1  0  0  0
 27 28  1  0  0  0
 28 29  2  0  0  0
 22  1  1  0  0  0
  1  2  1  0  0  0
  1 13  1  0  0  0
  2  3  2  0  0  0
  2  4  1  0  0  0
  4  5  1  0  0  0
  5  6  1  0  0  0
  5 10  1  0  0  0
  5 13  1  0  0  0
  6  7  1  0  0  0
  7  8  1  0  0  0
  8  9  1  0  0  0
  8 11  1  0  0  0
  9 10  1  0  0  0
 11 12  2  0  0  0
 11 16  1  0  0  0
 16 17  2  0  0  0
 16 21  1  0  0  0
 17 18  1  0  0  0
 18 19  2  0  0  0
 19 20  1  0  0  0
 20 21  2  0  0  0
 13 14  2  0  0  0
  4 15  1  0  0  0
M  END
> <minimizedAffinity>
-10.11447

$$$$
1871


 28 31  0  0  0  0  0  0  0  0999 V2000
   18.3486  -57.6979   34.0747 C   0  0  0  0  0  0  0  0  0  0  0  0
   18.8844  -56.4162   33.8292 N   0  0  0  0  0  0  0  0  0  0  0  0
   18.9320  -56.1562   32.4527 C   0  0  0  0  0  0  0  0  0  0  0  0
   19.3684  -55.2703   31.5913 C   0  0  0  0  0  0  0  0  0  0  0  0
   19.1679  -55.4361   30.1473 C   0  0  0  0  0  0  0  0  0  0  0  0
   18.1881  -56.3911   29.6446 C   0  0  0  0  0  0  0  0  0  0  0  0
   17.5297  -57.2546   30.6917 C   0  0  0  0  0  0  0  0  0  0  0  0
   18.3244  -57.3411   31.8645 N   0  0  0  0  0  0  0  0  0  0  0  0
   18.7667  -58.3951   32.7686 C   0  0  0  0  0  0  0  0  0  0  0  0
   18.0848  -59.6649   32.4743 C   0  0  0  0  0  0  0  0  0  0  0  0
   19.0653  -58.3244   35.0682 O   0  0  0  0  0  0  0  0  0  0  0  0
   19.9717  -56.5946   34.0212 H   0  0  0  0  0  0  0  0  0  0  0  0
   18.5885  -58.9762   35.6141 H   0  0  0  0  0  0  0  0  0  0  0  0
   12.4310  -58.3184   34.7933 Cl  0  0  0  0  0  0  0  0  0  0  0  0
   14.1685  -58.1566   34.6196 C   0  0  0  0  0  0  0  0  0  0  0  0
   15.0526  -58.8179   35.4606 C   0  0  0  0  0  0  0  0  0  0  0  0
   16.4194  -58.6385   35.2561 C   0  0  0  0  0  0  0  0  0  0  0  0
   16.9057  -57.8350   34.2586 C   0  0  0  0  0  0  0  0  0  0  0  0
   16.0280  -57.1729   33.4177 C   0  0  0  0  0  0  0  0  0  0  0  0
   14.6740  -57.3496   33.6193 C   0  0  0  0  0  0  0  0  0  0  0  0
   18.6423  -55.4164   34.7656 C   0  0  0  0  0  0  0  0  0  0  0  0
   19.7171  -54.9932   35.5303 C   0  0  0  0  0  0  0  0  0  0  0  0
   19.6093  -54.0223   36.4964 C   0  0  0  0  0  0  0  0  0  0  0  0
   18.3933  -53.3891   36.7736 C   0  0  0  0  0  0  0  0  0  0  0  0
   17.3459  -53.8284   36.0025 C   0  0  0  0  0  0  0  0  0  0  0  0
   17.4615  -54.7993   35.0386 C   0  0  0  0  0  0  0  0  0  0  0  0
   18.2976  -52.4111   37.7446 O   0  0  0  0  0  0  0  0  0  0  0  0
   17.0720  -52.2012   38.3996 C   0  0  0  0  0  0  0  0  0  0  0  0
 14 15  1  0  0  0
 15 16  2  0  0  0
 15 20  1  0  0  0
 16 17  1  0  0  0
 17 18  2  0  0  0
 18 19  1  0  0  0
 18  1  1  0  0  0
 19 20  2  0  0  0
  1  2  1  0  0  0
  1  9  1  0  0  0
  1 11  1  0  0  0
  2  3  1  0  0  0
  2 21  1  0  0  0
  3  4  2  0  0  0
  3  8  1  0  0  0
  4  5  1  0  0  0
  5  6  1  0  0  0
  6  7  1  0  0  0
  7  8  1  0  0  0
  8  9  1  0  0  0
  9 10  1  0  0  0
 21 22  2  0  0  0
 21 26  1  0  0  0
 22 23  1  0  0  0
 23 24  2  0  0  0
 24 25  1  0  0  0
 24 27  1  0  0  0
 25 26  2  0  0  0
 27 28  1  0  0  0
  2 12  1  0  0  0
 11 13  1  0  0  0
M  CHG 1   2   1
M  END
> <minimizedAffinity>
-6.79107

$$$$
1893


 28 31  0  0  0  0  0  0  0  0999 V2000
   16.4142  -57.1629   33.9921 N   0  0  0  0  0  0  0  0  0  0  0  0
   17.1770  -56.6134   34.9662 C   0  0  0  0  0  0  0  0  0  0  0  0
   17.0427  -56.8681   36.1917 O   0  0  0  0  0  0  0  0  0  0  0  0
   18.1125  -55.7434   34.4318 C   0  0  0  0  0  0  0  0  0  0  0  0
   17.9199  -55.7605   33.1225 C   0  0  0  0  0  0  0  0  0  0  0  0
   18.8331  -54.9116   32.6051 N   0  0  0  0  0  0  0  0  0  0  0  0
   19.5595  -54.3958   33.6060 N   0  0  0  0  0  0  0  0  0  0  0  0
   19.1188  -54.9070   34.7439 N   0  0  0  0  0  0  0  0  0  0  0  0
   16.8821  -56.6278   32.8513 C   0  0  0  0  0  0  0  0  0  0  0  0
   16.4597  -56.8627   31.6977 O   0  0  0  0  0  0  0  0  0  0  0  0
   18.9461  -54.6983   31.5969 H   0  0  0  0  0  0  0  0  0  0  0  0
   20.3425  -53.7108   33.5473 H   0  0  0  0  0  0  0  0  0  0  0  0
   11.9442  -61.0440   34.6962 Cl  0  0  0  0  0  0  0  0  0  0  0  0
   13.2908  -59.9182   34.4880 C   0  0  0  0  0  0  0  0  0  0  0  0
   14.5900  -60.3747   34.4118 C   0  0  0  0  0  0  0  0  0  0  0  0
   15.6016  -59.4460   34.2486 C   0  0  0  0  0  0  0  0  0  0  0  0
   15.3638  -58.0904   34.1595 C   0  0  0  0  0  0  0  0  0  0  0  0
   14.0505  -57.6725   34.2395 C   0  0  0  0  0  0  0  0  0  0  0  0
   13.0006  -58.5716   34.4037 C   0  0  0  0  0  0  0  0  0  0  0  0
   19.6194  -54.6270   36.0730 C   0  0  0  0  0  0  0  0  0  0  0  0
   18.8200  -53.6036   36.7911 C   0  0  0  0  0  0  0  0  0  0  0  0
   17.7276  -53.8892   37.5795 C   0  0  0  0  0  0  0  0  0  0  0  0
   16.9873  -52.9339   38.2468 C   0  0  0  0  0  0  0  0  0  0  0  0
   17.3489  -51.6140   38.1263 C   0  0  0  0  0  0  0  0  0  0  0  0
   18.4339  -51.2830   37.3490 C   0  0  0  0  0  0  0  0  0  0  0  0
   19.1593  -52.2618   36.6900 C   0  0  0  0  0  0  0  0  0  0  0  0
   15.8923  -53.3332   39.0233 O   0  0  0  0  0  0  0  0  0  0  0  0
   15.3109  -54.6130   38.8769 C   0  0  0  0  0  0  0  0  0  0  0  0
 13 14  1  0  0  0
 14 15  2  0  0  0
 14 19  1  0  0  0
 15 16  1  0  0  0
 16 17  2  0  0  0
 17 18  1  0  0  0
 17  1  1  0  0  0
 18 19  2  0  0  0
  1  2  1  0  0  0
  1  9  1  0  0  0
  2  3  2  0  0  0
  2  4  1  0  0  0
  4  5  2  0  0  0
  4  8  1  0  0  0
  5  6  1  0  0  0
  5  9  1  0  0  0
  6  7  1  0  0  0
  7  8  1  0  0  0
  8 20  1  0  0  0
 20 21  1  0  0  0
 21 22  2  0  0  0
 21 26  1  0  0  0
 22 23  1  0  0  0
 23 24  2  0  0  0
 23 27  1  0  0  0
 24 25  1  0  0  0
 25 26  2  0  0  0
 27 28  1  0  0  0
  9 10  2  0  0  0
  6 11  1  0  0  0
  7 12  1  0  0  0
M  END
> <minimizedAffinity>
-9.50600

$$$$
1894


 26 29  0  0  0  0  0  0  0  0999 V2000
   16.5064  -57.0655   33.9047 N   0  0  0  0  0  0  0  0  0  0  0  0
   17.3231  -56.5347   34.8424 C   0  0  0  0  0  0  0  0  0  0  0  0
   17.2147  -56.7501   36.0678 O   0  0  0  0  0  0  0  0  0  0  0  0
   18.2864  -55.7273   34.2615 C   0  0  0  0  0  0  0  0  0  0  0  0
   18.0503  -55.7686   32.9422 C   0  0  0  0  0  0  0  0  0  0  0  0
   18.9915  -54.9840   32.3883 N   0  0  0  0  0  0  0  0  0  0  0  0
   19.7671  -54.4865   33.3343 N   0  0  0  0  0  0  0  0  0  0  0  0
   19.3454  -54.9354   34.4969 N   0  0  0  0  0  0  0  0  0  0  0  0
   16.9612  -56.5892   32.7391 C   0  0  0  0  0  0  0  0  0  0  0  0
   16.4632  -56.8532   31.6104 O   0  0  0  0  0  0  0  0  0  0  0  0
   19.1191  -54.7782   31.3759 H   0  0  0  0  0  0  0  0  0  0  0  0
   20.5934  -53.8339   33.1910 H   0  0  0  0  0  0  0  0  0  0  0  0
   11.8302  -60.7407   34.7732 Cl  0  0  0  0  0  0  0  0  0  0  0  0
   13.2050  -59.6688   34.5192 C   0  0  0  0  0  0  0  0  0  0  0  0
   13.0264  -58.3175   34.3111 C   0  0  0  0  0  0  0  0  0  0  0  0
   14.1035  -57.4748   34.1117 C   0  0  0  0  0  0  0  0  0  0  0  0
   15.4006  -57.9423   34.1116 C   0  0  0  0  0  0  0  0  0  0  0  0
   15.5697  -59.2987   34.3220 C   0  0  0  0  0  0  0  0  0  0  0  0
   14.4988  -60.1483   34.5217 C   0  0  0  0  0  0  0  0  0  0  0  0
   19.8992  -54.6402   35.7975 C   0  0  0  0  0  0  0  0  0  0  0  0
   19.2412  -53.5066   36.4820 C   0  0  0  0  0  0  0  0  0  0  0  0
   19.6135  -52.2201   36.1781 C   0  0  0  0  0  0  0  0  0  0  0  0
   18.9910  -51.1803   36.8293 C   0  0  0  0  0  0  0  0  0  0  0  0
   18.0068  -51.4058   37.7748 C   0  0  0  0  0  0  0  0  0  0  0  0
   17.6332  -52.6948   38.0807 C   0  0  0  0  0  0  0  0  0  0  0  0
   18.2613  -53.7169   37.4243 C   0  0  0  0  0  0  0  0  0  0  0  0
 13 14  1  0  0  0
 14 15  2  0  0  0
 14 19  1  0  0  0
 15 16  1  0  0  0
 16 17  2  0  0  0
 17 18  1  0  0  0
 17  1  1  0  0  0
 18 19  2  0  0  0
  1  2  1  0  0  0
  1  9  1  0  0  0
  2  3  2  0  0  0
  2  4  1  0  0  0
  4  5  2  0  0  0
  4  8  1  0  0  0
  5  6  1  0  0  0
  5  9  1  0  0  0
  6  7  1  0  0  0
  7  8  1  0  0  0
  8 20  1  0  0  0
 20 21  1  0  0  0
 21 22  2  0  0  0
 21 26  1  0  0  0
 22 23  1  0  0  0
 23 24  2  0  0  0
 24 25  1  0  0  0
 25 26  2  0  0  0
  9 10  2  0  0  0
  6 11  1  0  0  0
  7 12  1  0  0  0
M  END
> <minimizedAffinity>
-9.51312

$$$$
1895


 32 35  0  0  0  0  0  0  0  0999 V2000
   15.1869  -59.1336   34.4385 N   0  0  0  0  0  0  0  0  0  0  0  0
   15.6571  -57.8853   34.8989 C   0  0  0  0  0  0  0  0  0  0  0  0
   17.1445  -58.0627   35.2692 C   0  0  0  0  0  0  0  0  0  0  0  0
   17.7838  -58.2542   33.9925 N   0  0  0  0  0  0  0  0  0  0  0  0
   17.3801  -59.5235   33.3489 C   0  0  0  0  0  0  0  0  0  0  0  0
   15.9564  -59.8619   33.5199 C   0  0  0  0  0  0  0  0  0  0  0  0
   18.6892  -57.4332   33.3231 C   0  0  0  0  0  0  0  0  0  0  0  0
   19.0641  -57.9248   32.1578 O   0  0  0  0  0  0  0  0  0  0  0  0
   13.4966  -59.2246   34.2145 S   0  0  0  0  0  0  0  0  0  0  0  0
   12.9112  -58.0753   33.4938 O   0  0  0  0  0  0  0  0  0  0  0  0
   13.1948  -60.4851   33.4398 O   0  0  0  0  0  0  0  0  0  0  0  0
   12.7609  -59.3670   35.8204 C   0  0  0  0  0  0  0  0  0  0  0  0
   13.3843  -58.9447   37.3479 S   0  0  0  0  0  0  0  0  0  0  0  0
   12.0628  -59.4013   38.3189 C   0  0  0  0  0  0  0  0  0  0  0  0
   11.1561  -59.8789   37.4092 C   0  0  0  0  0  0  0  0  0  0  0  0
   11.5239  -59.8586   36.1160 C   0  0  0  0  0  0  0  0  0  0  0  0
   11.8987  -59.2875   40.0781 Cl  0  0  0  0  0  0  0  0  0  0  0  0
   19.3108  -56.1658   33.6084 C   0  0  0  0  0  0  0  0  0  0  0  0
   18.6071  -55.2316   34.4332 N   0  0  0  0  0  0  0  0  0  0  0  0
   17.3071  -54.7017   34.1683 C   0  0  0  0  0  0  0  0  0  0  0  0
   16.6216  -54.9972   33.1312 O   0  0  0  0  0  0  0  0  0  0  0  0
   16.9596  -53.8361   35.2278 N   0  0  0  0  0  0  0  0  0  0  0  0
   17.8437  -54.1137   36.3492 C   0  0  0  0  0  0  0  0  0  0  0  0
   18.2422  -52.9086   37.1266 C   0  0  0  0  0  0  0  0  0  0  0  0
   18.4055  -53.3355   38.5894 C   0  0  0  0  0  0  0  0  0  0  0  0
   17.0015  -53.5517   39.1206 C   0  0  0  0  0  0  0  0  0  0  0  0
   16.2292  -54.4066   38.1458 C   0  0  0  0  0  0  0  0  0  0  0  0
   17.1566  -55.1571   37.2010 C   0  0  0  0  0  0  0  0  0  0  0  0
   19.5697  -52.3171   36.7122 C   0  0  0  0  0  0  0  0  0  0  0  0
   19.0512  -54.6752   35.6727 C   0  0  0  0  0  0  0  0  0  0  0  0
   20.2212  -54.6648   36.1016 O   0  0  0  0  0  0  0  0  0  0  0  0
   16.2139  -53.1235   35.2316 H   0  0  0  0  0  0  0  0  0  0  0  0
  9 10  2  0  0  0
  9 11  2  0  0  0
  9  1  1  0  0  0
  9 12  1  0  0  0
  1  2  1  0  0  0
  1  6  1  0  0  0
  2  3  1  0  0  0
  3  4  1  0  0  0
  4  5  1  0  0  0
  4  7  1  0  0  0
  5  6  1  0  0  0
  7  8  2  0  0  0
  7 18  1  0  0  0
 18 19  1  0  0  0
 19 20  1  0  0  0
 19 30  1  0  0  0
 20 21  2  0  0  0
 20 22  1  0  0  0
 22 23  1  0  0  0
 23 24  1  0  0  0
 23 28  1  0  0  0
 23 30  1  0  0  0
 24 25  1  0  0  0
 24 29  1  0  0  0
 25 26  1  0  0  0
 26 27  1  0  0  0
 27 28  1  0  0  0
 30 31  2  0  0  0
 12 13  1  0  0  0
 12 16  2  0  0  0
 13 14  1  0  0  0
 14 15  2  0  0  0
 14 17  1  0  0  0
 15 16  1  0  0  0
 22 32  1  0  0  0
M  END
> <minimizedAffinity>
-10.30415

$$$$
1906


 33 36  0  0  0  0  0  0  0  0999 V2000
   17.9647  -55.8874   33.7378 C   0  0  0  0  0  0  0  0  0  0  0  0
   17.9526  -54.8463   32.7982 O   0  0  0  0  0  0  0  0  0  0  0  0
   18.9397  -54.9201   31.8541 C   0  0  0  0  0  0  0  0  0  0  0  0
   18.7570  -56.0437   30.8539 C   0  0  0  0  0  0  0  0  0  0  0  0
   18.2342  -57.1673   31.6733 N   0  0  0  0  0  0  0  0  0  0  0  0
   18.5856  -57.1114   33.0396 C   0  0  0  0  0  0  0  0  0  0  0  0
   17.4773  -58.1338   31.0443 C   0  0  0  0  0  0  0  0  0  0  0  0
   17.2381  -58.0513   29.7691 O   0  0  0  0  0  0  0  0  0  0  0  0
   16.9012  -59.2749   31.6876 C   0  0  0  0  0  0  0  0  0  0  0  0
   15.7904  -59.8809   31.2680 N   0  0  0  0  0  0  0  0  0  0  0  0
   15.2427  -60.9561   31.8683 C   0  0  0  0  0  0  0  0  0  0  0  0
   15.8498  -61.4880   32.9947 C   0  0  0  0  0  0  0  0  0  0  0  0
   16.9551  -60.9132   33.4401 N   0  0  0  0  0  0  0  0  0  0  0  0
   17.4837  -59.8419   32.8263 C   0  0  0  0  0  0  0  0  0  0  0  0
   15.2036  -62.6711   33.6145 C   0  0  0  0  0  0  0  0  0  0  0  0
   18.9523  -55.4757   34.7920 C   0  0  0  0  0  0  0  0  0  0  0  0
   18.8052  -54.3564   35.4638 O   0  0  0  0  0  0  0  0  0  0  0  0
   15.3275  -53.7679   39.1275 Cl  0  0  0  0  0  0  0  0  0  0  0  0
   16.6758  -53.2142   38.1345 C   0  0  0  0  0  0  0  0  0  0  0  0
   17.1956  -54.0468   37.1811 C   0  0  0  0  0  0  0  0  0  0  0  0
   18.2442  -53.6426   36.3952 C   0  0  0  0  0  0  0  0  0  0  0  0
   18.7573  -52.3486   36.6123 C   0  0  0  0  0  0  0  0  0  0  0  0
   18.2295  -51.5375   37.5615 C   0  0  0  0  0  0  0  0  0  0  0  0
   17.1807  -51.9444   38.3441 C   0  0  0  0  0  0  0  0  0  0  0  0
   16.5930  -56.1296   34.1752 C   0  0  0  0  0  0  0  0  0  0  0  0
   16.3425  -57.2081   35.1332 C   0  0  0  0  0  0  0  0  0  0  0  0
   17.0721  -57.3620   36.1308 O   0  0  0  0  0  0  0  0  0  0  0  0
   15.2601  -58.1177   34.9605 N   0  0  0  0  0  0  0  0  0  0  0  0
   14.3542  -58.0164   33.8214 C   0  0  0  0  0  0  0  0  0  0  0  0
   12.9445  -58.1118   34.3654 C   0  0  0  0  0  0  0  0  0  0  0  0
   12.8092  -59.3186   35.0586 O   0  0  0  0  0  0  0  0  0  0  0  0
   13.5520  -59.2399   36.2359 C   0  0  0  0  0  0  0  0  0  0  0  0
   15.0079  -59.1872   35.9035 C   0  0  0  0  0  0  0  0  0  0  0  0
 18 19  1  0  0  0
 19 20  2  0  0  0
 19 24  1  0  0  0
 20 21  1  0  0  0
 21 22  2  0  0  0
 21 17  1  0  0  0
 22 23  1  0  0  0
 23 24  2  0  0  0
 17 16  1  0  0  0
 16  1  1  0  0  0
  1  2  1  0  0  0
  1  6  1  0  0  0
  1 25  1  0  0  0
  2  3  1  0  0  0
  3  4  1  0  0  0
  4  5  1  0  0  0
  5  6  1  0  0  0
  5  7  1  0  0  0
  7  8  2  0  0  0
  7  9  1  0  0  0
  9 10  2  0  0  0
  9 14  1  0  0  0
 10 11  1  0  0  0
 11 12  2  0  0  0
 12 13  1  0  0  0
 12 15  1  0  0  0
 13 14  2  0  0  0
 25 26  1  0  0  0
 26 27  2  0  0  0
 26 28  1  0  0  0
 28 29  1  0  0  0
 28 33  1  0  0  0
 29 30  1  0  0  0
 30 31  1  0  0  0
 31 32  1  0  0  0
 32 33  1  0  0  0
M  END
> <minimizedAffinity>
-9.31253

$$$$
1913


 29 32  0  0  0  0  0  0  0  0999 V2000
   17.8642  -53.9102   36.5664 N   0  0  0  0  0  0  0  0  0  0  0  0
   16.9497  -52.8171   36.8044 C   0  0  0  0  0  0  0  0  0  0  0  0
   17.1207  -52.1785   38.1565 C   0  0  0  0  0  0  0  0  0  0  0  0
   17.2464  -53.2388   39.1946 C   0  0  0  0  0  0  0  0  0  0  0  0
   18.4857  -54.0319   38.9602 C   0  0  0  0  0  0  0  0  0  0  0  0
   18.7643  -54.4199   37.5544 C   0  0  0  0  0  0  0  0  0  0  0  0
   15.6317  -57.0569   33.2636 Cl  0  0  0  0  0  0  0  0  0  0  0  0
   16.8942  -55.9542   33.7040 C   0  0  0  0  0  0  0  0  0  0  0  0
   17.8745  -55.6838   32.8400 N   0  0  0  0  0  0  0  0  0  0  0  0
   18.8717  -54.8426   33.1282 C   0  0  0  0  0  0  0  0  0  0  0  0
   19.9265  -54.4253   32.4391 N   0  0  0  0  0  0  0  0  0  0  0  0
   20.5678  -53.5742   33.2504 C   0  0  0  0  0  0  0  0  0  0  0  0
   19.9468  -53.4420   34.4297 N   0  0  0  0  0  0  0  0  0  0  0  0
   18.8635  -54.2345   34.3917 C   0  0  0  0  0  0  0  0  0  0  0  0
   17.8630  -54.5038   35.2873 C   0  0  0  0  0  0  0  0  0  0  0  0
   16.8836  -55.3770   34.9091 N   0  0  0  0  0  0  0  0  0  0  0  0
   20.2133  -52.8460   35.2483 H   0  0  0  0  0  0  0  0  0  0  0  0
   16.0253  -54.0316   39.3469 C   0  0  0  0  0  0  0  0  0  0  0  0
   14.9764  -53.4497   39.7169 O   0  0  0  0  0  0  0  0  0  0  0  0
   15.9691  -55.4186   39.0989 N   0  0  0  0  0  0  0  0  0  0  0  0
   16.8555  -55.9109   38.7851 H   0  0  0  0  0  0  0  0  0  0  0  0
   14.7716  -56.2132   39.2452 C   0  0  0  0  0  0  0  0  0  0  0  0
   14.0961  -56.5312   37.9423 C   0  0  0  0  0  0  0  0  0  0  0  0
   13.9696  -57.9656   37.7562 N   0  0  0  0  0  0  0  0  0  0  0  0
   14.5141  -58.4184   36.5207 C   0  0  0  0  0  0  0  0  0  0  0  0
   13.4067  -58.8411   35.5765 C   0  0  0  0  0  0  0  0  0  0  0  0
   12.7611  -59.9131   36.1404 O   0  0  0  0  0  0  0  0  0  0  0  0
   12.2902  -59.7338   37.4138 C   0  0  0  0  0  0  0  0  0  0  0  0
   12.6840  -58.4655   38.0880 C   0  0  0  0  0  0  0  0  0  0  0  0
  7  8  1  0  0  0
  8  9  2  0  0  0
  8 16  1  0  0  0
  9 10  1  0  0  0
 10 11  1  0  0  0
 10 14  2  0  0  0
 11 12  2  0  0  0
 12 13  1  0  0  0
 13 14  1  0  0  0
 14 15  1  0  0  0
 15 16  2  0  0  0
 15  1  1  0  0  0
  1  2  1  0  0  0
  1  6  1  0  0  0
  2  3  1  0  0  0
  3  4  1  0  0  0
  4  5  1  0  0  0
  4 18  1  0  0  0
  5  6  1  0  0  0
 18 19  2  0  0  0
 18 20  1  0  0  0
 20 22  1  0  0  0
 22 23  1  0  0  0
 23 24  1  0  0  0
 24 25  1  0  0  0
 24 29  1  0  0  0
 25 26  1  0  0  0
 26 27  1  0  0  0
 27 28  1  0  0  0
 28 29  1  0  0  0
 13 17  1  0  0  0
 20 21  1  0  0  0
M  END
> <minimizedAffinity>
-8.71529

$$$$
1927


 36 39  0  0  0  0  0  0  0  0999 V2000
   16.6531  -59.2129   33.2771 C   0  0  0  0  0  0  0  0  0  0  0  0
   19.3757  -56.5296   29.7131 C   0  0  0  0  0  0  0  0  0  0  0  0
   19.3143  -56.6345   31.2352 C   0  0  0  0  0  0  0  0  0  0  0  0
   17.8368  -56.7980   31.5268 C   0  0  0  0  0  0  0  0  0  0  0  0
   17.3779  -58.0575   31.0571 N   0  0  0  0  0  0  0  0  0  0  0  0
   17.5793  -58.3210   29.6082 C   0  0  0  0  0  0  0  0  0  0  0  0
   18.8437  -57.7508   29.0613 C   0  0  0  0  0  0  0  0  0  0  0  0
   16.7818  -59.0524   31.8209 C   0  0  0  0  0  0  0  0  0  0  0  0
   16.2205  -60.0271   31.1527 O   0  0  0  0  0  0  0  0  0  0  0  0
   18.4527  -55.4746   29.4227 O   0  0  0  0  0  0  0  0  0  0  0  0
   17.9956  -55.7296   28.5833 H   0  0  0  0  0  0  0  0  0  0  0  0
   24.7171  -54.5696   27.5862 Cl  0  0  0  0  0  0  0  0  0  0  0  0
   23.1617  -55.1437   28.2424 C   0  0  0  0  0  0  0  0  0  0  0  0
   21.9725  -54.8030   27.6446 C   0  0  0  0  0  0  0  0  0  0  0  0
   20.7579  -55.2601   28.1556 C   0  0  0  0  0  0  0  0  0  0  0  0
   20.6897  -56.0810   29.2890 C   0  0  0  0  0  0  0  0  0  0  0  0
   21.8985  -56.4010   29.8590 C   0  0  0  0  0  0  0  0  0  0  0  0
   23.1088  -55.9548   29.3641 C   0  0  0  0  0  0  0  0  0  0  0  0
   16.6736  -58.0613   34.0673 N   0  0  0  0  0  0  0  0  0  0  0  0
   17.8126  -57.5751   34.7799 C   0  0  0  0  0  0  0  0  0  0  0  0
   18.8474  -58.2851   34.6751 O   0  0  0  0  0  0  0  0  0  0  0  0
   15.8368  -57.4218   34.1276 H   0  0  0  0  0  0  0  0  0  0  0  0
   17.7497  -56.3606   35.5457 C   0  0  0  0  0  0  0  0  0  0  0  0
   18.4050  -55.2522   35.4378 C   0  0  0  0  0  0  0  0  0  0  0  0
   19.4097  -55.0273   34.4460 N   0  0  0  0  0  0  0  0  0  0  0  0
   20.0938  -53.7987   34.3366 N   0  0  0  0  0  0  0  0  0  0  0  0
   19.8104  -52.7296   35.2101 C   0  0  0  0  0  0  0  0  0  0  0  0
   20.4457  -51.6433   35.0756 O   0  0  0  0  0  0  0  0  0  0  0  0
   18.7974  -52.9141   36.2309 C   0  0  0  0  0  0  0  0  0  0  0  0
   18.1258  -54.1098   36.3440 C   0  0  0  0  0  0  0  0  0  0  0  0
   17.1672  -54.1957   37.3126 C   0  0  0  0  0  0  0  0  0  0  0  0
   16.8543  -53.1333   38.1688 C   0  0  0  0  0  0  0  0  0  0  0  0
   17.5500  -51.9656   38.0159 C   0  0  0  0  0  0  0  0  0  0  0  0
   18.5376  -51.8297   37.0435 C   0  0  0  0  0  0  0  0  0  0  0  0
   19.6708  -55.7793   33.7642 H   0  0  0  0  0  0  0  0  0  0  0  0
   20.8210  -53.6635   33.5960 H   0  0  0  0  0  0  0  0  0  0  0  0
 12 13  1  0  0  0
 13 14  2  0  0  0
 13 18  1  0  0  0
 14 15  1  0  0  0
 15 16  2  0  0  0
 16 17  1  0  0  0
 16  2  1  0  0  0
 17 18  2  0  0  0
  2  3  1  0  0  0
  2  7  1  0  0  0
  2 10  1  0  0  0
  3  4  1  0  0  0
  4  5  1  0  0  0
  5  6  1  0  0  0
  5  8  1  0  0  0
  6  7  1  0  0  0
  8  9  2  0  0  0
  8  1  1  0  0  0
  1 19  1  0  0  0
 19 20  1  0  0  0
 20 21  2  0  0  0
 20 23  1  0  0  0
 23 24  2  0  0  0
 24 25  1  0  0  0
 24 30  1  0  0  0
 25 26  1  0  0  0
 26 27  1  0  0  0
 27 28  2  0  0  0
 27 29  1  0  0  0
 29 30  2  0  0  0
 29 34  1  0  0  0
 30 31  1  0  0  0
 31 32  2  0  0  0
 32 33  1  0  0  0
 33 34  2  0  0  0
 19 22  1  0  0  0
 25 35  1  0  0  0
 26 36  1  0  0  0
 10 11  1  0  0  0
M  END
> <minimizedAffinity>
-11.02937

$$$$
1928


 28 31  0  0  0  0  0  0  0  0999 V2000
   14.0393  -57.9051   37.6408 N   0  0  0  0  0  0  0  0  0  0  0  0
   13.0051  -58.7663   37.5447 C   0  0  0  0  0  0  0  0  0  0  0  0
   12.6283  -59.2802   36.3300 C   0  0  0  0  0  0  0  0  0  0  0  0
   13.3649  -58.8835   35.1248 C   0  0  0  0  0  0  0  0  0  0  0  0
   12.7861  -59.5324   34.0913 N   0  0  0  0  0  0  0  0  0  0  0  0
   11.7901  -60.2686   34.5403 N   0  0  0  0  0  0  0  0  0  0  0  0
   11.6490  -60.1584   35.8695 C   0  0  0  0  0  0  0  0  0  0  0  0
   10.8030  -60.7240   36.6029 O   0  0  0  0  0  0  0  0  0  0  0  0
   14.4145  -58.0016   35.2728 C   0  0  0  0  0  0  0  0  0  0  0  0
   14.6947  -57.5577   36.5350 C   0  0  0  0  0  0  0  0  0  0  0  0
   11.1909  -60.8615   33.9373 H   0  0  0  0  0  0  0  0  0  0  0  0
   15.1721  -57.5830   34.0938 C   0  0  0  0  0  0  0  0  0  0  0  0
   14.6458  -56.8818   33.2185 O   0  0  0  0  0  0  0  0  0  0  0  0
   16.4940  -57.9588   33.9237 O   0  0  0  0  0  0  0  0  0  0  0  0
   16.9010  -59.2763   33.6399 C   0  0  0  0  0  0  0  0  0  0  0  0
   14.3967  -57.3879   38.9629 C   0  0  0  0  0  0  0  0  0  0  0  0
   16.2062  -54.3117   38.3020 C   0  0  0  0  0  0  0  0  0  0  0  0
   15.1852  -53.9328   39.0853 N   0  0  0  0  0  0  0  0  0  0  0  0
   14.4519  -54.9595   39.3952 O   0  0  0  0  0  0  0  0  0  0  0  0
   14.9602  -56.0297   38.8349 C   0  0  0  0  0  0  0  0  0  0  0  0
   16.0635  -55.6354   38.1448 N   0  0  0  0  0  0  0  0  0  0  0  0
   20.4399  -50.6503   36.0701 Cl  0  0  0  0  0  0  0  0  0  0  0  0
   19.2098  -51.7223   36.7178 C   0  0  0  0  0  0  0  0  0  0  0  0
   19.2180  -53.0763   36.4359 C   0  0  0  0  0  0  0  0  0  0  0  0
   18.2403  -53.9038   36.9551 C   0  0  0  0  0  0  0  0  0  0  0  0
   17.2313  -53.4304   37.7607 C   0  0  0  0  0  0  0  0  0  0  0  0
   17.2175  -52.0801   38.0446 C   0  0  0  0  0  0  0  0  0  0  0  0
   18.1930  -51.2409   37.5301 C   0  0  0  0  0  0  0  0  0  0  0  0
 22 23  1  0  0  0
 23 24  2  0  0  0
 23 28  1  0  0  0
 24 25  1  0  0  0
 25 26  2  0  0  0
 26 27  1  0  0  0
 26 17  1  0  0  0
 27 28  2  0  0  0
 17 18  2  0  0  0
 17 21  1  0  0  0
 18 19  1  0  0  0
 19 20  1  0  0  0
 20 21  2  0  0  0
 20 16  1  0  0  0
 16  1  1  0  0  0
  1  2  1  0  0  0
  1 10  1  0  0  0
  2  3  2  0  0  0
  3  4  1  0  0  0
  3  7  1  0  0  0
  4  5  2  0  0  0
  4  9  1  0  0  0
  5  6  1  0  0  0
  6  7  1  0  0  0
  7  8  2  0  0  0
  9 10  2  0  0  0
  9 12  1  0  0  0
 12 13  2  0  0  0
 12 14  1  0  0  0
 14 15  1  0  0  0
  6 11  1  0  0  0
M  END
> <minimizedAffinity>
-10.15685

$$$$
1930


 34 37  0  0  0  0  0  0  0  0999 V2000
   18.0243  -57.8465   32.1663 C   0  0  0  0  0  0  0  0  0  0  0  0
   17.5066  -58.2677   31.1001 O   0  0  0  0  0  0  0  0  0  0  0  0
   17.6326  -58.4042   33.3971 N   0  0  0  0  0  0  0  0  0  0  0  0
   16.6345  -59.4699   33.4949 C   0  0  0  0  0  0  0  0  0  0  0  0
   15.4678  -58.8595   34.2456 C   0  0  0  0  0  0  0  0  0  0  0  0
   15.9159  -58.2964   35.5739 C   0  0  0  0  0  0  0  0  0  0  0  0
   17.4015  -58.5958   35.8065 C   0  0  0  0  0  0  0  0  0  0  0  0
   18.1874  -57.9692   34.6671 C   0  0  0  0  0  0  0  0  0  0  0  0
   15.8384  -56.8825   35.6049 O   0  0  0  0  0  0  0  0  0  0  0  0
   15.1087  -58.7810   36.7400 C   0  0  0  0  0  0  0  0  0  0  0  0
   15.9714  -56.6272   36.5506 H   0  0  0  0  0  0  0  0  0  0  0  0
   14.3114  -59.6817   34.3092 N   0  0  0  0  0  0  0  0  0  0  0  0
   14.4003  -61.0249   34.5381 C   0  0  0  0  0  0  0  0  0  0  0  0
   13.2791  -61.8249   34.5993 C   0  0  0  0  0  0  0  0  0  0  0  0
   12.0341  -61.2620   34.4265 C   0  0  0  0  0  0  0  0  0  0  0  0
   10.9706  -61.9688   34.4759 O   0  0  0  0  0  0  0  0  0  0  0  0
   11.9546  -59.9391   34.2011 N   0  0  0  0  0  0  0  0  0  0  0  0
   13.0927  -59.1881   34.1489 C   0  0  0  0  0  0  0  0  0  0  0  0
   12.9567  -57.9624   33.9363 O   0  0  0  0  0  0  0  0  0  0  0  0
   13.3405  -63.2869   34.8467 C   0  0  0  0  0  0  0  0  0  0  0  0
   11.0193  -59.5110   34.0709 H   0  0  0  0  0  0  0  0  0  0  0  0
   19.0379  -56.7663   32.0930 C   0  0  0  0  0  0  0  0  0  0  0  0
   18.4479  -55.3950   32.0383 C   0  0  0  0  0  0  0  0  0  0  0  0
   16.9026  -52.3727   38.9687 Cl  0  0  0  0  0  0  0  0  0  0  0  0
   17.6845  -52.8256   37.4618 C   0  0  0  0  0  0  0  0  0  0  0  0
   17.0801  -53.6119   36.5143 C   0  0  0  0  0  0  0  0  0  0  0  0
   17.7042  -53.9647   35.3277 C   0  0  0  0  0  0  0  0  0  0  0  0
   17.3755  -54.6960   34.2497 N   0  0  0  0  0  0  0  0  0  0  0  0
   18.3794  -54.7173   33.3564 C   0  0  0  0  0  0  0  0  0  0  0  0
   19.3676  -53.9624   33.9180 N   0  0  0  0  0  0  0  0  0  0  0  0
   18.9830  -53.4954   35.1116 C   0  0  0  0  0  0  0  0  0  0  0  0
   19.6274  -52.7023   36.0374 C   0  0  0  0  0  0  0  0  0  0  0  0
   18.9635  -52.3736   37.2145 C   0  0  0  0  0  0  0  0  0  0  0  0
   20.6460  -53.7388   33.2454 C   0  0  0  0  0  0  0  0  0  0  0  0
 24 25  1  0  0  0
 25 26  2  0  0  0
 25 33  1  0  0  0
 26 27  1  0  0  0
 27 28  1  0  0  0
 27 31  2  0  0  0
 28 29  2  0  0  0
 29 30  1  0  0  0
 29 23  1  0  0  0
 30 31  1  0  0  0
 30 34  1  0  0  0
 31 32  1  0  0  0
 32 33  2  0  0  0
 23 22  1  0  0  0
 22  1  1  0  0  0
  1  2  2  0  0  0
  1  3  1  0  0  0
  3  4  1  0  0  0
  3  8  1  0  0  0
  4  5  1  0  0  0
  5  6  1  0  0  0
  5 12  1  0  0  0
  6  7  1  0  0  0
  6  9  1  0  0  0
  6 10  1  0  0  0
  7  8  1  0  0  0
 12 13  1  0  0  0
 12 18  1  0  0  0
 13 14  2  0  0  0
 14 15  1  0  0  0
 14 20  1  0  0  0
 15 16  2  0  0  0
 15 17  1  0  0  0
 17 18  1  0  0  0
 18 19  2  0  0  0
  9 11  1  0  0  0
 17 21  1  0  0  0
M  END
> <minimizedAffinity>
-9.52838

$$$$
1936


 25 28  0  0  0  0  0  0  0  0999 V2000
   14.1014  -57.3295   36.8875 N   0  0  0  0  0  0  0  0  0  0  0  0
   14.7573  -58.3601   36.1876 C   0  0  0  0  0  0  0  0  0  0  0  0
   15.7515  -58.8795   36.7228 O   0  0  0  0  0  0  0  0  0  0  0  0
   13.2622  -56.8778   36.4547 H   0  0  0  0  0  0  0  0  0  0  0  0
   14.3153  -58.8372   34.8657 C   0  0  0  0  0  0  0  0  0  0  0  0
   13.5631  -60.1103   34.8476 C   0  0  0  0  0  0  0  0  0  0  0  0
   12.7606  -58.8810   34.6801 C   0  0  0  0  0  0  0  0  0  0  0  0
   14.9630  -58.3543   33.6830 N   0  0  0  0  0  0  0  0  0  0  0  0
   15.8356  -59.2510   33.0342 C   0  0  0  0  0  0  0  0  0  0  0  0
   17.2539  -58.9276   33.4879 C   0  0  0  0  0  0  0  0  0  0  0  0
   17.6451  -57.7112   32.9810 O   0  0  0  0  0  0  0  0  0  0  0  0
   16.6304  -56.8051   32.7969 C   0  0  0  0  0  0  0  0  0  0  0  0
   15.4589  -57.0404   33.7286 C   0  0  0  0  0  0  0  0  0  0  0  0
   14.5411  -56.8608   38.1889 C   0  0  0  0  0  0  0  0  0  0  0  0
   20.0052  -51.6780   36.4346 Cl  0  0  0  0  0  0  0  0  0  0  0  0
   18.5671  -52.4289   37.1228 C   0  0  0  0  0  0  0  0  0  0  0  0
   18.2305  -53.7471   36.8652 C   0  0  0  0  0  0  0  0  0  0  0  0
   17.1161  -54.3716   37.3818 C   0  0  0  0  0  0  0  0  0  0  0  0
   16.5705  -55.5977   37.2968 N   0  0  0  0  0  0  0  0  0  0  0  0
   15.4406  -55.6673   38.0254 C   0  0  0  0  0  0  0  0  0  0  0  0
   15.2875  -54.4505   38.5720 N   0  0  0  0  0  0  0  0  0  0  0  0
   16.2840  -53.6169   38.2137 C   0  0  0  0  0  0  0  0  0  0  0  0
   16.6062  -52.3061   38.4779 C   0  0  0  0  0  0  0  0  0  0  0  0
   17.7205  -51.7018   37.9542 C   0  0  0  0  0  0  0  0  0  0  0  0
   14.4935  -54.1870   39.1987 H   0  0  0  0  0  0  0  0  0  0  0  0
 15 16  1  0  0  0
 16 17  2  0  0  0
 16 24  1  0  0  0
 17 18  1  0  0  0
 18 19  1  0  0  0
 18 22  2  0  0  0
 19 20  2  0  0  0
 20 21  1  0  0  0
 20 14  1  0  0  0
 21 22  1  0  0  0
 22 23  1  0  0  0
 23 24  2  0  0  0
 14  1  1  0  0  0
  1  2  1  0  0  0
  2  3  2  0  0  0
  2  5  1  0  0  0
  5  6  1  0  0  0
  5  7  1  0  0  0
  5  8  1  0  0  0
  6  7  1  0  0  0
  8  9  1  0  0  0
  8 13  1  0  0  0
  9 10  1  0  0  0
 10 11  1  0  0  0
 11 12  1  0  0  0
 12 13  1  0  0  0
 21 25  1  0  0  0
  1  4  1  0  0  0
M  END
> <minimizedAffinity>
-8.30130

$$$$
1937


 31 34  0  0  0  0  0  0  0  0999 V2000
   17.9047  -55.9592   33.4640 N   0  0  0  0  0  0  0  0  0  0  0  0
   16.8660  -55.6076   32.6118 C   0  0  0  0  0  0  0  0  0  0  0  0
   16.2183  -56.9571   32.0828 C   0  0  0  0  0  0  0  0  0  0  0  0
   16.4761  -57.8295   33.1976 N   0  0  0  0  0  0  0  0  0  0  0  0
   17.8682  -58.3632   33.1382 C   0  0  0  0  0  0  0  0  0  0  0  0
   18.6761  -57.1196   32.8938 C   0  0  0  0  0  0  0  0  0  0  0  0
   15.5632  -58.2031   34.1377 C   0  0  0  0  0  0  0  0  0  0  0  0
   16.0053  -58.5690   35.2803 O   0  0  0  0  0  0  0  0  0  0  0  0
   14.0740  -58.2667   34.0010 C   0  0  0  0  0  0  0  0  0  0  0  0
   13.8627  -59.1083   32.8203 O   0  0  0  0  0  0  0  0  0  0  0  0
   14.8435  -60.1410   32.7685 C   0  0  0  0  0  0  0  0  0  0  0  0
   15.2700  -60.6635   33.9609 C   0  0  0  0  0  0  0  0  0  0  0  0
   16.2297  -61.6687   34.0121 C   0  0  0  0  0  0  0  0  0  0  0  0
   16.7259  -62.1105   32.7911 C   0  0  0  0  0  0  0  0  0  0  0  0
   16.3124  -61.6131   31.5750 C   0  0  0  0  0  0  0  0  0  0  0  0
   15.3557  -60.6174   31.5670 C   0  0  0  0  0  0  0  0  0  0  0  0
   14.7270  -60.1738   35.1540 O   0  0  0  0  0  0  0  0  0  0  0  0
   13.6333  -59.2220   35.1428 C   0  0  0  0  0  0  0  0  0  0  0  0
   18.8885  -55.0166   33.9400 C   0  0  0  0  0  0  0  0  0  0  0  0
   19.8371  -54.3612   36.1633 N   0  0  0  0  0  0  0  0  0  0  0  0
   18.8868  -55.1132   35.4694 C   0  0  0  0  0  0  0  0  0  0  0  0
   18.0742  -55.8088   36.0206 O   0  0  0  0  0  0  0  0  0  0  0  0
   20.6419  -53.9806   35.5489 H   0  0  0  0  0  0  0  0  0  0  0  0
   19.9091  -54.1414   37.5624 C   0  0  0  0  0  0  0  0  0  0  0  0
   19.5467  -51.3776   36.6342 Cl  0  0  0  0  0  0  0  0  0  0  0  0
   18.3760  -52.2095   37.6295 C   0  0  0  0  0  0  0  0  0  0  0  0
   18.6989  -53.4736   38.1092 C   0  0  0  0  0  0  0  0  0  0  0  0
   17.7775  -54.0692   38.9293 C   0  0  0  0  0  0  0  0  0  0  0  0
   16.5807  -53.4381   39.2474 C   0  0  0  0  0  0  0  0  0  0  0  0
   16.2500  -52.1558   38.7628 C   0  0  0  0  0  0  0  0  0  0  0  0
   17.2137  -51.5894   37.9529 C   0  0  0  0  0  0  0  0  0  0  0  0
 25 26  1  0  0  0
 26 27  2  0  0  0
 26 31  1  0  0  0
 27 28  1  0  0  0
 27 24  1  0  0  0
 28 29  2  0  0  0
 29 30  1  0  0  0
 30 31  2  0  0  0
 24 20  1  0  0  0
 20 21  1  0  0  0
 21 22  2  0  0  0
 21 19  1  0  0  0
 19  1  1  0  0  0
  1  2  1  0  0  0
  1  6  1  0  0  0
  2  3  1  0  0  0
  3  4  1  0  0  0
  4  5  1  0  0  0
  4  7  1  0  0  0
  5  6  1  0  0  0
  7  8  2  0  0  0
  7  9  1  0  0  0
  9 10  1  0  0  0
  9 18  1  0  0  0
 10 11  1  0  0  0
 11 12  2  0  0  0
 11 16  1  0  0  0
 12 13  1  0  0  0
 12 17  1  0  0  0
 13 14  2  0  0  0
 14 15  1  0  0  0
 15 16  2  0  0  0
 17 18  1  0  0  0
 20 23  1  0  0  0
M  END
> <minimizedAffinity>
-8.67426

$$$$
1939


 28 31  0  0  0  0  0  0  0  0999 V2000
   17.6873  -55.5234   33.3893 N   0  0  0  0  0  0  0  0  0  0  0  0
   18.6987  -55.5149   32.4689 C   0  0  0  0  0  0  0  0  0  0  0  0
   18.7818  -56.7350   31.8562 C   0  0  0  0  0  0  0  0  0  0  0  0
   17.8203  -57.4542   32.4195 N   0  0  0  0  0  0  0  0  0  0  0  0
   17.1321  -56.7360   33.3650 C   0  0  0  0  0  0  0  0  0  0  0  0
   19.7048  -56.9903   30.9108 N   0  0  0  0  0  0  0  0  0  0  0  0
   20.5834  -56.0195   30.5473 C   0  0  0  0  0  0  0  0  0  0  0  0
   21.4235  -56.3021   29.6638 O   0  0  0  0  0  0  0  0  0  0  0  0
   20.5417  -54.8046   31.1205 N   0  0  0  0  0  0  0  0  0  0  0  0
   19.6178  -54.5617   32.0622 C   0  0  0  0  0  0  0  0  0  0  0  0
   19.6211  -53.4170   32.5663 O   0  0  0  0  0  0  0  0  0  0  0  0
   19.7214  -58.3130   30.3116 C   0  0  0  0  0  0  0  0  0  0  0  0
   21.2371  -54.0961   30.8062 H   0  0  0  0  0  0  0  0  0  0  0  0
   16.0685  -57.2887   34.1117 N   0  0  0  0  0  0  0  0  0  0  0  0
   14.7105  -57.0190   33.6587 C   0  0  0  0  0  0  0  0  0  0  0  0
   13.9631  -58.3276   33.9739 C   0  0  0  0  0  0  0  0  0  0  0  0
   14.8254  -59.4797   33.8346 N   0  0  0  0  0  0  0  0  0  0  0  0
   15.8934  -59.5359   34.8095 C   0  0  0  0  0  0  0  0  0  0  0  0
   16.1229  -58.1036   35.2691 C   0  0  0  0  0  0  0  0  0  0  0  0
   14.2315  -60.3143   33.9739 H   0  0  0  0  0  0  0  0  0  0  0  0
   17.3618  -54.3764   34.1950 C   0  0  0  0  0  0  0  0  0  0  0  0
   19.2561  -54.2637   39.9146 Cl  0  0  0  0  0  0  0  0  0  0  0  0
   18.7392  -54.3008   38.2431 C   0  0  0  0  0  0  0  0  0  0  0  0
   17.4712  -54.7120   37.9598 C   0  0  0  0  0  0  0  0  0  0  0  0
   17.0202  -54.7555   36.6370 C   0  0  0  0  0  0  0  0  0  0  0  0
   17.8017  -54.3992   35.5877 C   0  0  0  0  0  0  0  0  0  0  0  0
   19.1007  -53.9803   35.9141 C   0  0  0  0  0  0  0  0  0  0  0  0
   19.5656  -53.9300   37.2074 C   0  0  0  0  0  0  0  0  0  0  0  0
 22 23  1  0  0  0
 23 24  2  0  0  0
 23 28  1  0  0  0
 24 25  1  0  0  0
 25 26  2  0  0  0
 26 27  1  0  0  0
 26 21  1  0  0  0
 27 28  2  0  0  0
 21  1  1  0  0  0
  1  2  1  0  0  0
  1  5  1  0  0  0
  2  3  2  0  0  0
  2 10  1  0  0  0
  3  4  1  0  0  0
  3  6  1  0  0  0
  4  5  2  0  0  0
  5 14  1  0  0  0
 14 15  1  0  0  0
 14 19  1  0  0  0
 15 16  1  0  0  0
 16 17  1  0  0  0
 17 18  1  0  0  0
 18 19  1  0  0  0
  6  7  1  0  0  0
  6 12  1  0  0  0
  7  8  2  0  0  0
  7  9  1  0  0  0
  9 10  1  0  0  0
 10 11  2  0  0  0
 17 20  1  0  0  0
  9 13  1  0  0  0
M  END
> <minimizedAffinity>
-8.42568

$$$$
1940


 30 33  0  0  0  0  0  0  0  0999 V2000
   16.1796  -58.3155   35.5870 C   0  0  0  0  0  0  0  0  0  0  0  0
   14.8982  -58.7033   34.9837 N   0  0  0  0  0  0  0  0  0  0  0  0
   14.5186  -57.6085   34.1700 C   0  0  0  0  0  0  0  0  0  0  0  0
   13.3493  -57.2643   33.8762 O   0  0  0  0  0  0  0  0  0  0  0  0
   15.7628  -56.9477   33.7326 C   0  0  0  0  0  0  0  0  0  0  0  0
   15.8799  -55.9385   33.0012 O   0  0  0  0  0  0  0  0  0  0  0  0
   16.8286  -57.7291   34.3444 C   0  0  0  0  0  0  0  0  0  0  0  0
   18.0312  -57.8845   33.9114 C   0  0  0  0  0  0  0  0  0  0  0  0
   18.9467  -58.6792   34.5992 O   0  0  0  0  0  0  0  0  0  0  0  0
   15.5427  -53.6152   39.3119 Cl  0  0  0  0  0  0  0  0  0  0  0  0
   15.6829  -54.9923   38.2480 C   0  0  0  0  0  0  0  0  0  0  0  0
   14.7582  -56.0143   38.2337 C   0  0  0  0  0  0  0  0  0  0  0  0
   14.9320  -57.0758   37.3672 C   0  0  0  0  0  0  0  0  0  0  0  0
   15.9962  -57.1646   36.5059 C   0  0  0  0  0  0  0  0  0  0  0  0
   16.9224  -56.1216   36.5338 C   0  0  0  0  0  0  0  0  0  0  0  0
   16.7551  -55.0600   37.3956 C   0  0  0  0  0  0  0  0  0  0  0  0
   18.4738  -57.2292   32.6847 C   0  0  0  0  0  0  0  0  0  0  0  0
   18.3581  -57.5512   31.4456 O   0  0  0  0  0  0  0  0  0  0  0  0
   18.9120  -56.6580   30.6767 C   0  0  0  0  0  0  0  0  0  0  0  0
   19.4404  -55.6582   31.4528 C   0  0  0  0  0  0  0  0  0  0  0  0
   19.1668  -56.0127   32.7445 C   0  0  0  0  0  0  0  0  0  0  0  0
   14.1876  -59.9547   35.2049 C   0  0  0  0  0  0  0  0  0  0  0  0
   12.9065  -59.8089   35.9662 C   0  0  0  0  0  0  0  0  0  0  0  0
   12.7936  -60.5751   37.1595 N   0  0  0  0  0  0  0  0  0  0  0  0
   13.0020  -59.8838   38.3911 C   0  0  0  0  0  0  0  0  0  0  0  0
   11.9757  -58.8086   38.6666 C   0  0  0  0  0  0  0  0  0  0  0  0
   10.6895  -59.3376   38.6573 O   0  0  0  0  0  0  0  0  0  0  0  0
   10.4381  -60.0841   37.5108 C   0  0  0  0  0  0  0  0  0  0  0  0
   11.4493  -61.1764   37.2791 C   0  0  0  0  0  0  0  0  0  0  0  0
   13.4848  -61.3558   37.1140 H   0  0  0  0  0  0  0  0  0  0  0  0
 10 11  1  0  0  0
 11 12  2  0  0  0
 11 16  1  0  0  0
 12 13  1  0  0  0
 13 14  2  0  0  0
 14 15  1  0  0  0
 14  1  1  0  0  0
 15 16  2  0  0  0
  1  2  1  0  0  0
  1  7  1  0  0  0
  2  3  1  0  0  0
  2 22  1  0  0  0
  3  4  2  0  0  0
  3  5  1  0  0  0
  5  6  2  0  0  0
  5  7  1  0  0  0
  7  8  2  0  0  0
  8  9  1  0  0  0
  8 17  1  0  0  0
 17 18  1  0  0  0
 17 21  2  0  0  0
 18 19  1  0  0  0
 19 20  2  0  0  0
 20 21  1  0  0  0
 22 23  1  0  0  0
 23 24  1  0  0  0
 24 25  1  0  0  0
 24 29  1  0  0  0
 25 26  1  0  0  0
 26 27  1  0  0  0
 27 28  1  0  0  0
 28 29  1  0  0  0
 24 30  1  0  0  0
M  CHG 1   9  -1
M  CHG 1  24   1
M  END
> <minimizedAffinity>
-8.90560

$$$$
1941


 22 25  0  0  0  0  0  0  0  0999 V2000
   16.8173  -55.7330   36.0918 N   0  0  0  0  0  0  0  0  0  0  0  0
   17.9990  -55.1153   35.5615 C   0  0  0  0  0  0  0  0  0  0  0  0
   18.8973  -55.7917   34.9511 O   0  0  0  0  0  0  0  0  0  0  0  0
   17.9651  -53.6706   35.8406 C   0  0  0  0  0  0  0  0  0  0  0  0
   16.9767  -53.5685   36.9771 C   0  0  0  0  0  0  0  0  0  0  0  0
   17.6914  -53.0471   38.2049 C   0  0  0  0  0  0  0  0  0  0  0  0
   18.0725  -51.5978   37.8687 C   0  0  0  0  0  0  0  0  0  0  0  0
   19.0485  -51.6995   36.7321 C   0  0  0  0  0  0  0  0  0  0  0  0
   19.5908  -50.7167   36.3039 O   0  0  0  0  0  0  0  0  0  0  0  0
   19.2894  -53.0791   36.1833 C   0  0  0  0  0  0  0  0  0  0  0  0
   19.9462  -53.8634   37.3248 C   0  0  0  0  0  0  0  0  0  0  0  0
   18.9718  -53.7904   38.4686 C   0  0  0  0  0  0  0  0  0  0  0  0
   19.2384  -54.3079   39.5182 O   0  0  0  0  0  0  0  0  0  0  0  0
   16.3750  -54.8901   37.1466 C   0  0  0  0  0  0  0  0  0  0  0  0
   15.5976  -55.2238   38.0691 O   0  0  0  0  0  0  0  0  0  0  0  0
   14.1727  -60.7595   34.1490 Cl  0  0  0  0  0  0  0  0  0  0  0  0
   14.9489  -59.2901   34.7278 C   0  0  0  0  0  0  0  0  0  0  0  0
   15.0717  -58.1830   33.9249 C   0  0  0  0  0  0  0  0  0  0  0  0
   15.6804  -57.0375   34.3851 C   0  0  0  0  0  0  0  0  0  0  0  0
   16.1956  -56.9391   35.6641 C   0  0  0  0  0  0  0  0  0  0  0  0
   16.0623  -58.0592   36.4545 C   0  0  0  0  0  0  0  0  0  0  0  0
   15.4578  -59.2139   36.0140 C   0  0  0  0  0  0  0  0  0  0  0  0
 16 17  1  0  0  0
 17 18  2  0  0  0
 17 22  1  0  0  0
 18 19  1  0  0  0
 19 20  2  0  0  0
 20 21  1  0  0  0
 20  1  1  0  0  0
 21 22  2  0  0  0
  1  2  1  0  0  0
  1 14  1  0  0  0
  2  3  2  0  0  0
  2  4  1  0  0  0
  4  5  1  0  0  0
  4 10  1  0  0  0
  5  6  1  0  0  0
  5 14  1  0  0  0
  6  7  1  0  0  0
  6 12  1  0  0  0
  7  8  1  0  0  0
  8  9  2  0  0  0
  8 10  1  0  0  0
 10 11  1  0  0  0
 11 12  1  0  0  0
 12 13  2  0  0  0
 14 15  2  0  0  0
M  END
> <minimizedAffinity>
-9.36056

$$$$
1943


 34 38  0  0  0  0  0  0  0  0999 V2000
   17.5587  -56.8220   35.0029 N   0  0  0  0  0  0  0  0  0  0  0  0
   17.8759  -57.7105   33.9092 C   0  0  0  0  0  0  0  0  0  0  0  0
   18.6685  -57.4773   32.9922 O   0  0  0  0  0  0  0  0  0  0  0  0
   17.1080  -58.9547   34.0494 C   0  0  0  0  0  0  0  0  0  0  0  0
   16.4157  -59.4400   32.7981 C   0  0  0  0  0  0  0  0  0  0  0  0
   15.0786  -58.8973   32.7953 N   0  0  0  0  0  0  0  0  0  0  0  0
   15.0572  -57.8654   33.8129 C   0  0  0  0  0  0  0  0  0  0  0  0
   15.9343  -58.4898   34.8793 C   0  0  0  0  0  0  0  0  0  0  0  0
   16.5619  -57.5058   35.7805 C   0  0  0  0  0  0  0  0  0  0  0  0
   16.2452  -57.3542   36.9631 O   0  0  0  0  0  0  0  0  0  0  0  0
   16.4035  -60.9389   32.9218 C   0  0  0  0  0  0  0  0  0  0  0  0
   17.2604  -61.4375   31.9819 C   0  0  0  0  0  0  0  0  0  0  0  0
   17.5222  -62.8125   31.8762 C   0  0  0  0  0  0  0  0  0  0  0  0
   16.9064  -63.7022   32.7317 C   0  0  0  0  0  0  0  0  0  0  0  0
   16.0450  -63.2039   33.6721 C   0  0  0  0  0  0  0  0  0  0  0  0
   15.7995  -61.8497   33.7637 C   0  0  0  0  0  0  0  0  0  0  0  0
   17.7409  -60.4073   31.1334 N   0  0  0  0  0  0  0  0  0  0  0  0
   17.1410  -59.1964   31.5676 C   0  0  0  0  0  0  0  0  0  0  0  0
   17.2486  -58.1170   30.9482 O   0  0  0  0  0  0  0  0  0  0  0  0
   14.8977  -58.5016   31.8423 H   0  0  0  0  0  0  0  0  0  0  0  0
   18.4228  -60.5209   30.3221 H   0  0  0  0  0  0  0  0  0  0  0  0
   19.8879  -51.4705   36.2463 Cl  0  0  0  0  0  0  0  0  0  0  0  0
   19.2053  -53.0430   35.8718 C   0  0  0  0  0  0  0  0  0  0  0  0
   17.8703  -53.2785   36.0941 C   0  0  0  0  0  0  0  0  0  0  0  0
   17.3426  -54.5308   35.8012 C   0  0  0  0  0  0  0  0  0  0  0  0
   18.0875  -55.5602   35.2947 C   0  0  0  0  0  0  0  0  0  0  0  0
   19.4183  -55.2947   35.0817 C   0  0  0  0  0  0  0  0  0  0  0  0
   19.9764  -54.0445   35.3673 C   0  0  0  0  0  0  0  0  0  0  0  0
   13.6678  -57.6034   34.3323 C   0  0  0  0  0  0  0  0  0  0  0  0
   12.9735  -58.7929   34.8154 C   0  0  0  0  0  0  0  0  0  0  0  0
   12.6647  -59.7094   34.0302 O   0  0  0  0  0  0  0  0  0  0  0  0
   12.6449  -58.9122   36.1859 N   0  0  0  0  0  0  0  0  0  0  0  0
   12.8145  -58.1656   36.9024 H   0  0  0  0  0  0  0  0  0  0  0  0
   12.1931  -59.7815   36.5950 H   0  0  0  0  0  0  0  0  0  0  0  0
 22 23  1  0  0  0
 23 24  2  0  0  0
 23 28  1  0  0  0
 24 25  1  0  0  0
 25 26  2  0  0  0
 26 27  1  0  0  0
 26  1  1  0  0  0
 27 28  2  0  0  0
  1  2  1  0  0  0
  1  9  1  0  0  0
  2  3  2  0  0  0
  2  4  1  0  0  0
  4  5  1  0  0  0
  4  8  1  0  0  0
  5  6  1  0  0  0
  5 11  1  0  0  0
  5 18  1  0  0  0
  6  7  1  0  0  0
  7  8  1  0  0  0
  7 29  1  0  0  0
  8  9  1  0  0  0
  9 10  2  0  0  0
 29 30  1  0  0  0
 30 31  2  0  0  0
 30 32  1  0  0  0
 11 12  1  0  0  0
 11 16  2  0  0  0
 12 13  2  0  0  0
 12 17  1  0  0  0
 13 14  1  0  0  0
 14 15  2  0  0  0
 15 16  1  0  0  0
 17 18  1  0  0  0
 18 19  2  0  0  0
  6 20  1  0  0  0
 32 33  1  0  0  0
 32 34  1  0  0  0
 17 21  1  0  0  0
M  END
> <minimizedAffinity>
-9.57402

$$$$
1945


 24 27  0  0  0  0  0  0  0  0999 V2000
   20.1391  -50.7271   36.1365 Cl  0  0  0  0  0  0  0  0  0  0  0  0
   18.9583  -51.8881   36.7099 C   0  0  0  0  0  0  0  0  0  0  0  0
   18.8712  -53.1558   36.1819 C   0  0  0  0  0  0  0  0  0  0  0  0
   17.9241  -54.0719   36.6479 C   0  0  0  0  0  0  0  0  0  0  0  0
   17.0684  -53.6713   37.6633 C   0  0  0  0  0  0  0  0  0  0  0  0
   17.1435  -52.4086   38.2010 C   0  0  0  0  0  0  0  0  0  0  0  0
   18.0763  -51.5184   37.7337 C   0  0  0  0  0  0  0  0  0  0  0  0
   16.0545  -54.6037   38.1874 C   0  0  0  0  0  0  0  0  0  0  0  0
   15.1558  -54.4918   39.1054 N   0  0  0  0  0  0  0  0  0  0  0  0
   14.3830  -55.6925   39.2689 C   0  0  0  0  0  0  0  0  0  0  0  0
   14.9574  -56.6396   38.2612 C   0  0  0  0  0  0  0  0  0  0  0  0
   16.0044  -55.8953   37.6138 N   0  0  0  0  0  0  0  0  0  0  0  0
   16.8960  -56.2762   36.5738 C   0  0  0  0  0  0  0  0  0  0  0  0
   16.8686  -57.4251   36.0489 O   0  0  0  0  0  0  0  0  0  0  0  0
   17.8871  -55.3674   36.0604 N   0  0  0  0  0  0  0  0  0  0  0  0
   18.7901  -55.7798   34.9949 C   0  0  0  0  0  0  0  0  0  0  0  0
   18.0829  -55.8614   33.6965 C   0  0  0  0  0  0  0  0  0  0  0  0
   17.6539  -54.7971   33.1878 O   0  0  0  0  0  0  0  0  0  0  0  0
   17.8708  -57.0785   33.0058 N   0  0  0  0  0  0  0  0  0  0  0  0
   18.2333  -57.9514   33.4398 H   0  0  0  0  0  0  0  0  0  0  0  0
   17.1787  -57.1304   31.7407 C   0  0  0  0  0  0  0  0  0  0  0  0
   18.1235  -57.5677   30.6530 C   0  0  0  0  0  0  0  0  0  0  0  0
   19.5390  -57.1109   30.6863 C   0  0  0  0  0  0  0  0  0  0  0  0
   18.6064  -56.5106   29.7048 C   0  0  0  0  0  0  0  0  0  0  0  0
  1  2  1  0  0  0
  2  3  2  0  0  0
  2  7  1  0  0  0
  3  4  1  0  0  0
  4  5  2  0  0  0
  4 15  1  0  0  0
  5  6  1  0  0  0
  5  8  1  0  0  0
  6  7  2  0  0  0
  8  9  2  0  0  0
  8 12  1  0  0  0
  9 10  1  0  0  0
 10 11  1  0  0  0
 11 12  1  0  0  0
 12 13  1  0  0  0
 13 14  2  0  0  0
 13 15  1  0  0  0
 15 16  1  0  0  0
 16 17  1  0  0  0
 17 18  2  0  0  0
 17 19  1  0  0  0
 19 21  1  0  0  0
 21 22  1  0  0  0
 22 23  1  0  0  0
 22 24  1  0  0  0
 23 24  1  0  0  0
 19 20  1  0  0  0
M  END
> <minimizedAffinity>
-8.63781

$$$$
1956


 35 38  0  0  0  0  0  0  0  0999 V2000
   18.4099  -56.9899   33.7234 C   0  0  0  0  0  0  0  0  0  0  0  0
   17.1188  -57.0242   34.0080 C   0  0  0  0  0  0  0  0  0  0  0  0
   16.5330  -57.1856   35.3882 C   0  0  0  0  0  0  0  0  0  0  0  0
   15.1455  -57.4864   35.1830 N   0  0  0  0  0  0  0  0  0  0  0  0
   14.7769  -57.2575   33.8309 C   0  0  0  0  0  0  0  0  0  0  0  0
   13.6338  -57.2914   33.3526 O   0  0  0  0  0  0  0  0  0  0  0  0
   16.0265  -56.9675   33.0897 C   0  0  0  0  0  0  0  0  0  0  0  0
   16.0779  -56.7212   31.8616 O   0  0  0  0  0  0  0  0  0  0  0  0
   19.2909  -57.1240   34.8227 O   0  0  0  0  0  0  0  0  0  0  0  0
   20.6487  -56.4832   28.1504 Cl  0  0  0  0  0  0  0  0  0  0  0  0
   19.9863  -56.6568   29.7596 C   0  0  0  0  0  0  0  0  0  0  0  0
   19.6567  -57.8744   30.3053 C   0  0  0  0  0  0  0  0  0  0  0  0
   19.1365  -57.9563   31.5802 C   0  0  0  0  0  0  0  0  0  0  0  0
   18.9164  -56.8257   32.3791 C   0  0  0  0  0  0  0  0  0  0  0  0
   19.2570  -55.6225   31.8079 C   0  0  0  0  0  0  0  0  0  0  0  0
   19.7855  -55.5356   30.5129 C   0  0  0  0  0  0  0  0  0  0  0  0
   16.7682  -55.8993   36.0987 C   0  0  0  0  0  0  0  0  0  0  0  0
   16.9747  -54.7530   35.3865 C   0  0  0  0  0  0  0  0  0  0  0  0
   17.1769  -53.5748   36.0468 C   0  0  0  0  0  0  0  0  0  0  0  0
   17.1796  -53.5047   37.4230 C   0  0  0  0  0  0  0  0  0  0  0  0
   16.9712  -54.6646   38.1460 C   0  0  0  0  0  0  0  0  0  0  0  0
   16.7658  -55.8584   37.4705 C   0  0  0  0  0  0  0  0  0  0  0  0
   17.3868  -52.3006   38.0879 O   0  0  0  0  0  0  0  0  0  0  0  0
   18.2444  -51.3279   37.4736 C   0  0  0  0  0  0  0  0  0  0  0  0
   19.5164  -52.0267   37.0000 C   0  0  0  0  0  0  0  0  0  0  0  0
   20.2062  -51.0800   36.0280 C   0  0  0  0  0  0  0  0  0  0  0  0
   14.2307  -57.9761   36.2091 C   0  0  0  0  0  0  0  0  0  0  0  0
   13.8515  -59.3862   35.9137 C   0  0  0  0  0  0  0  0  0  0  0  0
   13.0081  -59.9523   36.9794 N   0  0  0  0  0  0  0  0  0  0  0  0
   11.6434  -59.8524   36.5623 C   0  0  0  0  0  0  0  0  0  0  0  0
   10.6763  -60.0378   37.7291 C   0  0  0  0  0  0  0  0  0  0  0  0
   11.0094  -59.0495   38.6730 O   0  0  0  0  0  0  0  0  0  0  0  0
   12.2259  -59.4007   39.2197 C   0  0  0  0  0  0  0  0  0  0  0  0
   13.3095  -59.2021   38.1790 C   0  0  0  0  0  0  0  0  0  0  0  0
   13.2489  -60.9654   37.1378 H   0  0  0  0  0  0  0  0  0  0  0  0
 10 11  1  0  0  0
 11 12  2  0  0  0
 11 16  1  0  0  0
 12 13  1  0  0  0
 13 14  2  0  0  0
 14 15  1  0  0  0
 14  1  1  0  0  0
 15 16  2  0  0  0
  1  2  2  0  0  0
  1  9  1  0  0  0
  2  3  1  0  0  0
  2  7  1  0  0  0
  3  4  1  0  0  0
  3 17  1  0  0  0
  4  5  1  0  0  0
  4 27  1  0  0  0
  5  6  2  0  0  0
  5  7  1  0  0  0
  7  8  2  0  0  0
 27 28  1  0  0  0
 28 29  1  0  0  0
 29 30  1  0  0  0
 29 34  1  0  0  0
 30 31  1  0  0  0
 31 32  1  0  0  0
 32 33  1  0  0  0
 33 34  1  0  0  0
 17 18  2  0  0  0
 17 22  1  0  0  0
 18 19  1  0  0  0
 19 20  2  0  0  0
 20 21  1  0  0  0
 20 23  1  0  0  0
 21 22  2  0  0  0
 23 24  1  0  0  0
 24 25  1  0  0  0
 25 26  1  0  0  0
 29 35  1  0  0  0
M  CHG 1   9  -1
M  CHG 1  29   1
M  END
> <minimizedAffinity>
-9.56001

$$$$
1957


 36 40  0  0  0  0  0  0  0  0999 V2000
   17.7946  -55.2808   35.3794 C   0  0  0  0  0  0  0  0  0  0  0  0
   16.4457  -55.7281   35.7017 N   0  0  0  0  0  0  0  0  0  0  0  0
   16.2338  -56.9670   34.9800 C   0  0  0  0  0  0  0  0  0  0  0  0
   17.6038  -57.5814   34.9763 C   0  0  0  0  0  0  0  0  0  0  0  0
   18.5502  -56.4321   34.8306 C   0  0  0  0  0  0  0  0  0  0  0  0
   18.8285  -56.3147   33.3727 C   0  0  0  0  0  0  0  0  0  0  0  0
   19.3601  -55.3404   32.7893 O   0  0  0  0  0  0  0  0  0  0  0  0
   18.3657  -57.5431   32.7695 N   0  0  0  0  0  0  0  0  0  0  0  0
   17.8994  -58.4022   33.7891 C   0  0  0  0  0  0  0  0  0  0  0  0
   17.7516  -59.6471   33.7232 O   0  0  0  0  0  0  0  0  0  0  0  0
   15.2431  -57.8413   35.6538 C   0  0  0  0  0  0  0  0  0  0  0  0
   14.1961  -58.0002   34.7771 C   0  0  0  0  0  0  0  0  0  0  0  0
   13.1168  -58.7861   35.1573 C   0  0  0  0  0  0  0  0  0  0  0  0
   13.1238  -59.3833   36.3957 C   0  0  0  0  0  0  0  0  0  0  0  0
   14.1736  -59.2303   37.2853 C   0  0  0  0  0  0  0  0  0  0  0  0
   15.2389  -58.4461   36.8950 C   0  0  0  0  0  0  0  0  0  0  0  0
   14.4289  -57.2724   33.5575 N   0  0  0  0  0  0  0  0  0  0  0  0
   15.6836  -56.6277   33.6795 C   0  0  0  0  0  0  0  0  0  0  0  0
   16.1799  -55.9073   32.7981 O   0  0  0  0  0  0  0  0  0  0  0  0
   15.7567  -55.0121   35.4476 H   0  0  0  0  0  0  0  0  0  0  0  0
   13.7526  -57.2630   32.7603 H   0  0  0  0  0  0  0  0  0  0  0  0
   18.3555  -54.7168   36.6572 C   0  0  0  0  0  0  0  0  0  0  0  0
   17.5120  -54.8243   37.7321 O   0  0  0  0  0  0  0  0  0  0  0  0
   17.4395  -55.7835   37.9714 H   0  0  0  0  0  0  0  0  0  0  0  0
   20.2592  -48.9801   36.1094 Cl  0  0  0  0  0  0  0  0  0  0  0  0
   19.7077  -50.6400   36.2594 C   0  0  0  0  0  0  0  0  0  0  0  0
   20.2439  -51.6632   35.5020 C   0  0  0  0  0  0  0  0  0  0  0  0
   19.8061  -52.9556   35.6268 C   0  0  0  0  0  0  0  0  0  0  0  0
   18.7976  -53.2994   36.5258 C   0  0  0  0  0  0  0  0  0  0  0  0
   18.2567  -52.2909   37.2851 C   0  0  0  0  0  0  0  0  0  0  0  0
   18.7138  -51.0028   37.1405 C   0  0  0  0  0  0  0  0  0  0  0  0
   18.3722  -57.8258   31.3644 C   0  0  0  0  0  0  0  0  0  0  0  0
   19.7013  -58.0785   30.7578 C   0  0  0  0  0  0  0  0  0  0  0  0
   20.1791  -57.0896   29.7533 C   0  0  0  0  0  0  0  0  0  0  0  0
   21.2379  -56.3131   30.2052 O   0  0  0  0  0  0  0  0  0  0  0  0
   22.4265  -56.7300   29.5699 C   0  0  0  0  0  0  0  0  0  0  0  0
 25 26  1  0  0  0
 26 27  2  0  0  0
 26 31  1  0  0  0
 27 28  1  0  0  0
 28 29  2  0  0  0
 29 30  1  0  0  0
 29 22  1  0  0  0
 30 31  2  0  0  0
 22 23  1  0  0  0
 22  1  1  0  0  0
  1  2  1  0  0  0
  1  5  1  0  0  0
  2  3  1  0  0  0
  3  4  1  0  0  0
  3 11  1  0  0  0
  3 18  1  0  0  0
  4  5  1  0  0  0
  4  9  1  0  0  0
  5  6  1  0  0  0
  6  7  2  0  0  0
  6  8  1  0  0  0
  8  9  1  0  0  0
  8 32  1  0  0  0
  9 10  2  0  0  0
 32 33  1  0  0  0
 33 34  1  0  0  0
 34 35  1  0  0  0
 35 36  1  0  0  0
 11 12  1  0  0  0
 11 16  2  0  0  0
 12 13  2  0  0  0
 12 17  1  0  0  0
 13 14  1  0  0  0
 14 15  2  0  0  0
 15 16  1  0  0  0
 17 18  1  0  0  0
 18 19  2  0  0  0
 23 24  1  0  0  0
  2 20  1  0  0  0
 17 21  1  0  0  0
M  END
> <minimizedAffinity>
-9.84990

$$$$
1958


 28 31  0  0  0  0  0  0  0  0999 V2000
   20.0048  -54.1609   34.4043 C   0  0  0  0  0  0  0  0  0  0  0  0
   20.7762  -53.2000   34.0591 O   0  0  0  0  0  0  0  0  0  0  0  0
   19.1336  -54.7750   33.4932 N   0  0  0  0  0  0  0  0  0  0  0  0
   18.2700  -55.8480   33.8718 C   0  0  0  0  0  0  0  0  0  0  0  0
   17.9020  -56.7744   32.7471 C   0  0  0  0  0  0  0  0  0  0  0  0
   18.9372  -56.7269   31.6865 C   0  0  0  0  0  0  0  0  0  0  0  0
   19.5483  -55.5338   31.3480 C   0  0  0  0  0  0  0  0  0  0  0  0
   20.4788  -55.4795   30.3885 N   0  0  0  0  0  0  0  0  0  0  0  0
   20.8791  -56.5677   29.6971 C   0  0  0  0  0  0  0  0  0  0  0  0
   20.2834  -57.7393   30.0256 N   0  0  0  0  0  0  0  0  0  0  0  0
   19.3439  -57.8443   30.9811 C   0  0  0  0  0  0  0  0  0  0  0  0
   18.7534  -59.0605   31.2929 O   0  0  0  0  0  0  0  0  0  0  0  0
   19.1003  -54.3219   32.1304 C   0  0  0  0  0  0  0  0  0  0  0  0
   19.2818  -59.8307   31.7108 H   0  0  0  0  0  0  0  0  0  0  0  0
   21.8630  -56.4572   28.6998 N   0  0  0  0  0  0  0  0  0  0  0  0
   22.6945  -57.5752   28.3656 C   0  0  0  0  0  0  0  0  0  0  0  0
   23.2002  -57.3226   26.9379 C   0  0  0  0  0  0  0  0  0  0  0  0
   23.9672  -56.1861   26.8771 O   0  0  0  0  0  0  0  0  0  0  0  0
   23.4512  -55.0762   27.4891 C   0  0  0  0  0  0  0  0  0  0  0  0
   22.0456  -55.2180   28.0046 C   0  0  0  0  0  0  0  0  0  0  0  0
   20.0801  -54.5977   35.8355 C   0  0  0  0  0  0  0  0  0  0  0  0
   16.0185  -51.7636   39.2784 Cl  0  0  0  0  0  0  0  0  0  0  0  0
   17.2019  -52.5762   38.2775 C   0  0  0  0  0  0  0  0  0  0  0  0
   18.2151  -51.8571   37.6518 C   0  0  0  0  0  0  0  0  0  0  0  0
   19.1410  -52.5087   36.8662 C   0  0  0  0  0  0  0  0  0  0  0  0
   19.1061  -53.8721   36.6663 C   0  0  0  0  0  0  0  0  0  0  0  0
   18.1056  -54.5912   37.2828 C   0  0  0  0  0  0  0  0  0  0  0  0
   17.1801  -53.9420   38.0686 C   0  0  0  0  0  0  0  0  0  0  0  0
 22 23  1  0  0  0
 23 24  2  0  0  0
 23 28  1  0  0  0
 24 25  1  0  0  0
 25 26  2  0  0  0
 26 27  1  0  0  0
 26 21  1  0  0  0
 27 28  2  0  0  0
 21  1  1  0  0  0
  1  2  2  0  0  0
  1  3  1  0  0  0
  3  4  1  0  0  0
  3 13  1  0  0  0
  4  5  1  0  0  0
  5  6  1  0  0  0
  6  7  2  0  0  0
  6 11  1  0  0  0
  7  8  1  0  0  0
  7 13  1  0  0  0
  8  9  2  0  0  0
  9 10  1  0  0  0
  9 15  1  0  0  0
 10 11  2  0  0  0
 11 12  1  0  0  0
 15 16  1  0  0  0
 15 20  1  0  0  0
 16 17  1  0  0  0
 17 18  1  0  0  0
 18 19  1  0  0  0
 19 20  1  0  0  0
 12 14  1  0  0  0
M  END
> <minimizedAffinity>
-9.64166

$$$$
1960


 28 31  0  0  0  0  0  0  0  0999 V2000
   14.2452  -56.5148   38.3561 C   0  0  0  0  0  0  0  0  0  0  0  0
   13.2614  -55.8000   38.0289 O   0  0  0  0  0  0  0  0  0  0  0  0
   14.4114  -57.7592   37.7281 N   0  0  0  0  0  0  0  0  0  0  0  0
   13.4586  -58.2287   36.7068 C   0  0  0  0  0  0  0  0  0  0  0  0
   14.2444  -58.9576   35.6275 C   0  0  0  0  0  0  0  0  0  0  0  0
   15.5776  -58.3898   35.6288 N   0  0  0  0  0  0  0  0  0  0  0  0
   16.4097  -58.7588   36.7613 C   0  0  0  0  0  0  0  0  0  0  0  0
   15.5018  -58.6848   38.0010 C   0  0  0  0  0  0  0  0  0  0  0  0
   16.0277  -57.5218   34.6005 C   0  0  0  0  0  0  0  0  0  0  0  0
   15.2355  -57.2934   33.4904 C   0  0  0  0  0  0  0  0  0  0  0  0
   15.6981  -56.4642   32.5098 N   0  0  0  0  0  0  0  0  0  0  0  0
   16.8723  -55.8671   32.5697 N   0  0  0  0  0  0  0  0  0  0  0  0
   17.7073  -56.0479   33.6394 C   0  0  0  0  0  0  0  0  0  0  0  0
   17.2415  -56.8760   34.6153 C   0  0  0  0  0  0  0  0  0  0  0  0
   18.9519  -55.3801   33.6375 N   0  0  0  0  0  0  0  0  0  0  0  0
   19.5447  -54.9030   34.8730 C   0  0  0  0  0  0  0  0  0  0  0  0
   20.0889  -53.4852   34.6924 C   0  0  0  0  0  0  0  0  0  0  0  0
   20.8355  -53.3700   33.5367 O   0  0  0  0  0  0  0  0  0  0  0  0
   19.9990  -53.6172   32.4590 C   0  0  0  0  0  0  0  0  0  0  0  0
   19.6989  -55.1265   32.4326 C   0  0  0  0  0  0  0  0  0  0  0  0
   15.1593  -55.9841   39.3853 C   0  0  0  0  0  0  0  0  0  0  0  0
   18.2418  -51.1923   37.4064 Cl  0  0  0  0  0  0  0  0  0  0  0  0
   17.3584  -52.5776   37.9703 C   0  0  0  0  0  0  0  0  0  0  0  0
   16.3579  -52.4428   38.9344 C   0  0  0  0  0  0  0  0  0  0  0  0
   15.6590  -53.5501   39.3788 C   0  0  0  0  0  0  0  0  0  0  0  0
   15.9340  -54.8201   38.8782 C   0  0  0  0  0  0  0  0  0  0  0  0
   16.9134  -54.9567   37.9340 C   0  0  0  0  0  0  0  0  0  0  0  0
   17.6168  -53.8386   37.4863 C   0  0  0  0  0  0  0  0  0  0  0  0
 22 23  1  0  0  0
 23 24  2  0  0  0
 23 28  1  0  0  0
 24 25  1  0  0  0
 25 26  2  0  0  0
 26 27  1  0  0  0
 26 21  1  0  0  0
 27 28  2  0  0  0
 21  1  1  0  0  0
  1  2  2  0  0  0
  1  3  1  0  0  0
  3  4  1  0  0  0
  3  8  1  0  0  0
  4  5  1  0  0  0
  5  6  1  0  0  0
  6  7  1  0  0  0
  6  9  1  0  0  0
  7  8  1  0  0  0
  9 10  2  0  0  0
  9 14  1  0  0  0
 10 11  1  0  0  0
 11 12  2  0  0  0
 12 13  1  0  0  0
 13 14  2  0  0  0
 13 15  1  0  0  0
 15 16  1  0  0  0
 15 20  1  0  0  0
 16 17  1  0  0  0
 17 18  1  0  0  0
 18 19  1  0  0  0
 19 20  1  0  0  0
M  END
> <minimizedAffinity>
-9.73712

$$$$
1966


 27 30  0  0  0  0  0  0  0  0999 V2000
   15.0126  -56.5259   38.1683 C   0  0  0  0  0  0  0  0  0  0  0  0
   14.2776  -56.3633   39.2186 O   0  0  0  0  0  0  0  0  0  0  0  0
   14.9940  -57.6502   37.3819 N   0  0  0  0  0  0  0  0  0  0  0  0
   14.0499  -58.2182   38.1913 H   0  0  0  0  0  0  0  0  0  0  0  0
   17.5768  -56.1616   36.4100 F   0  0  0  0  0  0  0  0  0  0  0  0
   16.9862  -55.2005   37.1616 C   0  0  0  0  0  0  0  0  0  0  0  0
   17.4772  -53.9251   37.2260 N   0  0  0  0  0  0  0  0  0  0  0  0
   16.6499  -53.2686   38.0547 C   0  0  0  0  0  0  0  0  0  0  0  0
   15.6909  -54.1058   38.4822 N   0  0  0  0  0  0  0  0  0  0  0  0
   15.8663  -55.3285   37.9442 C   0  0  0  0  0  0  0  0  0  0  0  0
   16.9238  -51.9447   38.2973 C   0  0  0  0  0  0  0  0  0  0  0  0
   18.0096  -51.2853   37.7182 C   0  0  0  0  0  0  0  0  0  0  0  0
   18.8309  -51.9880   36.8777 C   0  0  0  0  0  0  0  0  0  0  0  0
   18.5326  -53.3267   36.6494 C   0  0  0  0  0  0  0  0  0  0  0  0
   20.2178  -51.2179   36.1073 Cl  0  0  0  0  0  0  0  0  0  0  0  0
   14.9763  -58.7682   36.6009 C   0  0  0  0  0  0  0  0  0  0  0  0
   14.1188  -58.6859   35.3630 C   0  0  0  0  0  0  0  0  0  0  0  0
   14.5224  -58.2672   34.1610 N   0  0  0  0  0  0  0  0  0  0  0  0
   13.4893  -58.3439   33.3394 N   0  0  0  0  0  0  0  0  0  0  0  0
   12.4365  -58.8008   33.9825 N   0  0  0  0  0  0  0  0  0  0  0  0
   12.8359  -59.0104   35.2372 N   0  0  0  0  0  0  0  0  0  0  0  0
   15.8607  -57.8413   33.8984 C   0  0  0  0  0  0  0  0  0  0  0  0
   16.0595  -56.5314   33.4751 C   0  0  0  0  0  0  0  0  0  0  0  0
   17.3339  -56.0594   33.1857 C   0  0  0  0  0  0  0  0  0  0  0  0
   18.4415  -56.8740   33.3080 C   0  0  0  0  0  0  0  0  0  0  0  0
   18.2368  -58.1707   33.7285 C   0  0  0  0  0  0  0  0  0  0  0  0
   16.9693  -58.6441   34.0168 C   0  0  0  0  0  0  0  0  0  0  0  0
  5  6  1  0  0  0
  6  7  1  0  0  0
  6 10  2  0  0  0
  7  8  1  0  0  0
  7 14  1  0  0  0
  8  9  2  0  0  0
  8 11  1  0  0  0
  9 10  1  0  0  0
 10  1  1  0  0  0
  1  2  2  0  0  0
  1  3  1  0  0  0
  3 16  1  0  0  0
 16 17  1  0  0  0
 17 18  1  0  0  0
 17 21  2  0  0  0
 18 19  1  0  0  0
 18 22  1  0  0  0
 19 20  2  0  0  0
 20 21  1  0  0  0
 22 23  2  0  0  0
 22 27  1  0  0  0
 23 24  1  0  0  0
 24 25  2  0  0  0
 25 26  1  0  0  0
 26 27  2  0  0  0
 11 12  2  0  0  0
 12 13  1  0  0  0
 13 14  2  0  0  0
 13 15  1  0  0  0
  3  4  1  0  0  0
M  END
> <minimizedAffinity>
-10.20565

$$$$
1969


 26 29  0  0  0  0  0  0  0  0999 V2000
   17.2684  -57.7916   33.4267 C   0  0  0  0  0  0  0  0  0  0  0  0
   18.0488  -58.9171   33.6719 O   0  0  0  0  0  0  0  0  0  0  0  0
   15.9493  -58.0985   33.4527 N   0  0  0  0  0  0  0  0  0  0  0  0
   14.7749  -57.2832   33.3569 C   0  0  0  0  0  0  0  0  0  0  0  0
   13.6025  -57.9952   34.0626 C   0  0  0  0  0  0  0  0  0  0  0  0
   14.2481  -58.7297   35.1600 N   0  0  0  0  0  0  0  0  0  0  0  0
   15.0417  -59.8717   34.8478 C   0  0  0  0  0  0  0  0  0  0  0  0
   15.6503  -59.5649   33.5172 C   0  0  0  0  0  0  0  0  0  0  0  0
   14.1693  -58.2330   36.4560 C   0  0  0  0  0  0  0  0  0  0  0  0
   15.0793  -57.2745   36.9164 N   0  0  0  0  0  0  0  0  0  0  0  0
   15.0803  -56.7319   38.0827 C   0  0  0  0  0  0  0  0  0  0  0  0
   14.1167  -57.0537   39.0511 C   0  0  0  0  0  0  0  0  0  0  0  0
   13.2130  -58.0096   38.6058 C   0  0  0  0  0  0  0  0  0  0  0  0
   13.2674  -58.5169   37.4320 N   0  0  0  0  0  0  0  0  0  0  0  0
   18.5495  -54.7813   34.6501 N   0  0  0  0  0  0  0  0  0  0  0  0
   19.3999  -54.8836   33.6513 N   0  0  0  0  0  0  0  0  0  0  0  0
   19.1127  -55.8933   33.1008 N   0  0  0  0  0  0  0  0  0  0  0  0
   18.2719  -56.7573   33.2495 C   0  0  0  0  0  0  0  0  0  0  0  0
   17.7709  -55.8269   34.5664 C   0  0  0  0  0  0  0  0  0  0  0  0
   16.7241  -51.9338   38.6592 Cl  0  0  0  0  0  0  0  0  0  0  0  0
   17.8344  -52.3154   37.3808 C   0  0  0  0  0  0  0  0  0  0  0  0
   17.7088  -53.4163   36.5434 C   0  0  0  0  0  0  0  0  0  0  0  0
   18.6016  -53.6561   35.5572 C   0  0  0  0  0  0  0  0  0  0  0  0
   19.6383  -52.7539   35.4289 C   0  0  0  0  0  0  0  0  0  0  0  0
   19.8126  -51.6644   36.2136 C   0  0  0  0  0  0  0  0  0  0  0  0
   18.9271  -51.4064   37.2020 C   0  0  0  0  0  0  0  0  0  0  0  0
 20 21  1  0  0  0
 21 22  2  0  0  0
 21 26  1  0  0  0
 22 23  1  0  0  0
 23 24  2  0  0  0
 23 15  1  0  0  0
 24 25  1  0  0  0
 25 26  2  0  0  0
 15 16  1  0  0  0
 15 19  1  0  0  0
 16 17  2  0  0  0
 17 18  1  0  0  0
 18 19  2  0  0  0
 18  1  1  0  0  0
  1  2  2  0  0  0
  1  3  1  0  0  0
  3  4  1  0  0  0
  3  8  1  0  0  0
  4  5  1  0  0  0
  5  6  1  0  0  0
  6  7  1  0  0  0
  6  9  1  0  0  0
  7  8  1  0  0  0
  9 10  2  0  0  0
  9 14  1  0  0  0
 10 11  1  0  0  0
 11 12  2  0  0  0
 12 13  1  0  0  0
 13 14  2  0  0  0
M  END
> <minimizedAffinity>
-9.36937

$$$$
1971


 22 25  0  0  0  0  0  0  0  0999 V2000
   18.3675  -55.1152   34.9120 N   0  0  0  0  0  0  0  0  0  0  0  0
   18.8780  -55.3049   33.5791 C   0  0  0  0  0  0  0  0  0  0  0  0
   19.4118  -54.4067   32.8865 O   0  0  0  0  0  0  0  0  0  0  0  0
   18.6773  -56.6917   33.1676 C   0  0  0  0  0  0  0  0  0  0  0  0
   17.6149  -56.9057   32.1406 C   0  0  0  0  0  0  0  0  0  0  0  0
   17.2478  -58.2428   32.4369 O   0  0  0  0  0  0  0  0  0  0  0  0
   16.8148  -58.0005   33.7662 C   0  0  0  0  0  0  0  0  0  0  0  0
   18.0652  -57.4175   34.3766 C   0  0  0  0  0  0  0  0  0  0  0  0
   17.7307  -56.3283   35.2966 C   0  0  0  0  0  0  0  0  0  0  0  0
   16.9839  -56.4284   36.3006 O   0  0  0  0  0  0  0  0  0  0  0  0
   15.8622  -56.8926   33.5432 C   0  0  0  0  0  0  0  0  0  0  0  0
   16.3526  -56.2127   32.4816 C   0  0  0  0  0  0  0  0  0  0  0  0
   16.3297  -52.1244   38.6352 Cl  0  0  0  0  0  0  0  0  0  0  0  0
   17.5660  -52.5128   37.4592 C   0  0  0  0  0  0  0  0  0  0  0  0
   17.4811  -53.6371   36.6658 C   0  0  0  0  0  0  0  0  0  0  0  0
   18.4530  -53.9550   35.7305 C   0  0  0  0  0  0  0  0  0  0  0  0
   19.5243  -53.0904   35.6245 C   0  0  0  0  0  0  0  0  0  0  0  0
   19.6108  -51.9577   36.4235 C   0  0  0  0  0  0  0  0  0  0  0  0
   18.6369  -51.6489   37.3514 C   0  0  0  0  0  0  0  0  0  0  0  0
   18.0548  -56.7500   30.7280 C   0  0  0  0  0  0  0  0  0  0  0  0
   18.0547  -55.4026   30.3907 O   0  0  0  0  0  0  0  0  0  0  0  0
   17.7360  -54.8601   31.1487 H   0  0  0  0  0  0  0  0  0  0  0  0
 13 14  1  0  0  0
 14 15  2  0  0  0
 14 19  1  0  0  0
 15 16  1  0  0  0
 16 17  2  0  0  0
 16  1  1  0  0  0
 17 18  1  0  0  0
 18 19  2  0  0  0
  1  2  1  0  0  0
  1  9  1  0  0  0
  2  3  2  0  0  0
  2  4  1  0  0  0
  4  5  1  0  0  0
  4  8  1  0  0  0
  5  6  1  0  0  0
  5 12  1  0  0  0
  5 20  1  0  0  0
  6  7  1  0  0  0
  7  8  1  0  0  0
  7 11  1  0  0  0
  8  9  1  0  0  0
  9 10  2  0  0  0
 11 12  2  0  0  0
 20 21  1  0  0  0
 21 22  1  0  0  0
M  END
> <minimizedAffinity>
-9.21067

$$$$
1973


 24 27  0  0  0  0  0  0  0  0999 V2000
   18.4926  -51.9392   37.0699 Cl  0  0  0  0  0  0  0  0  0  0  0  0
   17.2824  -53.0294   37.7448 C   0  0  0  0  0  0  0  0  0  0  0  0
   17.1843  -54.3476   37.3493 C   0  0  0  0  0  0  0  0  0  0  0  0
   16.2619  -55.2006   37.8564 N   0  0  0  0  0  0  0  0  0  0  0  0
   15.3738  -54.8072   38.7882 C   0  0  0  0  0  0  0  0  0  0  0  0
   14.4413  -55.6479   39.3082 N   0  0  0  0  0  0  0  0  0  0  0  0
   14.3388  -56.9344   38.9281 C   0  0  0  0  0  0  0  0  0  0  0  0
   15.2496  -57.3571   37.9653 C   0  0  0  0  0  0  0  0  0  0  0  0
   15.1375  -58.7779   37.5438 C   0  0  0  0  0  0  0  0  0  0  0  0
   13.7027  -59.0063   37.3380 N   0  0  0  0  0  0  0  0  0  0  0  0
   12.8367  -58.8569   38.4732 C   0  0  0  0  0  0  0  0  0  0  0  0
   13.3260  -57.8643   39.4899 C   0  0  0  0  0  0  0  0  0  0  0  0
   13.2051  -59.3522   36.0624 C   0  0  0  0  0  0  0  0  0  0  0  0
   14.0567  -59.4448   35.1147 O   0  0  0  0  0  0  0  0  0  0  0  0
   16.1842  -56.4826   37.4563 C   0  0  0  0  0  0  0  0  0  0  0  0
   17.0068  -56.8944   36.5758 O   0  0  0  0  0  0  0  0  0  0  0  0
   15.4550  -53.4866   39.1985 C   0  0  0  0  0  0  0  0  0  0  0  0
   16.3847  -52.5989   38.6983 C   0  0  0  0  0  0  0  0  0  0  0  0
   11.7709  -59.6049   35.7996 C   0  0  0  0  0  0  0  0  0  0  0  0
   11.2118  -60.7001   36.6809 C   0  0  0  0  0  0  0  0  0  0  0  0
   12.2781  -61.7873   36.7163 C   0  0  0  0  0  0  0  0  0  0  0  0
   12.8769  -61.9133   35.4640 O   0  0  0  0  0  0  0  0  0  0  0  0
   11.9760  -61.6144   34.4327 C   0  0  0  0  0  0  0  0  0  0  0  0
   11.6479  -60.1349   34.3633 C   0  0  0  0  0  0  0  0  0  0  0  0
  1  2  1  0  0  0
  2  3  2  0  0  0
  2 18  1  0  0  0
  3  4  1  0  0  0
  4  5  1  0  0  0
  4 15  1  0  0  0
  5  6  2  0  0  0
  5 17  1  0  0  0
  6  7  1  0  0  0
  7  8  2  0  0  0
  7 12  1  0  0  0
  8  9  1  0  0  0
  8 15  1  0  0  0
  9 10  1  0  0  0
 10 11  1  0  0  0
 10 13  1  0  0  0
 11 12  1  0  0  0
 13 14  2  0  0  0
 13 19  1  0  0  0
 19 20  1  0  0  0
 19 24  1  0  0  0
 20 21  1  0  0  0
 21 22  1  0  0  0
 22 23  1  0  0  0
 23 24  1  0  0  0
 15 16  2  0  0  0
 17 18  2  0  0  0
M  END
> <minimizedAffinity>
-8.73415

$$$$
1974


 26 29  0  0  0  0  0  0  0  0999 V2000
   19.9551  -53.1026   34.8022 F   0  0  0  0  0  0  0  0  0  0  0  0
   19.1283  -52.8986   35.8557 C   0  0  0  0  0  0  0  0  0  0  0  0
   18.2548  -53.9139   36.2146 C   0  0  0  0  0  0  0  0  0  0  0  0
   17.3851  -53.7778   37.2740 C   0  0  0  0  0  0  0  0  0  0  0  0
   17.4095  -52.5844   37.9756 C   0  0  0  0  0  0  0  0  0  0  0  0
   18.2754  -51.5765   37.6213 C   0  0  0  0  0  0  0  0  0  0  0  0
   19.1414  -51.7189   36.5620 C   0  0  0  0  0  0  0  0  0  0  0  0
   16.3036  -52.4058   39.3261 Cl  0  0  0  0  0  0  0  0  0  0  0  0
   16.5792  -54.9683   37.4497 C   0  0  0  0  0  0  0  0  0  0  0  0
   15.6939  -55.1913   38.3068 O   0  0  0  0  0  0  0  0  0  0  0  0
   17.0110  -55.8862   36.4034 C   0  0  0  0  0  0  0  0  0  0  0  0
   16.5455  -57.0531   36.2122 O   0  0  0  0  0  0  0  0  0  0  0  0
   18.0281  -55.2286   35.6642 N   0  0  0  0  0  0  0  0  0  0  0  0
   18.7531  -55.7538   34.5256 C   0  0  0  0  0  0  0  0  0  0  0  0
   18.2463  -55.2815   33.2544 N   0  0  0  0  0  0  0  0  0  0  0  0
   19.2848  -55.2087   32.2848 C   0  0  0  0  0  0  0  0  0  0  0  0
   18.9420  -55.7315   30.9344 C   0  0  0  0  0  0  0  0  0  0  0  0
   18.1220  -56.9145   30.9624 N   0  0  0  0  0  0  0  0  0  0  0  0
   17.4197  -57.2379   32.1824 C   0  0  0  0  0  0  0  0  0  0  0  0
   17.0473  -55.9224   32.8325 C   0  0  0  0  0  0  0  0  0  0  0  0
   17.9801  -57.7651   29.8427 C   0  0  0  0  0  0  0  0  0  0  0  0
   16.9230  -58.5843   29.7158 N   0  0  0  0  0  0  0  0  0  0  0  0
   16.7653  -59.4048   28.6587 C   0  0  0  0  0  0  0  0  0  0  0  0
   17.7068  -59.4310   27.6478 C   0  0  0  0  0  0  0  0  0  0  0  0
   18.7653  -58.6138   27.7684 N   0  0  0  0  0  0  0  0  0  0  0  0
   18.9246  -57.7935   28.8244 C   0  0  0  0  0  0  0  0  0  0  0  0
  1  2  1  0  0  0
  2  3  2  0  0  0
  2  7  1  0  0  0
  3  4  1  0  0  0
  3 13  1  0  0  0
  4  5  2  0  0  0
  4  9  1  0  0  0
  5  6  1  0  0  0
  5  8  1  0  0  0
  6  7  2  0  0  0
  9 10  2  0  0  0
  9 11  1  0  0  0
 11 12  2  0  0  0
 11 13  1  0  0  0
 13 14  1  0  0  0
 14 15  1  0  0  0
 15 16  1  0  0  0
 15 20  1  0  0  0
 16 17  1  0  0  0
 17 18  1  0  0  0
 18 19  1  0  0  0
 18 21  1  0  0  0
 19 20  1  0  0  0
 21 22  2  0  0  0
 21 26  1  0  0  0
 22 23  1  0  0  0
 23 24  2  0  0  0
 24 25  1  0  0  0
 25 26  2  0  0  0
M  END
> <minimizedAffinity>
-9.37202

$$$$
1976


 26 29  0  0  0  0  0  0  0  0999 V2000
   16.2702  -57.9757   34.7864 C   0  0  0  0  0  0  0  0  0  0  0  0
   15.0605  -58.2755   34.4942 O   0  0  0  0  0  0  0  0  0  0  0  0
   17.1760  -57.4879   33.8081 N   0  0  0  0  0  0  0  0  0  0  0  0
   18.5058  -57.1673   34.1911 C   0  0  0  0  0  0  0  0  0  0  0  0
   18.8408  -55.7806   33.6276 C   0  0  0  0  0  0  0  0  0  0  0  0
   18.7799  -56.0075   32.1321 C   0  0  0  0  0  0  0  0  0  0  0  0
   17.7598  -56.7722   31.6049 C   0  0  0  0  0  0  0  0  0  0  0  0
   17.7310  -56.9745   30.2567 N   0  0  0  0  0  0  0  0  0  0  0  0
   18.6519  -56.4606   29.4263 C   0  0  0  0  0  0  0  0  0  0  0  0
   19.6395  -55.7180   29.9570 N   0  0  0  0  0  0  0  0  0  0  0  0
   19.7233  -55.4783   31.2994 C   0  0  0  0  0  0  0  0  0  0  0  0
   20.7380  -54.7150   31.8477 O   0  0  0  0  0  0  0  0  0  0  0  0
   16.7122  -57.3512   32.4688 C   0  0  0  0  0  0  0  0  0  0  0  0
   20.4918  -53.8243   32.2630 H   0  0  0  0  0  0  0  0  0  0  0  0
   16.6958  -58.1602   36.2112 C   0  0  0  0  0  0  0  0  0  0  0  0
   14.4028  -58.6113   38.1052 Cl  0  0  0  0  0  0  0  0  0  0  0  0
   15.2169  -57.0781   37.9442 C   0  0  0  0  0  0  0  0  0  0  0  0
   14.8423  -55.9754   38.6955 C   0  0  0  0  0  0  0  0  0  0  0  0
   15.4767  -54.7525   38.5793 C   0  0  0  0  0  0  0  0  0  0  0  0
   16.5189  -54.6545   37.6768 C   0  0  0  0  0  0  0  0  0  0  0  0
   16.8791  -55.7644   36.9359 C   0  0  0  0  0  0  0  0  0  0  0  0
   16.2560  -56.9956   37.0381 C   0  0  0  0  0  0  0  0  0  0  0  0
   17.1522  -53.4344   37.5621 O   0  0  0  0  0  0  0  0  0  0  0  0
   17.0980  -52.4006   38.5241 C   0  0  0  0  0  0  0  0  0  0  0  0
   15.9898  -52.5329   39.5078 C   0  0  0  0  0  0  0  0  0  0  0  0
   15.1449  -53.6318   39.2987 O   0  0  0  0  0  0  0  0  0  0  0  0
 16 17  1  0  0  0
 17 18  2  0  0  0
 17 22  1  0  0  0
 18 19  1  0  0  0
 19 20  2  0  0  0
 19 26  1  0  0  0
 20 21  1  0  0  0
 20 23  1  0  0  0
 21 22  2  0  0  0
 22 15  1  0  0  0
 15  1  1  0  0  0
  1  2  2  0  0  0
  1  3  1  0  0  0
  3  4  1  0  0  0
  3 13  1  0  0  0
  4  5  1  0  0  0
  5  6  1  0  0  0
  6  7  2  0  0  0
  6 11  1  0  0  0
  7  8  1  0  0  0
  7 13  1  0  0  0
  8  9  2  0  0  0
  9 10  1  0  0  0
 10 11  2  0  0  0
 11 12  1  0  0  0
 23 24  1  0  0  0
 24 25  1  0  0  0
 25 26  1  0  0  0
 12 14  1  0  0  0
M  END
> <minimizedAffinity>
-9.10283

$$$$
1982


 25 28  0  0  0  0  0  0  0  0999 V2000
   19.5937  -50.6124   36.5101 Cl  0  0  0  0  0  0  0  0  0  0  0  0
   18.5054  -51.8925   37.0022 C   0  0  0  0  0  0  0  0  0  0  0  0
   18.4668  -53.1202   36.3746 C   0  0  0  0  0  0  0  0  0  0  0  0
   17.6137  -54.1375   36.7512 C   0  0  0  0  0  0  0  0  0  0  0  0
   16.7625  -53.8970   37.8128 C   0  0  0  0  0  0  0  0  0  0  0  0
   16.7921  -52.6733   38.4490 C   0  0  0  0  0  0  0  0  0  0  0  0
   17.6449  -51.6562   38.0714 C   0  0  0  0  0  0  0  0  0  0  0  0
   15.8398  -54.9730   38.2353 C   0  0  0  0  0  0  0  0  0  0  0  0
   14.9751  -55.0120   39.1596 N   0  0  0  0  0  0  0  0  0  0  0  0
   14.2704  -56.2739   39.2409 C   0  0  0  0  0  0  0  0  0  0  0  0
   14.8533  -57.1087   38.1480 C   0  0  0  0  0  0  0  0  0  0  0  0
   15.8368  -56.2215   37.5570 N   0  0  0  0  0  0  0  0  0  0  0  0
   16.7480  -56.3883   36.4707 C   0  0  0  0  0  0  0  0  0  0  0  0
   16.9647  -57.4398   35.6604 N   0  0  0  0  0  0  0  0  0  0  0  0
   17.9092  -57.1682   34.7762 N   0  0  0  0  0  0  0  0  0  0  0  0
   18.2925  -55.8970   35.0503 C   0  0  0  0  0  0  0  0  0  0  0  0
   19.1804  -55.2968   34.4066 O   0  0  0  0  0  0  0  0  0  0  0  0
   17.5951  -55.3989   36.0847 N   0  0  0  0  0  0  0  0  0  0  0  0
   18.4211  -58.0431   33.7389 C   0  0  0  0  0  0  0  0  0  0  0  0
   17.3475  -58.2250   32.6568 C   0  0  0  0  0  0  0  0  0  0  0  0
   16.8335  -56.9022   32.2210 C   0  0  0  0  0  0  0  0  0  0  0  0
   15.6717  -56.4819   32.4504 O   0  0  0  0  0  0  0  0  0  0  0  0
   17.7117  -56.0557   31.4970 N   0  0  0  0  0  0  0  0  0  0  0  0
   18.3906  -56.4006   30.7943 H   0  0  0  0  0  0  0  0  0  0  0  0
   17.6670  -55.0333   31.6879 H   0  0  0  0  0  0  0  0  0  0  0  0
  1  2  1  0  0  0
  2  3  2  0  0  0
  2  7  1  0  0  0
  3  4  1  0  0  0
  4  5  2  0  0  0
  4 18  1  0  0  0
  5  6  1  0  0  0
  5  8  1  0  0  0
  6  7  2  0  0  0
  8  9  2  0  0  0
  8 12  1  0  0  0
  9 10  1  0  0  0
 10 11  1  0  0  0
 11 12  1  0  0  0
 12 13  1  0  0  0
 13 14  2  0  0  0
 13 18  1  0  0  0
 14 15  1  0  0  0
 15 16  1  0  0  0
 15 19  1  0  0  0
 16 17  2  0  0  0
 16 18  1  0  0  0
 19 20  1  0  0  0
 20 21  1  0  0  0
 21 22  2  0  0  0
 21 23  1  0  0  0
 23 24  1  0  0  0
 23 25  1  0  0  0
M  END
> <minimizedAffinity>
-9.47135

$$$$
1986


 30 33  0  0  0  0  0  0  0  0999 V2000
   19.8137  -53.6039   35.3241 Cl  0  0  0  0  0  0  0  0  0  0  0  0
   19.4203  -54.6607   33.9793 C   0  0  0  0  0  0  0  0  0  0  0  0
   18.9633  -55.9453   34.1955 C   0  0  0  0  0  0  0  0  0  0  0  0
   18.6499  -56.7898   33.1225 C   0  0  0  0  0  0  0  0  0  0  0  0
   18.8200  -56.2751   31.8631 C   0  0  0  0  0  0  0  0  0  0  0  0
   19.2846  -54.9703   31.6480 C   0  0  0  0  0  0  0  0  0  0  0  0
   19.5902  -54.1474   32.7100 C   0  0  0  0  0  0  0  0  0  0  0  0
   18.5145  -57.0939   30.7796 O   0  0  0  0  0  0  0  0  0  0  0  0
   18.0521  -58.3917   30.9153 C   0  0  0  0  0  0  0  0  0  0  0  0
   17.8811  -58.9105   32.1891 C   0  0  0  0  0  0  0  0  0  0  0  0
   18.1679  -58.1543   33.4133 C   0  0  0  0  0  0  0  0  0  0  0  0
   17.4162  -60.2079   32.2726 C   0  0  0  0  0  0  0  0  0  0  0  0
   17.2395  -60.7376   33.4155 O   0  0  0  0  0  0  0  0  0  0  0  0
   17.1281  -60.9792   31.2126 N   0  0  0  0  0  0  0  0  0  0  0  0
   17.3104  -60.4295   29.9872 C   0  0  0  0  0  0  0  0  0  0  0  0
   17.0340  -61.1709   29.0059 O   0  0  0  0  0  0  0  0  0  0  0  0
   17.7616  -59.1684   29.8577 N   0  0  0  0  0  0  0  0  0  0  0  0
   17.9312  -58.6533   28.5139 C   0  0  0  0  0  0  0  0  0  0  0  0
   16.6355  -62.3493   31.3575 C   0  0  0  0  0  0  0  0  0  0  0  0
   16.9209  -58.0617   34.2411 C   0  0  0  0  0  0  0  0  0  0  0  0
   15.7247  -57.6780   33.6759 C   0  0  0  0  0  0  0  0  0  0  0  0
   14.6002  -57.5958   34.4382 N   0  0  0  0  0  0  0  0  0  0  0  0
   14.6437  -57.8890   35.7620 C   0  0  0  0  0  0  0  0  0  0  0  0
   13.5806  -57.8010   36.4382 O   0  0  0  0  0  0  0  0  0  0  0  0
   15.7950  -58.2654   36.3407 N   0  0  0  0  0  0  0  0  0  0  0  0
   16.9106  -58.3484   35.5915 C   0  0  0  0  0  0  0  0  0  0  0  0
   17.9657  -58.6974   36.1403 O   0  0  0  0  0  0  0  0  0  0  0  0
   15.8063  -58.5725   37.7677 C   0  0  0  0  0  0  0  0  0  0  0  0
   13.3639  -57.1859   33.7797 C   0  0  0  0  0  0  0  0  0  0  0  0
   15.6763  -57.3821   32.3422 O   0  0  0  0  0  0  0  0  0  0  0  0
  1  2  1  0  0  0
  2  3  2  0  0  0
  2  7  1  0  0  0
  3  4  1  0  0  0
  4  5  2  0  0  0
  4 11  1  0  0  0
  5  6  1  0  0  0
  5  8  1  0  0  0
  6  7  2  0  0  0
  8  9  1  0  0  0
  9 10  2  0  0  0
  9 17  1  0  0  0
 10 11  1  0  0  0
 10 12  1  0  0  0
 11 20  1  0  0  0
 20 21  2  0  0  0
 20 26  1  0  0  0
 21 22  1  0  0  0
 21 30  1  0  0  0
 22 23  1  0  0  0
 22 29  1  0  0  0
 23 24  2  0  0  0
 23 25  1  0  0  0
 25 26  1  0  0  0
 25 28  1  0  0  0
 26 27  2  0  0  0
 12 13  2  0  0  0
 12 14  1  0  0  0
 14 15  1  0  0  0
 14 19  1  0  0  0
 15 16  2  0  0  0
 15 17  1  0  0  0
 17 18  1  0  0  0
M  CHG 1  30  -1
M  END
> <minimizedAffinity>
-7.27789

$$$$
1991


 31 34  0  0  0  0  0  0  0  0999 V2000
   11.7414  -60.3728   36.7316 Cl  0  0  0  0  0  0  0  0  0  0  0  0
   12.9362  -59.3298   35.9987 C   0  0  0  0  0  0  0  0  0  0  0  0
   14.0782  -58.9719   36.6799 C   0  0  0  0  0  0  0  0  0  0  0  0
   15.0045  -58.1522   36.0897 C   0  0  0  0  0  0  0  0  0  0  0  0
   14.7834  -57.6817   34.7897 C   0  0  0  0  0  0  0  0  0  0  0  0
   13.6370  -58.0362   34.0970 C   0  0  0  0  0  0  0  0  0  0  0  0
   12.7367  -58.8553   34.7211 C   0  0  0  0  0  0  0  0  0  0  0  0
   15.6171  -56.8503   34.0578 O   0  0  0  0  0  0  0  0  0  0  0  0
   17.0032  -56.6616   34.2166 C   0  0  0  0  0  0  0  0  0  0  0  0
   17.3461  -56.0324   35.5277 C   0  0  0  0  0  0  0  0  0  0  0  0
   16.5998  -56.5110   36.6519 N   0  0  0  0  0  0  0  0  0  0  0  0
   16.1805  -57.8566   36.9472 C   0  0  0  0  0  0  0  0  0  0  0  0
   16.1922  -55.5516   37.6409 C   0  0  0  0  0  0  0  0  0  0  0  0
   15.5424  -55.9902   38.6221 O   0  0  0  0  0  0  0  0  0  0  0  0
   17.7246  -57.9814   33.9931 C   0  0  0  0  0  0  0  0  0  0  0  0
   18.1220  -58.1225   32.5344 C   0  0  0  0  0  0  0  0  0  0  0  0
   19.0789  -57.2015   32.1558 O   0  0  0  0  0  0  0  0  0  0  0  0
   18.9855  -56.0448   32.9211 C   0  0  0  0  0  0  0  0  0  0  0  0
   17.5182  -55.7204   33.1246 C   0  0  0  0  0  0  0  0  0  0  0  0
   16.5166  -54.1319   37.5143 C   0  0  0  0  0  0  0  0  0  0  0  0
   17.0740  -53.4795   38.6418 N   0  0  0  0  0  0  0  0  0  0  0  0
   17.3145  -52.0569   38.3863 C   0  0  0  0  0  0  0  0  0  0  0  0
   18.2782  -51.9420   37.2653 C   0  0  0  0  0  0  0  0  0  0  0  0
   19.4867  -52.8145   37.3318 C   0  0  0  0  0  0  0  0  0  0  0  0
   19.4765  -53.9107   38.3225 C   0  0  0  0  0  0  0  0  0  0  0  0
   18.2794  -54.0569   39.1831 C   0  0  0  0  0  0  0  0  0  0  0  0
   19.8726  -53.3154   35.9899 C   0  0  0  0  0  0  0  0  0  0  0  0
   20.1629  -54.5203   35.8469 O   0  0  0  0  0  0  0  0  0  0  0  0
   19.9107  -52.4317   34.8899 N   0  0  0  0  0  0  0  0  0  0  0  0
   19.1141  -52.5304   34.1938 H   0  0  0  0  0  0  0  0  0  0  0  0
   20.6235  -51.7161   34.7046 H   0  0  0  0  0  0  0  0  0  0  0  0
  1  2  1  0  0  0
  2  3  2  0  0  0
  2  7  1  0  0  0
  3  4  1  0  0  0
  4  5  2  0  0  0
  4 12  1  0  0  0
  5  6  1  0  0  0
  5  8  1  0  0  0
  6  7  2  0  0  0
  8  9  1  0  0  0
  9 10  1  0  0  0
  9 15  1  0  0  0
  9 19  1  0  0  0
 10 11  1  0  0  0
 11 12  1  0  0  0
 11 13  1  0  0  0
 13 14  2  0  0  0
 13 20  1  0  0  0
 20 21  1  0  0  0
 21 22  1  0  0  0
 21 26  1  0  0  0
 22 23  1  0  0  0
 23 24  1  0  0  0
 24 25  1  0  0  0
 24 27  1  0  0  0
 25 26  1  0  0  0
 27 28  2  0  0  0
 27 29  1  0  0  0
 15 16  1  0  0  0
 16 17  1  0  0  0
 17 18  1  0  0  0
 18 19  1  0  0  0
 29 30  1  0  0  0
 29 31  1  0  0  0
M  END
> <minimizedAffinity>
-10.79399

$$$$
2003


 28 31  0  0  0  0  0  0  0  0999 V2000
   13.8460  -59.8532   35.0482 N   0  0  0  0  0  0  0  0  0  0  0  0
   13.5816  -58.4697   34.7972 C   0  0  0  0  0  0  0  0  0  0  0  0
   14.7621  -57.5767   35.0738 C   0  0  0  0  0  0  0  0  0  0  0  0
   16.0173  -58.1994   34.7216 N   0  0  0  0  0  0  0  0  0  0  0  0
   16.1181  -59.5111   34.1390 C   0  0  0  0  0  0  0  0  0  0  0  0
   14.9557  -60.4034   34.3549 C   0  0  0  0  0  0  0  0  0  0  0  0
   17.2161  -57.4749   34.9623 C   0  0  0  0  0  0  0  0  0  0  0  0
   18.3563  -57.9694   34.6727 O   0  0  0  0  0  0  0  0  0  0  0  0
   17.1800  -56.1367   35.5519 C   0  0  0  0  0  0  0  0  0  0  0  0
   17.4876  -54.9909   34.8459 C   0  0  0  0  0  0  0  0  0  0  0  0
   17.4315  -53.7915   35.4542 N   0  0  0  0  0  0  0  0  0  0  0  0
   17.0845  -53.6312   36.7442 C   0  0  0  0  0  0  0  0  0  0  0  0
   16.7809  -54.7383   37.4460 N   0  0  0  0  0  0  0  0  0  0  0  0
   16.4300  -54.5983   38.7401 C   0  0  0  0  0  0  0  0  0  0  0  0
   16.3754  -53.3653   39.3579 C   0  0  0  0  0  0  0  0  0  0  0  0
   16.6806  -52.2098   38.6647 C   0  0  0  0  0  0  0  0  0  0  0  0
   17.0376  -52.3765   37.3379 C   0  0  0  0  0  0  0  0  0  0  0  0
   16.8253  -55.9566   36.8738 C   0  0  0  0  0  0  0  0  0  0  0  0
   16.5424  -56.9899   37.5284 O   0  0  0  0  0  0  0  0  0  0  0  0
   12.4685  -60.8357   35.1100 S   0  0  0  0  0  0  0  0  0  0  0  0
   11.3881  -60.2995   34.2515 O   0  0  0  0  0  0  0  0  0  0  0  0
   12.8438  -62.2268   34.6510 O   0  0  0  0  0  0  0  0  0  0  0  0
   11.9129  -60.9304   36.7898 C   0  0  0  0  0  0  0  0  0  0  0  0
   12.5028  -60.1277   38.1729 S   0  0  0  0  0  0  0  0  0  0  0  0
   11.4322  -60.7691   39.3347 C   0  0  0  0  0  0  0  0  0  0  0  0
   10.6367  -61.6011   38.5965 C   0  0  0  0  0  0  0  0  0  0  0  0
   10.8818  -61.6868   37.2856 C   0  0  0  0  0  0  0  0  0  0  0  0
   11.3362  -60.4612   41.0806 Cl  0  0  0  0  0  0  0  0  0  0  0  0
 20 21  2  0  0  0
 20 22  2  0  0  0
 20  1  1  0  0  0
 20 23  1  0  0  0
  1  2  1  0  0  0
  1  6  1  0  0  0
  2  3  1  0  0  0
  3  4  1  0  0  0
  4  5  1  0  0  0
  4  7  1  0  0  0
  5  6  1  0  0  0
  7  8  2  0  0  0
  7  9  1  0  0  0
  9 10  2  0  0  0
  9 18  1  0  0  0
 10 11  1  0  0  0
 11 12  2  0  0  0
 12 13  1  0  0  0
 12 17  1  0  0  0
 13 14  1  0  0  0
 13 18  1  0  0  0
 14 15  2  0  0  0
 15 16  1  0  0  0
 16 17  2  0  0  0
 18 19  2  0  0  0
 23 24  1  0  0  0
 23 27  2  0  0  0
 24 25  1  0  0  0
 25 26  2  0  0  0
 25 28  1  0  0  0
 26 27  1  0  0  0
M  END
> <minimizedAffinity>
-9.05256

$$$$
2004


 29 32  0  0  0  0  0  0  0  0999 V2000
   17.5814  -54.0308   37.3444 S   0  0  0  0  0  0  0  0  0  0  0  0
   16.9940  -52.6335   37.2149 O   0  0  0  0  0  0  0  0  0  0  0  0
   18.5872  -53.9027   38.4872 O   0  0  0  0  0  0  0  0  0  0  0  0
   16.3182  -55.1020   37.9095 C   0  0  0  0  0  0  0  0  0  0  0  0
   16.1905  -56.3718   37.3117 C   0  0  0  0  0  0  0  0  0  0  0  0
   15.1811  -57.2355   37.6715 C   0  0  0  0  0  0  0  0  0  0  0  0
   14.2413  -56.9188   38.6259 C   0  0  0  0  0  0  0  0  0  0  0  0
   14.3627  -55.6837   39.2127 C   0  0  0  0  0  0  0  0  0  0  0  0
   15.3847  -54.7897   38.8613 C   0  0  0  0  0  0  0  0  0  0  0  0
   15.5151  -53.2676   39.7092 Cl  0  0  0  0  0  0  0  0  0  0  0  0
   13.2263  -57.8513   38.9482 N   0  0  0  0  0  0  0  0  0  0  0  0
   13.1321  -59.1221   38.3172 C   0  0  0  0  0  0  0  0  0  0  0  0
   12.4378  -60.0726   38.7258 O   0  0  0  0  0  0  0  0  0  0  0  0
   13.9349  -59.2979   37.0783 C   0  0  0  0  0  0  0  0  0  0  0  0
   15.0775  -58.4874   37.0642 O   0  0  0  0  0  0  0  0  0  0  0  0
   13.1088  -58.9740   35.8541 C   0  0  0  0  0  0  0  0  0  0  0  0
   12.5148  -57.6049   39.6751 H   0  0  0  0  0  0  0  0  0  0  0  0
   18.3886  -54.4899   35.9519 N   0  0  0  0  0  0  0  0  0  0  0  0
   19.2148  -53.5535   35.3260 C   0  0  0  0  0  0  0  0  0  0  0  0
   20.0970  -54.1730   34.2324 C   0  0  0  0  0  0  0  0  0  0  0  0
   19.3918  -55.1763   33.4922 N   0  0  0  0  0  0  0  0  0  0  0  0
   18.5955  -56.1322   34.2302 C   0  0  0  0  0  0  0  0  0  0  0  0
   17.6176  -55.3276   35.0637 C   0  0  0  0  0  0  0  0  0  0  0  0
   19.4780  -55.2209   32.0958 C   0  0  0  0  0  0  0  0  0  0  0  0
   20.1759  -54.3789   31.4758 O   0  0  0  0  0  0  0  0  0  0  0  0
   18.7598  -56.2504   31.2801 C   0  0  0  0  0  0  0  0  0  0  0  0
   19.3394  -57.6391   31.4111 C   0  0  0  0  0  0  0  0  0  0  0  0
   20.2262  -57.3100   30.2126 C   0  0  0  0  0  0  0  0  0  0  0  0
   19.2044  -56.2319   29.8394 C   0  0  0  0  0  0  0  0  0  0  0  0
  1  2  2  0  0  0
  1  3  2  0  0  0
  1 18  1  0  0  0
  1  4  1  0  0  0
 18 19  1  0  0  0
 18 23  1  0  0  0
 19 20  1  0  0  0
 20 21  1  0  0  0
 21 22  1  0  0  0
 21 24  1  0  0  0
 22 23  1  0  0  0
 24 25  2  0  0  0
 24 26  1  0  0  0
 26 27  1  0  0  0
 26 29  1  0  0  0
 27 28  1  0  0  0
 28 29  1  0  0  0
  4  5  2  0  0  0
  4  9  1  0  0  0
  5  6  1  0  0  0
  6  7  2  0  0  0
  6 15  1  0  0  0
  7  8  1  0  0  0
  7 11  1  0  0  0
  8  9  2  0  0  0
  9 10  1  0  0  0
 11 12  1  0  0  0
 12 13  2  0  0  0
 12 14  1  0  0  0
 14 15  1  0  0  0
 14 16  1  0  0  0
 11 17  1  0  0  0
M  END
> <minimizedAffinity>
-9.44651

$$$$
2012


 25 28  0  0  0  0  0  0  0  0999 V2000
   15.9306  -55.7202   37.7476 N   0  0  0  0  0  0  0  0  0  0  0  0
   15.0483  -56.3702   38.6555 C   0  0  0  0  0  0  0  0  0  0  0  0
   14.3703  -55.7852   39.5170 O   0  0  0  0  0  0  0  0  0  0  0  0
   15.0778  -57.8211   38.4058 C   0  0  0  0  0  0  0  0  0  0  0  0
   13.9221  -58.5190   38.5501 O   0  0  0  0  0  0  0  0  0  0  0  0
   14.0194  -59.4710   37.5520 N   0  0  0  0  0  0  0  0  0  0  0  0
   14.6087  -58.8526   36.4054 C   0  0  0  0  0  0  0  0  0  0  0  0
   15.2676  -57.8192   36.9174 C   0  0  0  0  0  0  0  0  0  0  0  0
   16.0756  -56.6420   36.6356 C   0  0  0  0  0  0  0  0  0  0  0  0
   16.7629  -56.5016   35.5922 O   0  0  0  0  0  0  0  0  0  0  0  0
   13.7152  -60.4518   37.6614 H   0  0  0  0  0  0  0  0  0  0  0  0
   19.8254  -52.5315   36.4773 Cl  0  0  0  0  0  0  0  0  0  0  0  0
   18.3042  -52.9200   37.2756 C   0  0  0  0  0  0  0  0  0  0  0  0
   17.7556  -54.1946   37.1627 C   0  0  0  0  0  0  0  0  0  0  0  0
   16.5682  -54.4501   37.8077 C   0  0  0  0  0  0  0  0  0  0  0  0
   15.9263  -53.4524   38.5582 C   0  0  0  0  0  0  0  0  0  0  0  0
   16.4689  -52.2069   38.6641 C   0  0  0  0  0  0  0  0  0  0  0  0
   17.6660  -51.9484   38.0177 C   0  0  0  0  0  0  0  0  0  0  0  0
   14.5557  -59.2730   35.0192 C   0  0  0  0  0  0  0  0  0  0  0  0
   15.0009  -60.5353   34.6163 C   0  0  0  0  0  0  0  0  0  0  0  0
   14.8538  -60.6622   33.2894 N   0  0  0  0  0  0  0  0  0  0  0  0
   14.3307  -59.5267   32.8234 N   0  0  0  0  0  0  0  0  0  0  0  0
   14.1465  -58.6781   33.8612 C   0  0  0  0  0  0  0  0  0  0  0  0
   13.6006  -57.3010   33.7630 C   0  0  0  0  0  0  0  0  0  0  0  0
   15.1820  -61.7958   32.4319 C   0  0  0  0  0  0  0  0  0  0  0  0
 12 13  1  0  0  0
 13 14  2  0  0  0
 13 18  1  0  0  0
 14 15  1  0  0  0
 15 16  2  0  0  0
 15  1  1  0  0  0
 16 17  1  0  0  0
 17 18  2  0  0  0
  1  2  1  0  0  0
  1  9  1  0  0  0
  2  3  2  0  0  0
  2  4  1  0  0  0
  4  5  1  0  0  0
  4  8  1  0  0  0
  5  6  1  0  0  0
  6  7  1  0  0  0
  7  8  2  0  0  0
  7 19  1  0  0  0
  8  9  1  0  0  0
  9 10  2  0  0  0
 19 20  2  0  0  0
 19 23  1  0  0  0
 20 21  1  0  0  0
 21 22  1  0  0  0
 21 25  1  0  0  0
 22 23  2  0  0  0
 23 24  1  0  0  0
  6 11  1  0  0  0
M  END
> <minimizedAffinity>
-10.01343

$$$$
2014


 26 29  0  0  0  0  0  0  0  0999 V2000
   16.7866  -55.6891   34.0814 C   0  0  0  0  0  0  0  0  0  0  0  0
   15.8845  -56.4760   34.6608 N   0  0  0  0  0  0  0  0  0  0  0  0
   15.1797  -57.1552   33.7092 C   0  0  0  0  0  0  0  0  0  0  0  0
   15.6984  -56.7474   32.5274 N   0  0  0  0  0  0  0  0  0  0  0  0
   16.6511  -55.8789   32.7318 N   0  0  0  0  0  0  0  0  0  0  0  0
   14.2664  -57.9564   34.2784 N   0  0  0  0  0  0  0  0  0  0  0  0
   14.3455  -57.8296   35.5977 C   0  0  0  0  0  0  0  0  0  0  0  0
   15.3671  -56.8969   35.8424 C   0  0  0  0  0  0  0  0  0  0  0  0
   15.6808  -56.5779   37.1046 N   0  0  0  0  0  0  0  0  0  0  0  0
   14.9835  -57.1771   38.1073 C   0  0  0  0  0  0  0  0  0  0  0  0
   15.3011  -56.8539   39.2941 O   0  0  0  0  0  0  0  0  0  0  0  0
   14.0075  -58.0633   37.9293 N   0  0  0  0  0  0  0  0  0  0  0  0
   13.6937  -58.3861   36.6734 C   0  0  0  0  0  0  0  0  0  0  0  0
   12.7784  -59.2192   36.4480 O   0  0  0  0  0  0  0  0  0  0  0  0
   13.2995  -58.6664   39.0719 C   0  0  0  0  0  0  0  0  0  0  0  0
   16.7367  -55.6627   37.4270 C   0  0  0  0  0  0  0  0  0  0  0  0
   13.3343  -58.8264   33.5907 C   0  0  0  0  0  0  0  0  0  0  0  0
   18.0132  -51.8170   37.5451 Br  0  0  0  0  0  0  0  0  0  0  0  0
   18.4387  -53.0644   36.1513 C   0  0  0  0  0  0  0  0  0  0  0  0
   17.4694  -53.8678   35.6166 C   0  0  0  0  0  0  0  0  0  0  0  0
   17.7909  -54.7693   34.6050 C   0  0  0  0  0  0  0  0  0  0  0  0
   19.1063  -54.7984   34.1907 C   0  0  0  0  0  0  0  0  0  0  0  0
   20.0646  -53.9926   34.7307 C   0  0  0  0  0  0  0  0  0  0  0  0
   19.7587  -53.0916   35.7372 C   0  0  0  0  0  0  0  0  0  0  0  0
   19.4049  -55.7217   33.1642 O   0  0  0  0  0  0  0  0  0  0  0  0
   19.8607  -55.2786   31.8994 C   0  0  0  0  0  0  0  0  0  0  0  0
 18 19  1  0  0  0
 19 20  2  0  0  0
 19 24  1  0  0  0
 20 21  1  0  0  0
 21 22  2  0  0  0
 21  1  1  0  0  0
 22 23  1  0  0  0
 22 25  1  0  0  0
 23 24  2  0  0  0
 25 26  1  0  0  0
  1  2  1  0  0  0
  1  5  2  0  0  0
  2  3  1  0  0  0
  2  8  1  0  0  0
  3  4  2  0  0  0
  3  6  1  0  0  0
  4  5  1  0  0  0
  6  7  1  0  0  0
  6 17  1  0  0  0
  7  8  2  0  0  0
  7 13  1  0  0  0
  8  9  1  0  0  0
  9 10  1  0  0  0
  9 16  1  0  0  0
 10 11  2  0  0  0
 10 12  1  0  0  0
 12 13  1  0  0  0
 12 15  1  0  0  0
 13 14  2  0  0  0
M  END
> <minimizedAffinity>
-9.11237

$$$$
2017


 24 27  0  0  0  0  0  0  0  0999 V2000
   18.4552  -51.0129   37.3512 Cl  0  0  0  0  0  0  0  0  0  0  0  0
   17.8698  -52.6616   37.2054 C   0  0  0  0  0  0  0  0  0  0  0  0
   16.8674  -53.1646   38.0124 C   0  0  0  0  0  0  0  0  0  0  0  0
   16.4219  -54.4424   37.8913 N   0  0  0  0  0  0  0  0  0  0  0  0
   16.9216  -55.2989   36.9840 C   0  0  0  0  0  0  0  0  0  0  0  0
   16.4871  -56.5665   36.8566 N   0  0  0  0  0  0  0  0  0  0  0  0
   15.5126  -57.0646   37.6383 C   0  0  0  0  0  0  0  0  0  0  0  0
   14.9864  -56.1819   38.5830 C   0  0  0  0  0  0  0  0  0  0  0  0
   15.4397  -54.8860   38.7048 C   0  0  0  0  0  0  0  0  0  0  0  0
   14.9570  -54.0854   39.5689 O   0  0  0  0  0  0  0  0  0  0  0  0
   17.9306  -54.8188   36.1593 C   0  0  0  0  0  0  0  0  0  0  0  0
   18.3967  -53.5239   36.2670 C   0  0  0  0  0  0  0  0  0  0  0  0
   14.9994  -58.4553   37.5353 C   0  0  0  0  0  0  0  0  0  0  0  0
   13.7411  -58.4421   36.8861 N   0  0  0  0  0  0  0  0  0  0  0  0
   12.7613  -59.3632   37.3244 C   0  0  0  0  0  0  0  0  0  0  0  0
   11.7772  -59.7924   36.2473 C   0  0  0  0  0  0  0  0  0  0  0  0
   12.6027  -60.1888   35.0758 C   0  0  0  0  0  0  0  0  0  0  0  0
   13.5935  -59.3009   34.7119 C   0  0  0  0  0  0  0  0  0  0  0  0
   14.3654  -59.6156   33.6610 N   0  0  0  0  0  0  0  0  0  0  0  0
   14.1660  -60.7855   32.9794 C   0  0  0  0  0  0  0  0  0  0  0  0
   13.1834  -61.6331   33.3666 N   0  0  0  0  0  0  0  0  0  0  0  0
   12.3726  -61.3743   34.4165 C   0  0  0  0  0  0  0  0  0  0  0  0
   15.0151  -61.1455   31.8143 C   0  0  0  0  0  0  0  0  0  0  0  0
   13.7263  -58.0608   35.5146 C   0  0  0  0  0  0  0  0  0  0  0  0
  1  2  1  0  0  0
  2  3  2  0  0  0
  2 12  1  0  0  0
  3  4  1  0  0  0
  4  5  1  0  0  0
  4  9  1  0  0  0
  5  6  2  0  0  0
  5 11  1  0  0  0
  6  7  1  0  0  0
  7  8  2  0  0  0
  7 13  1  0  0  0
  8  9  1  0  0  0
  9 10  2  0  0  0
 13 14  1  0  0  0
 14 15  1  0  0  0
 14 24  1  0  0  0
 15 16  1  0  0  0
 16 17  1  0  0  0
 17 18  2  0  0  0
 17 22  1  0  0  0
 18 19  1  0  0  0
 18 24  1  0  0  0
 19 20  2  0  0  0
 20 21  1  0  0  0
 20 23  1  0  0  0
 21 22  2  0  0  0
 11 12  2  0  0  0
M  END
> <minimizedAffinity>
-9.17766

$$$$
2020


 22 24  0  0  0  0  0  0  0  0999 V2000
   17.1132  -55.0077   33.9441 C   0  0  0  0  0  0  0  0  0  0  0  0
   16.1550  -56.0929   34.5086 C   0  0  0  0  0  0  0  0  0  0  0  0
   17.2112  -56.9265   35.2596 C   0  0  0  0  0  0  0  0  0  0  0  0
   17.0863  -57.3005   36.4115 O   0  0  0  0  0  0  0  0  0  0  0  0
   18.3482  -57.1928   34.4068 N   0  0  0  0  0  0  0  0  0  0  0  0
   18.0673  -57.0357   32.9677 C   0  0  0  0  0  0  0  0  0  0  0  0
   16.7938  -57.7488   32.7959 N   0  0  0  0  0  0  0  0  0  0  0  0
   15.7137  -57.0641   33.4612 C   0  0  0  0  0  0  0  0  0  0  0  0
   14.5119  -57.2549   33.1998 O   0  0  0  0  0  0  0  0  0  0  0  0
   17.7167  -55.5380   32.7558 C   0  0  0  0  0  0  0  0  0  0  0  0
   19.1262  -57.4846   32.0605 C   0  0  0  0  0  0  0  0  0  0  0  0
   19.2757  -57.4491   34.7551 H   0  0  0  0  0  0  0  0  0  0  0  0
   16.7044  -58.6249   32.2688 H   0  0  0  0  0  0  0  0  0  0  0  0
   16.7619  -53.5528   39.0160 Br  0  0  0  0  0  0  0  0  0  0  0  0
   17.7821  -53.8918   37.4469 C   0  0  0  0  0  0  0  0  0  0  0  0
   17.1528  -54.3618   36.2922 C   0  0  0  0  0  0  0  0  0  0  0  0
   17.8789  -54.6116   35.1206 C   0  0  0  0  0  0  0  0  0  0  0  0
   19.2390  -54.3662   35.1885 C   0  0  0  0  0  0  0  0  0  0  0  0
   19.8434  -53.8997   36.3429 C   0  0  0  0  0  0  0  0  0  0  0  0
   19.1205  -53.6621   37.4780 C   0  0  0  0  0  0  0  0  0  0  0  0
   19.9341  -54.6247   34.0416 O   0  0  0  0  0  0  0  0  0  0  0  0
   20.5944  -53.5839   33.3735 C   0  0  0  0  0  0  0  0  0  0  0  0
 14 15  1  0  0  0
 15 16  2  0  0  0
 15 20  1  0  0  0
 16 17  1  0  0  0
 17 18  2  0  0  0
 17  1  1  0  0  0
 18 19  1  0  0  0
 18 21  1  0  0  0
 19 20  2  0  0  0
 21 22  1  0  0  0
  1  2  1  0  0  0
  1 10  1  0  0  0
  2  3  1  0  0  0
  2  8  1  0  0  0
  3  4  2  0  0  0
  3  5  1  0  0  0
  5  6  1  0  0  0
  6  7  1  0  0  0
  6 10  1  0  0  0
  6 11  1  0  0  0
  7  8  1  0  0  0
  8  9  2  0  0  0
  5 12  1  0  0  0
  7 13  1  0  0  0
M  END
> <minimizedAffinity>
-7.97134

$$$$
2028


 31 34  0  0  0  0  0  0  0  0999 V2000
   14.0394  -56.5399   38.3871 Cl  0  0  0  0  0  0  0  0  0  0  0  0
   13.2589  -58.0894   38.0816 C   0  0  0  0  0  0  0  0  0  0  0  0
   13.1377  -58.5174   36.7471 C   0  0  0  0  0  0  0  0  0  0  0  0
   12.5379  -59.7194   36.5151 C   0  0  0  0  0  0  0  0  0  0  0  0
   12.0496  -60.5070   37.5484 C   0  0  0  0  0  0  0  0  0  0  0  0
   12.1808  -60.0608   38.8435 C   0  0  0  0  0  0  0  0  0  0  0  0
   12.7845  -58.8554   39.1231 C   0  0  0  0  0  0  0  0  0  0  0  0
   11.6422  -60.9344   39.9444 C   0  0  0  0  0  0  0  0  0  0  0  0
   12.6524  -59.9922   35.0492 C   0  0  0  0  0  0  0  0  0  0  0  0
   11.5384  -60.6296   34.4698 N   0  0  0  0  0  0  0  0  0  0  0  0
   11.7576  -62.0426   34.5949 C   0  0  0  0  0  0  0  0  0  0  0  0
   13.1428  -62.2820   35.0393 C   0  0  0  0  0  0  0  0  0  0  0  0
   13.7909  -60.9220   34.7673 C   0  0  0  0  0  0  0  0  0  0  0  0
   14.1109  -61.0470   33.3572 C   0  0  0  0  0  0  0  0  0  0  0  0
   14.0807  -60.2502   32.3938 O   0  0  0  0  0  0  0  0  0  0  0  0
   14.5334  -62.4268   33.1960 N   0  0  0  0  0  0  0  0  0  0  0  0
   13.9625  -63.1909   34.2475 C   0  0  0  0  0  0  0  0  0  0  0  0
   14.1460  -64.4021   34.4315 O   0  0  0  0  0  0  0  0  0  0  0  0
   12.9806  -58.6838   34.4877 C   0  0  0  0  0  0  0  0  0  0  0  0
   12.9124  -58.2422   33.2975 O   0  0  0  0  0  0  0  0  0  0  0  0
   13.4357  -57.8493   35.5271 N   0  0  0  0  0  0  0  0  0  0  0  0
   10.6275  -60.3406   34.9014 H   0  0  0  0  0  0  0  0  0  0  0  0
   13.9080  -56.9113   35.4780 H   0  0  0  0  0  0  0  0  0  0  0  0
   11.3248  -62.8021   33.3548 C   0  0  0  0  0  0  0  0  0  0  0  0
   11.5170  -64.1508   33.4037 O   0  0  0  0  0  0  0  0  0  0  0  0
    9.9663  -62.3397   32.9422 C   0  0  0  0  0  0  0  0  0  0  0  0
   10.7599  -64.6893   33.0590 H   0  0  0  0  0  0  0  0  0  0  0  0
   15.3883  -62.9784   32.1782 C   0  0  0  0  0  0  0  0  0  0  0  0
   16.7892  -62.4907   32.1793 C   0  0  0  0  0  0  0  0  0  0  0  0
   17.5988  -62.8817   33.2026 O   0  0  0  0  0  0  0  0  0  0  0  0
   17.5200  -64.2172   33.5389 C   0  0  0  0  0  0  0  0  0  0  0  0
  1  2  1  0  0  0
  2  3  2  0  0  0
  2  7  1  0  0  0
  3  4  1  0  0  0
  3 21  1  0  0  0
  4  5  2  0  0  0
  4  9  1  0  0  0
  5  6  1  0  0  0
  6  7  2  0  0  0
  6  8  1  0  0  0
  9 10  1  0  0  0
  9 13  1  0  0  0
  9 19  1  0  0  0
 10 11  1  0  0  0
 11 12  1  0  0  0
 11 24  1  0  0  0
 12 13  1  0  0  0
 12 17  1  0  0  0
 13 14  1  0  0  0
 14 15  2  0  0  0
 14 16  1  0  0  0
 16 17  1  0  0  0
 16 28  1  0  0  0
 17 18  2  0  0  0
 28 29  1  0  0  0
 29 30  1  0  0  0
 30 31  1  0  0  0
 24 25  1  0  0  0
 24 26  1  0  0  0
 19 20  2  0  0  0
 19 21  1  0  0  0
 10 22  1  0  0  0
 25 27  1  0  0  0
 21 23  1  0  0  0
M  END
> <minimizedAffinity>
-7.58951

$$$$
2032


 31 34  0  0  0  0  0  0  0  0999 V2000
   17.1589  -55.2006   37.6896 C   0  0  0  0  0  0  0  0  0  0  0  0
   16.4539  -56.0650   37.0340 C   0  0  0  0  0  0  0  0  0  0  0  0
   16.3155  -56.1464   35.6768 O   0  0  0  0  0  0  0  0  0  0  0  0
   15.4805  -57.2183   35.3680 C   0  0  0  0  0  0  0  0  0  0  0  0
   15.0434  -57.8642   36.4796 C   0  0  0  0  0  0  0  0  0  0  0  0
   14.2068  -58.9822   36.3859 C   0  0  0  0  0  0  0  0  0  0  0  0
   13.7849  -59.4785   35.1801 C   0  0  0  0  0  0  0  0  0  0  0  0
   14.2591  -58.7731   34.0595 C   0  0  0  0  0  0  0  0  0  0  0  0
   15.0725  -57.6933   34.1161 C   0  0  0  0  0  0  0  0  0  0  0  0
   13.7827  -59.3120   32.8458 O   0  0  0  0  0  0  0  0  0  0  0  0
   15.6515  -57.1475   37.6060 C   0  0  0  0  0  0  0  0  0  0  0  0
   15.5077  -57.4203   38.8333 O   0  0  0  0  0  0  0  0  0  0  0  0
   20.4133  -53.4874   33.8107 Br  0  0  0  0  0  0  0  0  0  0  0  0
   19.4560  -53.2791   35.4362 C   0  0  0  0  0  0  0  0  0  0  0  0
   18.6465  -54.3030   35.9598 C   0  0  0  0  0  0  0  0  0  0  0  0
   17.9626  -54.1214   37.1336 C   0  0  0  0  0  0  0  0  0  0  0  0
   18.0748  -52.9259   37.8048 C   0  0  0  0  0  0  0  0  0  0  0  0
   18.8841  -51.9065   37.2810 C   0  0  0  0  0  0  0  0  0  0  0  0
   19.5583  -52.0863   36.1168 C   0  0  0  0  0  0  0  0  0  0  0  0
   17.3801  -52.8070   38.9586 O   0  0  0  0  0  0  0  0  0  0  0  0
   16.2062  -52.1016   39.1705 C   0  0  0  0  0  0  0  0  0  0  0  0
   15.5299  -56.9213   32.9454 C   0  0  0  0  0  0  0  0  0  0  0  0
   16.9704  -56.9037   32.8513 N   0  0  0  0  0  0  0  0  0  0  0  0
   17.4023  -55.6051   32.3661 C   0  0  0  0  0  0  0  0  0  0  0  0
   18.5237  -55.6375   31.4166 C   0  0  0  0  0  0  0  0  0  0  0  0
   19.4600  -56.7035   31.5801 N   0  0  0  0  0  0  0  0  0  0  0  0
   19.1459  -57.7233   32.4739 C   0  0  0  0  0  0  0  0  0  0  0  0
   17.6272  -58.0331   32.4012 C   0  0  0  0  0  0  0  0  0  0  0  0
   17.2413  -56.8465   33.9375 H   0  0  0  0  0  0  0  0  0  0  0  0
   20.2704  -57.0168   30.4654 C   0  0  0  0  0  0  0  0  0  0  0  0
   21.0511  -55.8836   29.8988 C   0  0  0  0  0  0  0  0  0  0  0  0
 13 14  1  0  0  0
 14 15  2  0  0  0
 14 19  1  0  0  0
 15 16  1  0  0  0
 16 17  2  0  0  0
 16  1  1  0  0  0
 17 18  1  0  0  0
 17 20  1  0  0  0
 18 19  2  0  0  0
 20 21  1  0  0  0
  1  2  2  0  0  0
  2  3  1  0  0  0
  2 11  1  0  0  0
  3  4  1  0  0  0
  4  5  2  0  0  0
  4  9  1  0  0  0
  5  6  1  0  0  0
  5 11  1  0  0  0
  6  7  2  0  0  0
  7  8  1  0  0  0
  8  9  2  0  0  0
  8 10  1  0  0  0
  9 22  1  0  0  0
 22 23  1  0  0  0
 23 24  1  0  0  0
 23 28  1  0  0  0
 24 25  1  0  0  0
 25 26  1  0  0  0
 26 27  1  0  0  0
 26 30  1  0  0  0
 27 28  1  0  0  0
 30 31  1  0  0  0
 11 12  2  0  0  0
 23 29  1  0  0  0
M  CHG 1  10  -1
M  CHG 1  23   1
M  END
> <minimizedAffinity>
-9.60971

$$$$
2033


 29 32  0  0  0  0  0  0  0  0999 V2000
   18.5490  -54.1550   36.4759 C   0  0  0  0  0  0  0  0  0  0  0  0
   18.5684  -54.6202   35.2576 C   0  0  0  0  0  0  0  0  0  0  0  0
   17.5431  -55.3534   34.6807 O   0  0  0  0  0  0  0  0  0  0  0  0
   17.8383  -55.7162   33.3799 C   0  0  0  0  0  0  0  0  0  0  0  0
   19.0796  -55.2456   33.0165 C   0  0  0  0  0  0  0  0  0  0  0  0
   19.5731  -55.4967   31.7536 C   0  0  0  0  0  0  0  0  0  0  0  0
   18.8134  -56.2233   30.8615 C   0  0  0  0  0  0  0  0  0  0  0  0
   17.5464  -56.6943   31.2585 C   0  0  0  0  0  0  0  0  0  0  0  0
   17.0382  -56.4575   32.4987 C   0  0  0  0  0  0  0  0  0  0  0  0
   16.8902  -57.4172   30.2496 O   0  0  0  0  0  0  0  0  0  0  0  0
   19.5787  -54.5351   34.1987 C   0  0  0  0  0  0  0  0  0  0  0  0
   20.6795  -53.9503   34.3021 O   0  0  0  0  0  0  0  0  0  0  0  0
   14.4362  -57.0647   38.3947 Br  0  0  0  0  0  0  0  0  0  0  0  0
   15.6141  -55.5684   38.3466 C   0  0  0  0  0  0  0  0  0  0  0  0
   16.6370  -55.4063   37.4572 C   0  0  0  0  0  0  0  0  0  0  0  0
   17.4757  -54.3136   37.4425 C   0  0  0  0  0  0  0  0  0  0  0  0
   17.2442  -53.3258   38.4047 C   0  0  0  0  0  0  0  0  0  0  0  0
   16.2349  -53.4350   39.3213 C   0  0  0  0  0  0  0  0  0  0  0  0
   15.4207  -54.5609   39.2874 C   0  0  0  0  0  0  0  0  0  0  0  0
   18.0680  -52.2171   38.4085 O   0  0  0  0  0  0  0  0  0  0  0  0
   17.7712  -51.1096   37.5991 C   0  0  0  0  0  0  0  0  0  0  0  0
   15.7465  -56.8956   32.9513 C   0  0  0  0  0  0  0  0  0  0  0  0
   15.5564  -57.5967   34.1544 N   0  0  0  0  0  0  0  0  0  0  0  0
   14.2270  -57.5565   34.7000 C   0  0  0  0  0  0  0  0  0  0  0  0
   13.2777  -58.5546   34.0844 C   0  0  0  0  0  0  0  0  0  0  0  0
   13.8221  -59.2516   33.0145 O   0  0  0  0  0  0  0  0  0  0  0  0
   14.9448  -59.9086   33.5062 C   0  0  0  0  0  0  0  0  0  0  0  0
   15.9934  -59.0016   34.0611 C   0  0  0  0  0  0  0  0  0  0  0  0
   16.1999  -57.2139   34.8774 H   0  0  0  0  0  0  0  0  0  0  0  0
 13 14  1  0  0  0
 14 15  2  0  0  0
 14 19  1  0  0  0
 15 16  1  0  0  0
 16 17  2  0  0  0
 16  1  1  0  0  0
 17 18  1  0  0  0
 17 20  1  0  0  0
 18 19  2  0  0  0
 20 21  1  0  0  0
  1  2  2  0  0  0
  2  3  1  0  0  0
  2 11  1  0  0  0
  3  4  1  0  0  0
  4  5  2  0  0  0
  4  9  1  0  0  0
  5  6  1  0  0  0
  5 11  1  0  0  0
  6  7  2  0  0  0
  7  8  1  0  0  0
  8  9  2  0  0  0
  8 10  1  0  0  0
  9 22  1  0  0  0
 22 23  1  0  0  0
 23 24  1  0  0  0
 23 28  1  0  0  0
 24 25  1  0  0  0
 25 26  1  0  0  0
 26 27  1  0  0  0
 27 28  1  0  0  0
 11 12  2  0  0  0
 23 29  1  0  0  0
M  CHG 1  10  -1
M  CHG 1  23   1
M  END
> <minimizedAffinity>
-9.95681

$$$$
2041


 30 33  0  0  0  0  0  0  0  0999 V2000
   15.9712  -58.2886   32.5915 N   0  0  0  0  0  0  0  0  0  0  0  0
   17.3400  -58.7639   32.5925 C   0  0  0  0  0  0  0  0  0  0  0  0
   18.2290  -57.8213   31.7912 C   0  0  0  0  0  0  0  0  0  0  0  0
   18.1700  -56.5058   32.4277 N   0  0  0  0  0  0  0  0  0  0  0  0
   17.1520  -56.3613   33.4257 C   0  0  0  0  0  0  0  0  0  0  0  0
   15.8630  -56.8845   32.8484 C   0  0  0  0  0  0  0  0  0  0  0  0
   19.0847  -55.5195   32.0455 C   0  0  0  0  0  0  0  0  0  0  0  0
   19.9667  -55.8055   31.1373 O   0  0  0  0  0  0  0  0  0  0  0  0
   15.0321  -59.1950   33.7110 S   0  0  0  0  0  0  0  0  0  0  0  0
   13.6072  -59.1689   33.2088 O   0  0  0  0  0  0  0  0  0  0  0  0
   15.4494  -60.6253   33.7686 O   0  0  0  0  0  0  0  0  0  0  0  0
   15.1246  -58.4505   35.2912 C   0  0  0  0  0  0  0  0  0  0  0  0
   16.2445  -58.4666   36.0909 C   0  0  0  0  0  0  0  0  0  0  0  0
   16.2519  -57.8705   37.3287 C   0  0  0  0  0  0  0  0  0  0  0  0
   15.1079  -57.2282   37.8020 C   0  0  0  0  0  0  0  0  0  0  0  0
   13.9617  -57.2045   37.0000 C   0  0  0  0  0  0  0  0  0  0  0  0
   13.9792  -57.8089   35.7622 C   0  0  0  0  0  0  0  0  0  0  0  0
   15.1324  -56.4753   39.3746 Cl  0  0  0  0  0  0  0  0  0  0  0  0
   19.2065  -54.1451   32.5421 C   0  0  0  0  0  0  0  0  0  0  0  0
   20.3436  -53.9477   33.9077 S   0  0  0  0  0  0  0  0  0  0  0  0
   19.7804  -52.8207   35.1708 C   0  0  0  0  0  0  0  0  0  0  0  0
   20.2870  -51.5993   35.2805 N   0  0  0  0  0  0  0  0  0  0  0  0
   19.8876  -50.7123   36.1959 C   0  0  0  0  0  0  0  0  0  0  0  0
   18.9020  -51.0856   37.0698 N   0  0  0  0  0  0  0  0  0  0  0  0
   18.3709  -52.3098   36.9864 C   0  0  0  0  0  0  0  0  0  0  0  0
   17.3892  -52.9162   37.7153 N   0  0  0  0  0  0  0  0  0  0  0  0
   17.2131  -54.1326   37.2416 N   0  0  0  0  0  0  0  0  0  0  0  0
   18.0433  -54.3593   36.2212 C   0  0  0  0  0  0  0  0  0  0  0  0
   18.7878  -53.2246   36.0371 C   0  0  0  0  0  0  0  0  0  0  0  0
   16.6696  -52.3205   38.8025 C   0  0  0  0  0  0  0  0  0  0  0  0
  9 10  2  0  0  0
  9 11  2  0  0  0
  9  1  1  0  0  0
  9 12  1  0  0  0
  1  2  1  0  0  0
  1  6  1  0  0  0
  2  3  1  0  0  0
  3  4  1  0  0  0
  4  5  1  0  0  0
  4  7  1  0  0  0
  5  6  1  0  0  0
  7  8  2  0  0  0
  7 19  1  0  0  0
 19 20  1  0  0  0
 20 21  1  0  0  0
 21 22  2  0  0  0
 21 29  1  0  0  0
 22 23  1  0  0  0
 23 24  2  0  0  0
 24 25  1  0  0  0
 25 26  1  0  0  0
 25 29  2  0  0  0
 26 27  1  0  0  0
 26 30  1  0  0  0
 27 28  2  0  0  0
 28 29  1  0  0  0
 12 13  2  0  0  0
 12 17  1  0  0  0
 13 14  1  0  0  0
 14 15  2  0  0  0
 15 16  1  0  0  0
 15 18  1  0  0  0
 16 17  2  0  0  0
M  END
> <minimizedAffinity>
-9.40625

$$$$
2043


 32 35  0  0  0  0  0  0  0  0999 V2000
   14.8916  -59.2509   33.1659 N   0  0  0  0  0  0  0  0  0  0  0  0
   14.3486  -57.9176   33.2506 C   0  0  0  0  0  0  0  0  0  0  0  0
   13.9449  -57.6688   34.7024 C   0  0  0  0  0  0  0  0  0  0  0  0
   14.9350  -58.1924   35.5656 N   0  0  0  0  0  0  0  0  0  0  0  0
   14.8429  -59.7193   35.6075 C   0  0  0  0  0  0  0  0  0  0  0  0
   14.5302  -60.1318   34.2139 C   0  0  0  0  0  0  0  0  0  0  0  0
   15.9354  -57.6050   36.2840 C   0  0  0  0  0  0  0  0  0  0  0  0
   16.5217  -58.5397   37.1084 O   0  0  0  0  0  0  0  0  0  0  0  0
   16.5718  -56.3605   36.4696 C   0  0  0  0  0  0  0  0  0  0  0  0
   16.4686  -55.2672   37.1500 C   0  0  0  0  0  0  0  0  0  0  0  0
   15.4432  -55.0133   38.0731 N   0  0  0  0  0  0  0  0  0  0  0  0
   15.3464  -53.8507   38.8702 N   0  0  0  0  0  0  0  0  0  0  0  0
   16.3297  -52.8639   38.7497 C   0  0  0  0  0  0  0  0  0  0  0  0
   16.2557  -51.8228   39.4532 O   0  0  0  0  0  0  0  0  0  0  0  0
   17.4318  -53.0736   37.7943 C   0  0  0  0  0  0  0  0  0  0  0  0
   17.5206  -54.2142   37.0180 C   0  0  0  0  0  0  0  0  0  0  0  0
   18.5696  -54.3276   36.1634 C   0  0  0  0  0  0  0  0  0  0  0  0
   19.5224  -53.3066   36.0874 C   0  0  0  0  0  0  0  0  0  0  0  0
   19.4394  -52.1721   36.8547 C   0  0  0  0  0  0  0  0  0  0  0  0
   18.3729  -52.0616   37.7205 C   0  0  0  0  0  0  0  0  0  0  0  0
   14.6665  -55.6681   38.1871 H   0  0  0  0  0  0  0  0  0  0  0  0
   14.5215  -53.7722   39.5364 H   0  0  0  0  0  0  0  0  0  0  0  0
   16.4580  -59.3577   32.5697 S   0  0  0  0  0  0  0  0  0  0  0  0
   17.1691  -60.4705   33.3286 O   0  0  0  0  0  0  0  0  0  0  0  0
   16.3864  -59.8598   31.1321 O   0  0  0  0  0  0  0  0  0  0  0  0
   17.3631  -57.8960   32.5746 C   0  0  0  0  0  0  0  0  0  0  0  0
   18.2245  -57.5904   33.5981 C   0  0  0  0  0  0  0  0  0  0  0  0
   18.9424  -56.4082   33.5800 C   0  0  0  0  0  0  0  0  0  0  0  0
   18.8246  -55.5000   32.5517 C   0  0  0  0  0  0  0  0  0  0  0  0
   17.9558  -55.8023   31.5155 C   0  0  0  0  0  0  0  0  0  0  0  0
   17.2397  -56.9971   31.5460 C   0  0  0  0  0  0  0  0  0  0  0  0
   19.7558  -54.0159   32.5770 Cl  0  0  0  0  0  0  0  0  0  0  0  0
 23 24  2  0  0  0
 23 25  2  0  0  0
 23  1  1  0  0  0
 23 26  1  0  0  0
  1  2  1  0  0  0
  1  6  1  0  0  0
  2  3  1  0  0  0
  3  4  1  0  0  0
  4  5  1  0  0  0
  4  7  1  0  0  0
  5  6  1  0  0  0
  7  8  2  0  0  0
  7  9  1  0  0  0
  9 10  2  0  0  0
 10 11  1  0  0  0
 10 16  1  0  0  0
 11 12  1  0  0  0
 12 13  1  0  0  0
 13 14  2  0  0  0
 13 15  1  0  0  0
 15 16  2  0  0  0
 15 20  1  0  0  0
 16 17  1  0  0  0
 17 18  2  0  0  0
 18 19  1  0  0  0
 19 20  2  0  0  0
 26 27  2  0  0  0
 26 31  1  0  0  0
 27 28  1  0  0  0
 28 29  2  0  0  0
 29 30  1  0  0  0
 29 32  1  0  0  0
 30 31  2  0  0  0
 11 21  1  0  0  0
 12 22  1  0  0  0
M  END
> <minimizedAffinity>
-10.56677

$$$$
2046


 26 29  0  0  0  0  0  0  0  0999 V2000
   17.8687  -51.5211   37.6697 Cl  0  0  0  0  0  0  0  0  0  0  0  0
   17.0713  -53.0274   38.0011 C   0  0  0  0  0  0  0  0  0  0  0  0
   17.4464  -54.1843   37.3674 C   0  0  0  0  0  0  0  0  0  0  0  0
   16.7745  -55.3465   37.6726 C   0  0  0  0  0  0  0  0  0  0  0  0
   15.7428  -55.4087   38.5841 C   0  0  0  0  0  0  0  0  0  0  0  0
   15.3793  -54.2384   39.2108 C   0  0  0  0  0  0  0  0  0  0  0  0
   16.0457  -53.0698   38.9111 C   0  0  0  0  0  0  0  0  0  0  0  0
   18.4801  -54.2235   36.4152 N   0  0  0  0  0  0  0  0  0  0  0  0
   19.7606  -54.0891   36.6948 N   0  0  0  0  0  0  0  0  0  0  0  0
   20.4787  -54.1830   35.5917 N   0  0  0  0  0  0  0  0  0  0  0  0
   19.6240  -54.3782   34.6079 N   0  0  0  0  0  0  0  0  0  0  0  0
   18.3523  -54.4080   35.1080 C   0  0  0  0  0  0  0  0  0  0  0  0
   17.1780  -54.5991   34.2582 C   0  0  0  0  0  0  0  0  0  0  0  0
   17.1810  -55.1772   32.9200 C   0  0  0  0  0  0  0  0  0  0  0  0
   16.7381  -56.0821   34.0818 C   0  0  0  0  0  0  0  0  0  0  0  0
   15.0537  -56.6478   38.8858 N   0  0  0  0  0  0  0  0  0  0  0  0
   15.1704  -57.1155   39.7897 H   0  0  0  0  0  0  0  0  0  0  0  0
   14.2142  -57.1700   37.8645 C   0  0  0  0  0  0  0  0  0  0  0  0
   14.7318  -58.2422   37.0197 C   0  0  0  0  0  0  0  0  0  0  0  0
   15.8275  -58.7746   37.5029 O   0  0  0  0  0  0  0  0  0  0  0  0
   14.2884  -58.7824   35.8385 N   0  0  0  0  0  0  0  0  0  0  0  0
   13.0755  -58.4549   35.1596 C   0  0  0  0  0  0  0  0  0  0  0  0
   13.4276  -57.9488   33.7636 C   0  0  0  0  0  0  0  0  0  0  0  0
   14.0244  -59.0561   33.1216 O   0  0  0  0  0  0  0  0  0  0  0  0
   15.2607  -59.2706   33.6910 C   0  0  0  0  0  0  0  0  0  0  0  0
   15.1184  -59.7806   35.1292 C   0  0  0  0  0  0  0  0  0  0  0  0
  1  2  1  0  0  0
  2  3  2  0  0  0
  2  7  1  0  0  0
  3  4  1  0  0  0
  3  8  1  0  0  0
  4  5  2  0  0  0
  5  6  1  0  0  0
  5 16  1  0  0  0
  6  7  2  0  0  0
 16 18  1  0  0  0
 18 19  1  0  0  0
 19 20  2  0  0  0
 19 21  1  0  0  0
 21 22  1  0  0  0
 21 26  1  0  0  0
 22 23  1  0  0  0
 23 24  1  0  0  0
 24 25  1  0  0  0
 25 26  1  0  0  0
  8  9  1  0  0  0
  8 12  1  0  0  0
  9 10  2  0  0  0
 10 11  1  0  0  0
 11 12  2  0  0  0
 12 13  1  0  0  0
 13 14  1  0  0  0
 13 15  1  0  0  0
 14 15  1  0  0  0
 16 17  1  0  0  0
M  END
> <minimizedAffinity>
-8.87524

$$$$
2063


 34 37  0  0  0  0  0  0  0  0999 V2000
   16.5044  -54.6113   37.8166 C   0  0  0  0  0  0  0  0  0  0  0  0
   15.5977  -54.3921   38.8495 C   0  0  0  0  0  0  0  0  0  0  0  0
   14.7286  -55.2982   39.2302 O   0  0  0  0  0  0  0  0  0  0  0  0
   14.6423  -56.4814   38.6696 C   0  0  0  0  0  0  0  0  0  0  0  0
   15.4983  -56.7902   37.6387 C   0  0  0  0  0  0  0  0  0  0  0  0
   15.3731  -58.0396   37.0819 C   0  0  0  0  0  0  0  0  0  0  0  0
   14.4519  -58.9648   37.5027 C   0  0  0  0  0  0  0  0  0  0  0  0
   13.5657  -58.6690   38.5585 C   0  0  0  0  0  0  0  0  0  0  0  0
   13.6969  -57.4166   39.1103 C   0  0  0  0  0  0  0  0  0  0  0  0
   16.4235  -55.8611   37.2141 C   0  0  0  0  0  0  0  0  0  0  0  0
   17.2084  -56.1426   36.2697 O   0  0  0  0  0  0  0  0  0  0  0  0
   20.4545  -50.1456   36.1972 Br  0  0  0  0  0  0  0  0  0  0  0  0
   19.2424  -51.5416   36.6881 C   0  0  0  0  0  0  0  0  0  0  0  0
   19.4245  -52.8385   36.2669 C   0  0  0  0  0  0  0  0  0  0  0  0
   18.5502  -53.8605   36.6177 C   0  0  0  0  0  0  0  0  0  0  0  0
   17.4548  -53.5960   37.4132 C   0  0  0  0  0  0  0  0  0  0  0  0
   17.2740  -52.2901   37.8362 C   0  0  0  0  0  0  0  0  0  0  0  0
   18.1414  -51.2748   37.4889 C   0  0  0  0  0  0  0  0  0  0  0  0
   12.6543  -59.6267   38.9523 O   0  0  0  0  0  0  0  0  0  0  0  0
   11.4874  -59.4117   39.6248 C   0  0  0  0  0  0  0  0  0  0  0  0
   11.4105  -60.1195   40.8543 O   0  0  0  0  0  0  0  0  0  0  0  0
   10.4967  -59.4283   41.6196 C   0  0  0  0  0  0  0  0  0  0  0  0
    9.1042  -59.4222   41.0697 C   0  0  0  0  0  0  0  0  0  0  0  0
    9.0736  -59.1802   39.5798 C   0  0  0  0  0  0  0  0  0  0  0  0
   10.2396  -59.8428   38.8760 C   0  0  0  0  0  0  0  0  0  0  0  0
   10.2526  -59.4011   37.5584 O   0  0  0  0  0  0  0  0  0  0  0  0
    7.8468  -59.5831   39.0684 O   0  0  0  0  0  0  0  0  0  0  0  0
    8.4291  -58.3438   41.6641 O   0  0  0  0  0  0  0  0  0  0  0  0
    9.8719  -60.0823   36.9555 H   0  0  0  0  0  0  0  0  0  0  0  0
    7.1766  -59.7705   39.7951 H   0  0  0  0  0  0  0  0  0  0  0  0
    8.9946  -57.5317   41.6586 H   0  0  0  0  0  0  0  0  0  0  0  0
   10.4754  -59.8757   43.0594 C   0  0  0  0  0  0  0  0  0  0  0  0
   10.0727  -58.8555   43.9182 O   0  0  0  0  0  0  0  0  0  0  0  0
    9.9465  -59.2976   44.8153 H   0  0  0  0  0  0  0  0  0  0  0  0
 12 13  1  0  0  0
 13 14  2  0  0  0
 13 18  1  0  0  0
 14 15  1  0  0  0
 15 16  2  0  0  0
 16 17  1  0  0  0
 16  1  1  0  0  0
 17 18  2  0  0  0
  1  2  2  0  0  0
  1 10  1  0  0  0
  2  3  1  0  0  0
  3  4  1  0  0  0
  4  5  2  0  0  0
  4  9  1  0  0  0
  5  6  1  0  0  0
  5 10  1  0  0  0
  6  7  2  0  0  0
  7  8  1  0  0  0
  8  9  2  0  0  0
  8 19  1  0  0  0
 19 20  1  0  0  0
 20 21  1  0  0  0
 20 25  1  0  0  0
 21 22  1  0  0  0
 22 23  1  0  0  0
 22 32  1  0  0  0
 23 24  1  0  0  0
 23 28  1  0  0  0
 24 25  1  0  0  0
 24 27  1  0  0  0
 25 26  1  0  0  0
 32 33  1  0  0  0
 10 11  2  0  0  0
 26 29  1  0  0  0
 27 30  1  0  0  0
 28 31  1  0  0  0
 33 34  1  0  0  0
M  END
> <minimizedAffinity>
-10.65059

$$$$
2072


 27 30  0  0  0  0  0  0  0  0999 V2000
   14.5788  -59.0417   35.4124 N   0  0  0  0  0  0  0  0  0  0  0  0
   13.4897  -58.7408   36.2679 C   0  0  0  0  0  0  0  0  0  0  0  0
   13.8081  -58.2192   37.6402 C   0  0  0  0  0  0  0  0  0  0  0  0
   15.0073  -57.4503   37.5823 N   0  0  0  0  0  0  0  0  0  0  0  0
   16.0758  -58.3928   37.2523 C   0  0  0  0  0  0  0  0  0  0  0  0
   15.8952  -58.8279   35.8463 C   0  0  0  0  0  0  0  0  0  0  0  0
   14.3313  -58.2773   33.8884 S   0  0  0  0  0  0  0  0  0  0  0  0
   14.0841  -59.3490   32.8504 O   0  0  0  0  0  0  0  0  0  0  0  0
   13.1507  -57.3805   33.9052 O   0  0  0  0  0  0  0  0  0  0  0  0
   15.7468  -57.3071   33.4550 C   0  0  0  0  0  0  0  0  0  0  0  0
   16.9491  -57.6122   32.2856 S   0  0  0  0  0  0  0  0  0  0  0  0
   17.9087  -56.2239   32.5074 C   0  0  0  0  0  0  0  0  0  0  0  0
   17.2540  -55.5499   33.5034 C   0  0  0  0  0  0  0  0  0  0  0  0
   16.1399  -56.1081   33.9916 C   0  0  0  0  0  0  0  0  0  0  0  0
   19.5245  -55.6966   31.5983 Br  0  0  0  0  0  0  0  0  0  0  0  0
   15.3143  -56.7143   38.7608 C   0  0  0  0  0  0  0  0  0  0  0  0
   14.9799  -55.2686   38.6198 C   0  0  0  0  0  0  0  0  0  0  0  0
   16.0862  -54.4940   38.0985 N   0  0  0  0  0  0  0  0  0  0  0  0
   17.0263  -54.9001   37.2462 N   0  0  0  0  0  0  0  0  0  0  0  0
   17.8794  -53.9012   36.9805 C   0  0  0  0  0  0  0  0  0  0  0  0
   17.4715  -52.8363   37.6814 N   0  0  0  0  0  0  0  0  0  0  0  0
   18.1385  -51.6585   37.6224 C   0  0  0  0  0  0  0  0  0  0  0  0
   19.2623  -51.4916   36.8452 C   0  0  0  0  0  0  0  0  0  0  0  0
   19.7057  -52.5741   36.1111 C   0  0  0  0  0  0  0  0  0  0  0  0
   19.0063  -53.7585   36.1918 C   0  0  0  0  0  0  0  0  0  0  0  0
   16.3570  -53.2168   38.3723 C   0  0  0  0  0  0  0  0  0  0  0  0
   15.7503  -52.4188   39.1258 O   0  0  0  0  0  0  0  0  0  0  0  0
  7  8  2  0  0  0
  7  9  2  0  0  0
  7  1  1  0  0  0
  7 10  1  0  0  0
  1  2  1  0  0  0
  1  6  1  0  0  0
  2  3  1  0  0  0
  3  4  1  0  0  0
  4  5  1  0  0  0
  4 16  1  0  0  0
  5  6  1  0  0  0
 16 17  1  0  0  0
 17 18  1  0  0  0
 18 19  1  0  0  0
 18 26  1  0  0  0
 19 20  2  0  0  0
 20 21  1  0  0  0
 20 25  1  0  0  0
 21 22  1  0  0  0
 21 26  1  0  0  0
 22 23  2  0  0  0
 23 24  1  0  0  0
 24 25  2  0  0  0
 26 27  2  0  0  0
 10 11  1  0  0  0
 10 14  2  0  0  0
 11 12  1  0  0  0
 12 13  2  0  0  0
 12 15  1  0  0  0
 13 14  1  0  0  0
M  END
> <minimizedAffinity>
-9.31371

$$$$
2079


 31 34  0  0  0  0  0  0  0  0999 V2000
   17.0273  -54.5349   36.9018 C   0  0  0  0  0  0  0  0  0  0  0  0
   16.2314  -54.7705   37.9991 C   0  0  0  0  0  0  0  0  0  0  0  0
   15.5126  -55.9725   38.0644 C   0  0  0  0  0  0  0  0  0  0  0  0
   15.5857  -56.9085   37.0565 C   0  0  0  0  0  0  0  0  0  0  0  0
   14.9122  -58.1303   37.0332 C   0  0  0  0  0  0  0  0  0  0  0  0
   14.1156  -58.3544   38.1843 C   0  0  0  0  0  0  0  0  0  0  0  0
   14.0191  -57.4364   39.2258 C   0  0  0  0  0  0  0  0  0  0  0  0
   14.7270  -56.2473   39.1547 C   0  0  0  0  0  0  0  0  0  0  0  0
   13.3697  -59.5024   38.3664 O   0  0  0  0  0  0  0  0  0  0  0  0
   16.3331  -56.6486   36.0611 O   0  0  0  0  0  0  0  0  0  0  0  0
   17.0570  -55.5363   35.9094 C   0  0  0  0  0  0  0  0  0  0  0  0
   17.7585  -55.3469   34.9088 O   0  0  0  0  0  0  0  0  0  0  0  0
   20.6480  -49.7098   36.1787 Cl  0  0  0  0  0  0  0  0  0  0  0  0
   19.6364  -51.1492   36.4531 C   0  0  0  0  0  0  0  0  0  0  0  0
   19.8634  -52.3602   35.8098 C   0  0  0  0  0  0  0  0  0  0  0  0
   19.0267  -53.4490   35.9778 C   0  0  0  0  0  0  0  0  0  0  0  0
   17.9027  -53.3486   36.8197 C   0  0  0  0  0  0  0  0  0  0  0  0
   17.7119  -52.1640   37.4361 C   0  0  0  0  0  0  0  0  0  0  0  0
   18.5325  -51.0610   37.2827 C   0  0  0  0  0  0  0  0  0  0  0  0
   15.0622  -59.2054   36.1167 C   0  0  0  0  0  0  0  0  0  0  0  0
   13.9748  -59.8765   35.4517 N   0  0  0  0  0  0  0  0  0  0  0  0
   13.2820  -58.9756   34.4886 C   0  0  0  0  0  0  0  0  0  0  0  0
   14.2807  -58.1429   33.7666 C   0  0  0  0  0  0  0  0  0  0  0  0
   15.2519  -58.8779   32.9892 N   0  0  0  0  0  0  0  0  0  0  0  0
   15.5206  -60.1737   33.5136 C   0  0  0  0  0  0  0  0  0  0  0  0
   14.5965  -60.7995   34.4483 C   0  0  0  0  0  0  0  0  0  0  0  0
   13.3420  -60.4456   35.9652 H   0  0  0  0  0  0  0  0  0  0  0  0
   16.4988  -58.1064   32.8726 C   0  0  0  0  0  0  0  0  0  0  0  0
   17.6971  -58.8831   33.3674 C   0  0  0  0  0  0  0  0  0  0  0  0
   18.2797  -58.3119   34.4890 O   0  0  0  0  0  0  0  0  0  0  0  0
   17.8427  -58.7115   35.3066 H   0  0  0  0  0  0  0  0  0  0  0  0
 13 14  1  0  0  0
 14 15  2  0  0  0
 14 19  1  0  0  0
 15 16  1  0  0  0
 16 17  2  0  0  0
 17 18  1  0  0  0
 17  1  1  0  0  0
 18 19  2  0  0  0
  1  2  2  0  0  0
  1 11  1  0  0  0
  2  3  1  0  0  0
  3  4  2  0  0  0
  3  8  1  0  0  0
  4  5  1  0  0  0
  4 10  1  0  0  0
  5  6  2  0  0  0
  5 20  1  0  0  0
  6  7  1  0  0  0
  6  9  1  0  0  0
  7  8  2  0  0  0
 20 21  1  0  0  0
 21 22  1  0  0  0
 21 26  1  0  0  0
 22 23  1  0  0  0
 23 24  1  0  0  0
 24 25  1  0  0  0
 24 28  1  0  0  0
 25 26  1  0  0  0
 28 29  1  0  0  0
 29 30  1  0  0  0
 10 11  1  0  0  0
 11 12  2  0  0  0
 21 27  1  0  0  0
 30 31  1  0  0  0
M  CHG 1   9  -1
M  CHG 1  21   1
M  END
> <minimizedAffinity>
-10.01484

$$$$
2087


 32 35  0  0  0  0  0  0  0  0999 V2000
   17.7898  -55.5311   33.3499 N   0  0  0  0  0  0  0  0  0  0  0  0
   18.7920  -55.5214   32.4115 C   0  0  0  0  0  0  0  0  0  0  0  0
   18.9494  -56.7908   31.8915 C   0  0  0  0  0  0  0  0  0  0  0  0
   18.0448  -57.5447   32.5234 N   0  0  0  0  0  0  0  0  0  0  0  0
   17.3364  -56.7830   33.4163 C   0  0  0  0  0  0  0  0  0  0  0  0
   19.8809  -57.0457   30.9523 N   0  0  0  0  0  0  0  0  0  0  0  0
   20.6546  -56.0335   30.5352 C   0  0  0  0  0  0  0  0  0  0  0  0
   21.5201  -56.2832   29.6590 O   0  0  0  0  0  0  0  0  0  0  0  0
   20.5338  -54.7917   31.0165 N   0  0  0  0  0  0  0  0  0  0  0  0
   19.5996  -54.4951   31.9692 C   0  0  0  0  0  0  0  0  0  0  0  0
   19.5138  -53.3208   32.4021 O   0  0  0  0  0  0  0  0  0  0  0  0
   20.0085  -58.3932   30.4281 C   0  0  0  0  0  0  0  0  0  0  0  0
   21.1514  -54.0098   30.6794 H   0  0  0  0  0  0  0  0  0  0  0  0
   16.3883  -57.3519   34.2816 N   0  0  0  0  0  0  0  0  0  0  0  0
   16.5666  -58.2429   35.3718 C   0  0  0  0  0  0  0  0  0  0  0  0
   15.3368  -59.1273   35.6049 C   0  0  0  0  0  0  0  0  0  0  0  0
   14.5090  -59.3254   34.4874 N   0  0  0  0  0  0  0  0  0  0  0  0
   14.1540  -58.1893   33.7317 C   0  0  0  0  0  0  0  0  0  0  0  0
   14.9703  -56.9590   34.0559 C   0  0  0  0  0  0  0  0  0  0  0  0
   14.4051  -60.5965   33.8998 C   0  0  0  0  0  0  0  0  0  0  0  0
   15.0050  -60.7806   32.5698 C   0  0  0  0  0  0  0  0  0  0  0  0
   14.3221  -60.7896   31.5111 O   0  0  0  0  0  0  0  0  0  0  0  0
   16.3674  -60.9526   32.4513 O   0  0  0  0  0  0  0  0  0  0  0  0
   17.0539  -60.7457   31.2474 C   0  0  0  0  0  0  0  0  0  0  0  0
   17.3468  -54.3619   34.0655 C   0  0  0  0  0  0  0  0  0  0  0  0
   19.3181  -54.3386   39.9180 Br  0  0  0  0  0  0  0  0  0  0  0  0
   18.7160  -54.3573   38.1084 C   0  0  0  0  0  0  0  0  0  0  0  0
   19.5577  -54.0085   37.0757 C   0  0  0  0  0  0  0  0  0  0  0  0
   19.0998  -54.0267   35.7576 C   0  0  0  0  0  0  0  0  0  0  0  0
   17.8098  -54.3942   35.5106 C   0  0  0  0  0  0  0  0  0  0  0  0
   16.9627  -54.7426   36.5227 C   0  0  0  0  0  0  0  0  0  0  0  0
   17.4125  -54.7256   37.8200 C   0  0  0  0  0  0  0  0  0  0  0  0
 26 27  1  0  0  0
 27 28  2  0  0  0
 27 32  1  0  0  0
 28 29  1  0  0  0
 29 30  2  0  0  0
 30 31  1  0  0  0
 30 25  1  0  0  0
 31 32  2  0  0  0
 25  1  1  0  0  0
  1  2  1  0  0  0
  1  5  1  0  0  0
  2  3  2  0  0  0
  2 10  1  0  0  0
  3  4  1  0  0  0
  3  6  1  0  0  0
  4  5  2  0  0  0
  5 14  1  0  0  0
 14 15  1  0  0  0
 14 19  1  0  0  0
 15 16  1  0  0  0
 16 17  1  0  0  0
 17 18  1  0  0  0
 17 20  1  0  0  0
 18 19  1  0  0  0
 20 21  1  0  0  0
 21 22  2  0  0  0
 21 23  1  0  0  0
 23 24  1  0  0  0
  6  7  1  0  0  0
  6 12  1  0  0  0
  7  8  2  0  0  0
  7  9  1  0  0  0
  9 10  1  0  0  0
 10 11  2  0  0  0
  9 13  1  0  0  0
M  END
> <minimizedAffinity>
-7.81305

$$$$
2091


 28 31  0  0  0  0  0  0  0  0999 V2000
   17.7281  -55.6452   33.1681 N   0  0  0  0  0  0  0  0  0  0  0  0
   18.7388  -55.6387   32.2866 C   0  0  0  0  0  0  0  0  0  0  0  0
   18.8163  -56.8759   31.6868 C   0  0  0  0  0  0  0  0  0  0  0  0
   17.8464  -57.5998   32.2238 N   0  0  0  0  0  0  0  0  0  0  0  0
   17.1669  -56.8792   33.1269 C   0  0  0  0  0  0  0  0  0  0  0  0
   19.7306  -57.1938   30.7363 N   0  0  0  0  0  0  0  0  0  0  0  0
   20.5933  -56.2293   30.3779 C   0  0  0  0  0  0  0  0  0  0  0  0
   21.4343  -56.5413   29.4975 O   0  0  0  0  0  0  0  0  0  0  0  0
   20.5665  -55.0011   30.9237 N   0  0  0  0  0  0  0  0  0  0  0  0
   19.6642  -54.6755   31.8679 C   0  0  0  0  0  0  0  0  0  0  0  0
   19.6109  -53.5530   32.3886 O   0  0  0  0  0  0  0  0  0  0  0  0
   19.7379  -58.5236   30.1644 C   0  0  0  0  0  0  0  0  0  0  0  0
   21.2389  -54.2576   30.6369 H   0  0  0  0  0  0  0  0  0  0  0  0
   16.0524  -57.3174   33.9154 N   0  0  0  0  0  0  0  0  0  0  0  0
   16.3310  -58.1031   35.0971 C   0  0  0  0  0  0  0  0  0  0  0  0
   15.7455  -59.4908   34.8811 C   0  0  0  0  0  0  0  0  0  0  0  0
   14.6875  -59.5047   33.9268 N   0  0  0  0  0  0  0  0  0  0  0  0
   13.8984  -58.3206   33.8478 C   0  0  0  0  0  0  0  0  0  0  0  0
   14.6716  -57.0483   33.6132 C   0  0  0  0  0  0  0  0  0  0  0  0
   14.8967  -60.2216   32.7267 C   0  0  0  0  0  0  0  0  0  0  0  0
   17.3144  -54.5525   34.0143 C   0  0  0  0  0  0  0  0  0  0  0  0
   19.2301  -54.2354   39.8732 Br  0  0  0  0  0  0  0  0  0  0  0  0
   18.7017  -54.3380   38.0448 C   0  0  0  0  0  0  0  0  0  0  0  0
   19.5822  -54.0455   37.0081 C   0  0  0  0  0  0  0  0  0  0  0  0
   19.1317  -54.1289   35.6918 C   0  0  0  0  0  0  0  0  0  0  0  0
   17.8630  -54.4845   35.3538 C   0  0  0  0  0  0  0  0  0  0  0  0
   17.0086  -54.7716   36.4360 C   0  0  0  0  0  0  0  0  0  0  0  0
   17.4086  -54.7017   37.7500 C   0  0  0  0  0  0  0  0  0  0  0  0
 22 23  1  0  0  0
 23 24  2  0  0  0
 23 28  1  0  0  0
 24 25  1  0  0  0
 25 26  2  0  0  0
 26 27  1  0  0  0
 26 21  1  0  0  0
 27 28  2  0  0  0
 21  1  1  0  0  0
  1  2  1  0  0  0
  1  5  1  0  0  0
  2  3  2  0  0  0
  2 10  1  0  0  0
  3  4  1  0  0  0
  3  6  1  0  0  0
  4  5  2  0  0  0
  5 14  1  0  0  0
 14 15  1  0  0  0
 14 19  1  0  0  0
 15 16  1  0  0  0
 16 17  1  0  0  0
 17 18  1  0  0  0
 17 20  1  0  0  0
 18 19  1  0  0  0
  6  7  1  0  0  0
  6 12  1  0  0  0
  7  8  2  0  0  0
  7  9  1  0  0  0
  9 10  1  0  0  0
 10 11  2  0  0  0
  9 13  1  0  0  0
M  END
> <minimizedAffinity>
-8.32538

$$$$
2103


 29 32  0  0  0  0  0  0  0  0999 V2000
   16.5642  -56.3477   36.9070 C   0  0  0  0  0  0  0  0  0  0  0  0
   15.4321  -56.8028   37.6721 C   0  0  0  0  0  0  0  0  0  0  0  0
   14.9064  -56.0132   38.6278 C   0  0  0  0  0  0  0  0  0  0  0  0
   15.4439  -54.7412   38.8969 C   0  0  0  0  0  0  0  0  0  0  0  0
   16.5250  -54.2920   38.1782 C   0  0  0  0  0  0  0  0  0  0  0  0
   17.0834  -55.1079   37.1812 C   0  0  0  0  0  0  0  0  0  0  0  0
   18.3093  -54.6782   36.4604 C   0  0  0  0  0  0  0  0  0  0  0  0
   19.0772  -53.5670   37.1685 C   0  0  0  0  0  0  0  0  0  0  0  0
   18.1986  -52.5118   37.6159 N   0  0  0  0  0  0  0  0  0  0  0  0
   17.0897  -52.9652   38.4047 C   0  0  0  0  0  0  0  0  0  0  0  0
   16.6585  -52.1716   39.2664 O   0  0  0  0  0  0  0  0  0  0  0  0
   18.4196  -51.1184   37.2941 C   0  0  0  0  0  0  0  0  0  0  0  0
   14.8614  -54.0127   39.8661 O   0  0  0  0  0  0  0  0  0  0  0  0
   13.8304  -56.7122   39.1962 O   0  0  0  0  0  0  0  0  0  0  0  0
   13.5282  -57.8474   38.4130 C   0  0  0  0  0  0  0  0  0  0  0  0
   14.6976  -57.9917   37.6313 O   0  0  0  0  0  0  0  0  0  0  0  0
   15.0566  -53.1374   40.2132 H   0  0  0  0  0  0  0  0  0  0  0  0
   16.9679  -57.3327   35.9263 C   0  0  0  0  0  0  0  0  0  0  0  0
   18.1321  -57.8169   33.8467 C   0  0  0  0  0  0  0  0  0  0  0  0
   18.9167  -58.5084   34.5172 O   0  0  0  0  0  0  0  0  0  0  0  0
   17.0242  -57.1327   34.5449 N   0  0  0  0  0  0  0  0  0  0  0  0
   16.4215  -56.6251   33.8811 H   0  0  0  0  0  0  0  0  0  0  0  0
   21.2532  -57.3451   29.5492 Br  0  0  0  0  0  0  0  0  0  0  0  0
   19.5597  -57.4747   30.4224 C   0  0  0  0  0  0  0  0  0  0  0  0
   18.4075  -57.4523   29.7024 C   0  0  0  0  0  0  0  0  0  0  0  0
   17.2191  -57.5419   30.2978 N   0  0  0  0  0  0  0  0  0  0  0  0
   17.1513  -57.6564   31.6320 C   0  0  0  0  0  0  0  0  0  0  0  0
   18.2975  -57.6848   32.4186 C   0  0  0  0  0  0  0  0  0  0  0  0
   19.5289  -57.5932   31.8112 C   0  0  0  0  0  0  0  0  0  0  0  0
 23 24  1  0  0  0
 24 25  2  0  0  0
 24 29  1  0  0  0
 25 26  1  0  0  0
 26 27  2  0  0  0
 27 28  1  0  0  0
 28 29  2  0  0  0
 28 19  1  0  0  0
 19 20  2  0  0  0
 19 21  1  0  0  0
 21 18  1  0  0  0
 18  1  1  0  0  0
  1  2  2  0  0  0
  1  6  1  0  0  0
  2  3  1  0  0  0
  2 16  1  0  0  0
  3  4  2  0  0  0
  3 14  1  0  0  0
  4  5  1  0  0  0
  4 13  1  0  0  0
  5  6  2  0  0  0
  5 10  1  0  0  0
  6  7  1  0  0  0
  7  8  1  0  0  0
  8  9  1  0  0  0
  9 10  1  0  0  0
  9 12  1  0  0  0
 10 11  2  0  0  0
 14 15  1  0  0  0
 15 16  1  0  0  0
 21 22  1  0  0  0
 13 17  1  0  0  0
M  END
> <minimizedAffinity>
-10.01275

$$$$
2105


 29 32  0  0  0  0  0  0  0  0999 V2000
   14.4785  -61.5782   34.2968 Cl  0  0  0  0  0  0  0  0  0  0  0  0
   14.4052  -59.8350   34.1453 C   0  0  0  0  0  0  0  0  0  0  0  0
   15.5722  -59.0709   34.1649 C   0  0  0  0  0  0  0  0  0  0  0  0
   15.5580  -57.7124   34.0505 C   0  0  0  0  0  0  0  0  0  0  0  0
   14.3125  -57.1156   33.9101 C   0  0  0  0  0  0  0  0  0  0  0  0
   13.1488  -57.8532   33.8875 C   0  0  0  0  0  0  0  0  0  0  0  0
   13.1841  -59.2244   34.0052 C   0  0  0  0  0  0  0  0  0  0  0  0
   16.9462  -57.2104   34.1089 C   0  0  0  0  0  0  0  0  0  0  0  0
   17.1299  -56.3237   35.3145 C   0  0  0  0  0  0  0  0  0  0  0  0
   17.5627  -55.0957   35.2449 C   0  0  0  0  0  0  0  0  0  0  0  0
   17.8996  -54.4876   34.0000 N   0  0  0  0  0  0  0  0  0  0  0  0
   17.7560  -55.2508   32.8156 C   0  0  0  0  0  0  0  0  0  0  0  0
   17.3217  -56.4892   32.8738 C   0  0  0  0  0  0  0  0  0  0  0  0
   18.0750  -54.7102   31.5298 N   0  0  0  0  0  0  0  0  0  0  0  0
   17.6197  -54.5310   36.6085 C   0  0  0  0  0  0  0  0  0  0  0  0
   17.1877  -55.5303   37.4465 O   0  0  0  0  0  0  0  0  0  0  0  0
   16.8749  -56.6504   36.7119 C   0  0  0  0  0  0  0  0  0  0  0  0
   16.4413  -57.7766   37.1399 O   0  0  0  0  0  0  0  0  0  0  0  0
   16.7809  -53.2733   36.6561 C   0  0  0  0  0  0  0  0  0  0  0  0
   19.0348  -54.1504   37.0039 C   0  0  0  0  0  0  0  0  0  0  0  0
   17.7722  -58.4298   34.2705 C   0  0  0  0  0  0  0  0  0  0  0  0
   19.0506  -58.4793   34.3675 O   0  0  0  0  0  0  0  0  0  0  0  0
   16.9031  -59.5393   34.3015 N   0  0  0  0  0  0  0  0  0  0  0  0
   18.2456  -53.5067   33.9371 H   0  0  0  0  0  0  0  0  0  0  0  0
   17.6892  -53.8056   31.2288 H   0  0  0  0  0  0  0  0  0  0  0  0
   18.6979  -55.2472   30.9148 H   0  0  0  0  0  0  0  0  0  0  0  0
   17.2328  -60.5465   34.4092 H   0  0  0  0  0  0  0  0  0  0  0  0
   17.1888  -57.2383   31.6321 C   0  0  0  0  0  0  0  0  0  0  0  0
   17.0729  -57.8212   30.6395 N   0  0  0  0  0  0  0  0  0  0  0  0
  1  2  1  0  0  0
  2  3  2  0  0  0
  2  7  1  0  0  0
  3  4  1  0  0  0
  3 23  1  0  0  0
  4  5  2  0  0  0
  4  8  1  0  0  0
  5  6  1  0  0  0
  6  7  2  0  0  0
  8  9  1  0  0  0
  8 13  1  0  0  0
  8 21  1  0  0  0
  9 10  2  0  0  0
  9 17  1  0  0  0
 10 11  1  0  0  0
 10 15  1  0  0  0
 11 12  1  0  0  0
 12 13  2  0  0  0
 12 14  1  0  0  0
 13 28  1  0  0  0
 28 29  3  0  0  0
 15 16  1  0  0  0
 15 19  1  0  0  0
 15 20  1  0  0  0
 16 17  1  0  0  0
 17 18  2  0  0  0
 21 22  2  0  0  0
 21 23  1  0  0  0
 11 24  1  0  0  0
 14 25  1  0  0  0
 14 26  1  0  0  0
 23 27  1  0  0  0
M  END
> <minimizedAffinity>
-9.08255

$$$$
2109


 21 24  0  0  0  0  0  0  0  0999 V2000
   17.1873  -57.1778   34.3505 N   0  0  0  0  0  0  0  0  0  0  0  0
   16.1652  -57.5568   33.4169 C   0  0  0  0  0  0  0  0  0  0  0  0
   15.0717  -56.9665   33.2341 O   0  0  0  0  0  0  0  0  0  0  0  0
   16.5819  -58.7711   32.6788 C   0  0  0  0  0  0  0  0  0  0  0  0
   16.4688  -58.6245   31.3008 O   0  0  0  0  0  0  0  0  0  0  0  0
   17.3461  -57.7142   30.9116 N   0  0  0  0  0  0  0  0  0  0  0  0
   18.4059  -57.6118   31.8148 C   0  0  0  0  0  0  0  0  0  0  0  0
   18.0961  -58.6984   32.8457 C   0  0  0  0  0  0  0  0  0  0  0  0
   18.2021  -58.1736   34.2281 C   0  0  0  0  0  0  0  0  0  0  0  0
   19.0022  -58.4954   35.1567 O   0  0  0  0  0  0  0  0  0  0  0  0
   19.7875  -57.6727   31.3181 C   0  0  0  0  0  0  0  0  0  0  0  0
   19.9984  -57.7738   29.8587 C   0  0  0  0  0  0  0  0  0  0  0  0
   18.9027  -57.0048   29.1537 C   0  0  0  0  0  0  0  0  0  0  0  0
   17.6044  -57.6689   29.5322 C   0  0  0  0  0  0  0  0  0  0  0  0
   17.2943  -52.3825   37.9732 Cl  0  0  0  0  0  0  0  0  0  0  0  0
   17.2624  -53.7835   36.9171 C   0  0  0  0  0  0  0  0  0  0  0  0
   16.8240  -55.0056   37.3832 C   0  0  0  0  0  0  0  0  0  0  0  0
   16.8028  -56.1059   36.5424 C   0  0  0  0  0  0  0  0  0  0  0  0
   17.2057  -56.0486   35.2255 C   0  0  0  0  0  0  0  0  0  0  0  0
   17.6450  -54.8153   34.7659 C   0  0  0  0  0  0  0  0  0  0  0  0
   17.6679  -53.7140   35.6006 C   0  0  0  0  0  0  0  0  0  0  0  0
 15 16  1  0  0  0
 16 17  2  0  0  0
 16 21  1  0  0  0
 17 18  1  0  0  0
 18 19  2  0  0  0
 19 20  1  0  0  0
 19  1  1  0  0  0
 20 21  2  0  0  0
  1  2  1  0  0  0
  1  9  1  0  0  0
  2  3  2  0  0  0
  2  4  1  0  0  0
  4  5  1  0  0  0
  4  8  1  0  0  0
  5  6  1  0  0  0
  6  7  1  0  0  0
  6 14  1  0  0  0
  7  8  1  0  0  0
  7 11  1  0  0  0
  8  9  1  0  0  0
  9 10  2  0  0  0
 11 12  1  0  0  0
 12 13  1  0  0  0
 13 14  1  0  0  0
M  END
> <minimizedAffinity>
-8.03214

$$$$
2116


 33 36  0  0  0  0  0  0  0  0999 V2000
   13.4298  -57.8957   38.2888 C   0  0  0  0  0  0  0  0  0  0  0  0
   12.6707  -58.9181   38.6497 N   0  0  0  0  0  0  0  0  0  0  0  0
   12.3066  -59.9186   37.8289 C   0  0  0  0  0  0  0  0  0  0  0  0
   12.7586  -59.8536   36.5576 N   0  0  0  0  0  0  0  0  0  0  0  0
   13.5425  -58.8291   36.1270 C   0  0  0  0  0  0  0  0  0  0  0  0
   13.8690  -57.8556   37.0130 N   0  0  0  0  0  0  0  0  0  0  0  0
   13.9939  -58.7656   34.7934 N   0  0  0  0  0  0  0  0  0  0  0  0
   13.7093  -57.6267   33.9588 C   0  0  0  0  0  0  0  0  0  0  0  0
   15.0717  -57.1733   33.4140 C   0  0  0  0  0  0  0  0  0  0  0  0
   15.7018  -58.2523   32.8281 O   0  0  0  0  0  0  0  0  0  0  0  0
   16.0957  -59.1736   33.7977 C   0  0  0  0  0  0  0  0  0  0  0  0
   14.7778  -59.8425   34.2440 C   0  0  0  0  0  0  0  0  0  0  0  0
   11.4759  -61.0069   38.2661 N   0  0  0  0  0  0  0  0  0  0  0  0
   12.0393  -62.2708   38.6469 C   0  0  0  0  0  0  0  0  0  0  0  0
   11.1324  -63.2283   39.3161 C   0  0  0  0  0  0  0  0  0  0  0  0
    9.7819  -62.9437   39.1695 O   0  0  0  0  0  0  0  0  0  0  0  0
    9.4939  -61.6153   39.4510 C   0  0  0  0  0  0  0  0  0  0  0  0
   10.0585  -60.7984   38.3147 C   0  0  0  0  0  0  0  0  0  0  0  0
   13.7369  -56.8653   39.2198 N   0  0  0  0  0  0  0  0  0  0  0  0
   13.4045  -56.9455   40.1880 H   0  0  0  0  0  0  0  0  0  0  0  0
   15.7576  -55.6775   38.9227 C   0  0  0  0  0  0  0  0  0  0  0  0
   14.4750  -55.7609   38.8284 N   0  0  0  0  0  0  0  0  0  0  0  0
   19.5532  -53.3898   35.8981 Br  0  0  0  0  0  0  0  0  0  0  0  0
   18.1545  -53.3364   37.1847 C   0  0  0  0  0  0  0  0  0  0  0  0
   17.8124  -52.1085   37.7289 C   0  0  0  0  0  0  0  0  0  0  0  0
   16.7968  -52.0962   38.6658 C   0  0  0  0  0  0  0  0  0  0  0  0
   16.1599  -53.2517   39.0377 C   0  0  0  0  0  0  0  0  0  0  0  0
   16.4852  -54.4976   38.5026 C   0  0  0  0  0  0  0  0  0  0  0  0
   17.5000  -54.4907   37.5707 C   0  0  0  0  0  0  0  0  0  0  0  0
   15.1336  -53.2320   39.9880 O   0  0  0  0  0  0  0  0  0  0  0  0
   18.4535  -50.9281   37.3589 O   0  0  0  0  0  0  0  0  0  0  0  0
   14.8746  -52.3392   40.3970 H   0  0  0  0  0  0  0  0  0  0  0  0
   19.1953  -50.8834   36.6767 H   0  0  0  0  0  0  0  0  0  0  0  0
 23 24  1  0  0  0
 24 25  2  0  0  0
 24 29  1  0  0  0
 25 26  1  0  0  0
 25 31  1  0  0  0
 26 27  2  0  0  0
 27 28  1  0  0  0
 27 30  1  0  0  0
 28 29  2  0  0  0
 28 21  1  0  0  0
 21 22  2  0  0  0
 22 19  1  0  0  0
 19  1  1  0  0  0
  1  2  2  0  0  0
  1  6  1  0  0  0
  2  3  1  0  0  0
  3  4  2  0  0  0
  3 13  1  0  0  0
  4  5  1  0  0  0
  5  6  2  0  0  0
  5  7  1  0  0  0
  7  8  1  0  0  0
  7 12  1  0  0  0
  8  9  1  0  0  0
  9 10  1  0  0  0
 10 11  1  0  0  0
 11 12  1  0  0  0
 13 14  1  0  0  0
 13 18  1  0  0  0
 14 15  1  0  0  0
 15 16  1  0  0  0
 16 17  1  0  0  0
 17 18  1  0  0  0
 19 20  1  0  0  0
 30 32  1  0  0  0
 31 33  1  0  0  0
M  END
> <minimizedAffinity>
-9.75315

$$$$
2121


 31 34  0  0  0  0  0  0  0  0999 V2000
   10.9615  -59.2963   38.4480 C   0  0  0  0  0  0  0  0  0  0  0  0
   10.1516  -59.5344   37.4077 O   0  0  0  0  0  0  0  0  0  0  0  0
   10.3865  -59.5981   39.6641 N   0  0  0  0  0  0  0  0  0  0  0  0
    9.0157  -60.1566   39.4935 C   0  0  0  0  0  0  0  0  0  0  0  0
    9.1100  -61.6647   39.3653 C   0  0  0  0  0  0  0  0  0  0  0  0
   10.3942  -62.0920   39.9665 C   0  0  0  0  0  0  0  0  0  0  0  0
   10.4772  -61.6966   41.4050 C   0  0  0  0  0  0  0  0  0  0  0  0
   11.6260  -60.6773   41.4989 C   0  0  0  0  0  0  0  0  0  0  0  0
   11.0148  -59.3865   40.9221 C   0  0  0  0  0  0  0  0  0  0  0  0
   10.6805  -62.7652   42.2758 O   0  0  0  0  0  0  0  0  0  0  0  0
   10.2035  -63.5516   41.8544 H   0  0  0  0  0  0  0  0  0  0  0  0
   17.7389  -58.1561   35.2043 Cl  0  0  0  0  0  0  0  0  0  0  0  0
   16.3025  -57.9154   36.2025 C   0  0  0  0  0  0  0  0  0  0  0  0
   15.3384  -58.8710   36.1887 C   0  0  0  0  0  0  0  0  0  0  0  0
   14.2112  -58.6509   36.9881 C   0  0  0  0  0  0  0  0  0  0  0  0
   14.0683  -57.5428   37.7485 C   0  0  0  0  0  0  0  0  0  0  0  0
   12.8636  -57.6465   38.3879 N   0  0  0  0  0  0  0  0  0  0  0  0
   12.2447  -58.7815   38.0550 C   0  0  0  0  0  0  0  0  0  0  0  0
   13.0897  -59.4378   37.1616 C   0  0  0  0  0  0  0  0  0  0  0  0
   15.0495  -56.5886   37.7515 C   0  0  0  0  0  0  0  0  0  0  0  0
   16.1799  -56.7753   36.9703 C   0  0  0  0  0  0  0  0  0  0  0  0
   12.5521  -56.9139   39.0383 H   0  0  0  0  0  0  0  0  0  0  0  0
   10.7963  -63.4526   39.8007 N   0  0  0  0  0  0  0  0  0  0  0  0
   12.0725  -63.6361   39.1567 C   0  0  0  0  0  0  0  0  0  0  0  0
   12.0626  -63.1472   37.7582 C   0  0  0  0  0  0  0  0  0  0  0  0
   10.9666  -63.8473   37.0789 N   0  0  0  0  0  0  0  0  0  0  0  0
   10.2404  -64.7995   37.8782 C   0  0  0  0  0  0  0  0  0  0  0  0
    9.7841  -64.2866   39.2116 C   0  0  0  0  0  0  0  0  0  0  0  0
   10.6923  -63.5790   35.7033 C   0  0  0  0  0  0  0  0  0  0  0  0
    9.7565  -64.1650   35.1431 O   0  0  0  0  0  0  0  0  0  0  0  0
   11.5563  -62.5905   34.9840 C   0  0  0  0  0  0  0  0  0  0  0  0
 12 13  1  0  0  0
 13 14  2  0  0  0
 13 21  1  0  0  0
 14 15  1  0  0  0
 15 16  2  0  0  0
 15 19  1  0  0  0
 16 17  1  0  0  0
 16 20  1  0  0  0
 17 18  1  0  0  0
 18 19  2  0  0  0
 18  1  1  0  0  0
  1  2  2  0  0  0
  1  3  1  0  0  0
  3  4  1  0  0  0
  3  9  1  0  0  0
  4  5  1  0  0  0
  5  6  1  0  0  0
  6  7  1  0  0  0
  6 23  1  0  0  0
  7  8  1  0  0  0
  7 10  1  0  0  0
  8  9  1  0  0  0
 23 24  1  0  0  0
 23 28  1  0  0  0
 24 25  1  0  0  0
 25 26  1  0  0  0
 26 27  1  0  0  0
 26 29  1  0  0  0
 27 28  1  0  0  0
 29 30  2  0  0  0
 29 31  1  0  0  0
 20 21  2  0  0  0
 17 22  1  0  0  0
 10 11  1  0  0  0
M  END
> <minimizedAffinity>
-7.34394

$$$$
2122


 29 32  0  0  0  0  0  0  0  0999 V2000
   19.0992  -54.9237   34.6238 C   0  0  0  0  0  0  0  0  0  0  0  0
   19.2571  -54.4230   33.3864 N   0  0  0  0  0  0  0  0  0  0  0  0
   18.4173  -54.9778   32.5592 O   0  0  0  0  0  0  0  0  0  0  0  0
   17.7070  -55.8454   33.2515 C   0  0  0  0  0  0  0  0  0  0  0  0
   18.1137  -55.8254   34.5239 N   0  0  0  0  0  0  0  0  0  0  0  0
   16.6314  -56.6695   32.6046 C   0  0  0  0  0  0  0  0  0  0  0  0
   16.9382  -56.9370   31.3915 O   0  0  0  0  0  0  0  0  0  0  0  0
   15.5355  -57.0259   33.2991 N   0  0  0  0  0  0  0  0  0  0  0  0
   15.0931  -57.7424   32.2161 H   0  0  0  0  0  0  0  0  0  0  0  0
   14.4039  -57.4011   33.9980 C   0  0  0  0  0  0  0  0  0  0  0  0
   14.7011  -57.8990   35.4174 C   0  0  0  0  0  0  0  0  0  0  0  0
   13.5829  -58.3850   36.1238 N   0  0  0  0  0  0  0  0  0  0  0  0
   13.8696  -58.5386   37.4963 C   0  0  0  0  0  0  0  0  0  0  0  0
   13.0302  -59.5762   38.1624 C   0  0  0  0  0  0  0  0  0  0  0  0
   11.7428  -59.4725   37.7021 O   0  0  0  0  0  0  0  0  0  0  0  0
   11.5948  -59.7995   36.3676 C   0  0  0  0  0  0  0  0  0  0  0  0
   12.7041  -59.2856   35.4984 C   0  0  0  0  0  0  0  0  0  0  0  0
   19.8649  -54.5011   35.8285 C   0  0  0  0  0  0  0  0  0  0  0  0
   15.3357  -55.7318   39.2449 Cl  0  0  0  0  0  0  0  0  0  0  0  0
   16.2980  -54.3764   38.6770 C   0  0  0  0  0  0  0  0  0  0  0  0
   17.3513  -54.6278   37.8027 C   0  0  0  0  0  0  0  0  0  0  0  0
   18.1081  -53.5535   37.3560 C   0  0  0  0  0  0  0  0  0  0  0  0
   17.7728  -52.2746   37.8070 C   0  0  0  0  0  0  0  0  0  0  0  0
   16.7369  -52.0452   38.6651 C   0  0  0  0  0  0  0  0  0  0  0  0
   15.9932  -53.0968   39.1051 C   0  0  0  0  0  0  0  0  0  0  0  0
   18.6387  -51.4968   37.2332 O   0  0  0  0  0  0  0  0  0  0  0  0
   19.4721  -52.1654   36.4775 C   0  0  0  0  0  0  0  0  0  0  0  0
   20.4027  -51.6293   35.8182 O   0  0  0  0  0  0  0  0  0  0  0  0
   19.1590  -53.4718   36.5352 N   0  0  0  0  0  0  0  0  0  0  0  0
 19 20  1  0  0  0
 20 21  2  0  0  0
 20 25  1  0  0  0
 21 22  1  0  0  0
 22 23  2  0  0  0
 22 29  1  0  0  0
 23 24  1  0  0  0
 23 26  1  0  0  0
 24 25  2  0  0  0
 26 27  1  0  0  0
 27 28  2  0  0  0
 27 29  1  0  0  0
 29 18  1  0  0  0
 18  1  1  0  0  0
  1  2  2  0  0  0
  1  5  1  0  0  0
  2  3  1  0  0  0
  3  4  1  0  0  0
  4  5  2  0  0  0
  4  6  1  0  0  0
  6  7  2  0  0  0
  6  8  1  0  0  0
  8 10  1  0  0  0
 10 11  1  0  0  0
 11 12  1  0  0  0
 12 13  1  0  0  0
 12 17  1  0  0  0
 13 14  1  0  0  0
 14 15  1  0  0  0
 15 16  1  0  0  0
 16 17  1  0  0  0
  8  9  1  0  0  0
M  END
> <minimizedAffinity>
-9.33589

$$$$
2124


 25 29  0  0  0  0  0  0  0  0999 V2000
   16.1686  -57.0839   36.0574 N   0  0  0  0  0  0  0  0  0  0  0  0
   14.8404  -57.5155   36.3139 C   0  0  0  0  0  0  0  0  0  0  0  0
   13.9246  -56.8003   36.8000 O   0  0  0  0  0  0  0  0  0  0  0  0
   14.6716  -58.9552   35.9247 C   0  0  0  0  0  0  0  0  0  0  0  0
   13.5712  -59.1187   34.9305 C   0  0  0  0  0  0  0  0  0  0  0  0
   14.1470  -59.8781   33.8819 O   0  0  0  0  0  0  0  0  0  0  0  0
   15.2658  -59.0315   33.6726 C   0  0  0  0  0  0  0  0  0  0  0  0
   15.9110  -59.1820   35.0466 C   0  0  0  0  0  0  0  0  0  0  0  0
   16.8557  -58.1242   35.3735 C   0  0  0  0  0  0  0  0  0  0  0  0
   18.0796  -58.1514   35.0847 O   0  0  0  0  0  0  0  0  0  0  0  0
   14.5868  -57.7236   33.5139 C   0  0  0  0  0  0  0  0  0  0  0  0
   13.4360  -57.8112   34.2122 C   0  0  0  0  0  0  0  0  0  0  0  0
   16.1259  -59.4328   32.5480 C   0  0  0  0  0  0  0  0  0  0  0  0
   18.8532  -51.8558   37.3179 Cl  0  0  0  0  0  0  0  0  0  0  0  0
   18.0637  -53.3982   36.9742 C   0  0  0  0  0  0  0  0  0  0  0  0
   17.5666  -54.1915   37.9800 C   0  0  0  0  0  0  0  0  0  0  0  0
   16.9502  -55.3921   37.6745 C   0  0  0  0  0  0  0  0  0  0  0  0
   16.8054  -55.8460   36.3857 C   0  0  0  0  0  0  0  0  0  0  0  0
   17.3040  -55.0490   35.3718 C   0  0  0  0  0  0  0  0  0  0  0  0
   17.9241  -53.8394   35.6776 C   0  0  0  0  0  0  0  0  0  0  0  0
   12.3034  -59.6746   35.4196 C   0  0  0  0  0  0  0  0  0  0  0  0
   11.6700  -60.3313   34.3626 O   0  0  0  0  0  0  0  0  0  0  0  0
   12.1191  -61.6276   34.3325 C   0  0  0  0  0  0  0  0  0  0  0  0
   12.4950  -61.8823   35.7681 C   0  0  0  0  0  0  0  0  0  0  0  0
   12.5612  -60.6515   36.3816 O   0  0  0  0  0  0  0  0  0  0  0  0
 14 15  1  0  0  0
 15 16  2  0  0  0
 15 20  1  0  0  0
 16 17  1  0  0  0
 17 18  2  0  0  0
 18 19  1  0  0  0
 18  1  1  0  0  0
 19 20  2  0  0  0
  1  2  1  0  0  0
  1  9  1  0  0  0
  2  3  2  0  0  0
  2  4  1  0  0  0
  4  5  1  0  0  0
  4  8  1  0  0  0
  5  6  1  0  0  0
  5 12  1  0  0  0
  5 21  1  0  0  0
  6  7  1  0  0  0
  7  8  1  0  0  0
  7 11  1  0  0  0
  7 13  1  0  0  0
  8  9  1  0  0  0
  9 10  2  0  0  0
 11 12  2  0  0  0
 21 22  1  0  0  0
 21 25  1  0  0  0
 22 23  1  0  0  0
 23 24  1  0  0  0
 24 25  1  0  0  0
M  END
> <minimizedAffinity>
-8.40180

$$$$
2134


 36 39  0  0  0  0  0  0  0  0999 V2000
   15.8367  -56.2354   37.1705 C   0  0  0  0  0  0  0  0  0  0  0  0
   16.3684  -55.0531   37.3643 N   0  0  0  0  0  0  0  0  0  0  0  0
   17.3581  -54.7652   36.4594 N   0  0  0  0  0  0  0  0  0  0  0  0
   17.4454  -55.9057   35.6041 C   0  0  0  0  0  0  0  0  0  0  0  0
   18.1966  -56.1870   34.5811 N   0  0  0  0  0  0  0  0  0  0  0  0
   18.0866  -57.4209   33.8873 N   0  0  0  0  0  0  0  0  0  0  0  0
   17.1597  -58.4086   34.2666 C   0  0  0  0  0  0  0  0  0  0  0  0
   17.0514  -59.5691   33.6338 C   0  0  0  0  0  0  0  0  0  0  0  0
   16.3052  -58.1118   35.4111 C   0  0  0  0  0  0  0  0  0  0  0  0
   15.4833  -58.9647   35.7608 O   0  0  0  0  0  0  0  0  0  0  0  0
   16.4747  -56.8485   36.0559 N   0  0  0  0  0  0  0  0  0  0  0  0
   18.7378  -57.5452   33.0795 H   0  0  0  0  0  0  0  0  0  0  0  0
   18.1598  -53.5879   36.4294 C   0  0  0  0  0  0  0  0  0  0  0  0
   19.1688  -53.4313   35.5110 C   0  0  0  0  0  0  0  0  0  0  0  0
   19.9516  -52.2891   35.4112 C   0  0  0  0  0  0  0  0  0  0  0  0
   19.7324  -51.2290   36.2676 C   0  0  0  0  0  0  0  0  0  0  0  0
   18.7263  -51.3640   37.2011 C   0  0  0  0  0  0  0  0  0  0  0  0
   17.9563  -52.5237   37.2781 C   0  0  0  0  0  0  0  0  0  0  0  0
   20.5262  -49.9662   36.1705 C   0  0  0  0  0  0  0  0  0  0  0  0
   13.5526  -57.1669   37.3569 N   0  0  0  0  0  0  0  0  0  0  0  0
   14.7723  -56.8022   37.9751 C   0  0  0  0  0  0  0  0  0  0  0  0
   14.9093  -56.9723   39.2286 O   0  0  0  0  0  0  0  0  0  0  0  0
   13.3902  -57.0737   36.3434 H   0  0  0  0  0  0  0  0  0  0  0  0
   11.1542  -59.4954   39.1411 N   0  0  0  0  0  0  0  0  0  0  0  0
   12.1997  -59.0405   38.3187 C   0  0  0  0  0  0  0  0  0  0  0  0
   12.8765  -59.9061   37.7003 O   0  0  0  0  0  0  0  0  0  0  0  0
   12.5343  -57.6829   38.1505 N   0  0  0  0  0  0  0  0  0  0  0  0
   10.5672  -58.7979   39.6631 H   0  0  0  0  0  0  0  0  0  0  0  0
   11.9647  -56.9327   38.6617 H   0  0  0  0  0  0  0  0  0  0  0  0
    9.7074  -65.1746   40.0470 Cl  0  0  0  0  0  0  0  0  0  0  0  0
   10.1025  -63.4795   39.7354 C   0  0  0  0  0  0  0  0  0  0  0  0
    9.5423  -62.8170   38.6740 C   0  0  0  0  0  0  0  0  0  0  0  0
    9.9043  -61.5001   38.4960 C   0  0  0  0  0  0  0  0  0  0  0  0
   10.7985  -60.8582   39.3496 C   0  0  0  0  0  0  0  0  0  0  0  0
   11.3387  -61.5714   40.4102 C   0  0  0  0  0  0  0  0  0  0  0  0
   10.9856  -62.8884   40.5984 C   0  0  0  0  0  0  0  0  0  0  0  0
 30 31  1  0  0  0
 31 32  2  0  0  0
 31 36  1  0  0  0
 32 33  1  0  0  0
 33 34  2  0  0  0
 34 35  1  0  0  0
 34 24  1  0  0  0
 35 36  2  0  0  0
 24 25  1  0  0  0
 25 26  2  0  0  0
 25 27  1  0  0  0
 27 20  1  0  0  0
 20 21  1  0  0  0
 21 22  2  0  0  0
 21  1  1  0  0  0
  1  2  2  0  0  0
  1 11  1  0  0  0
  2  3  1  0  0  0
  3  4  1  0  0  0
  3 13  1  0  0  0
  4  5  2  0  0  0
  4 11  1  0  0  0
  5  6  1  0  0  0
  6  7  1  0  0  0
  7  8  2  0  0  0
  7  9  1  0  0  0
  9 10  2  0  0  0
  9 11  1  0  0  0
 13 14  2  0  0  0
 13 18  1  0  0  0
 14 15  1  0  0  0
 15 16  2  0  0  0
 16 17  1  0  0  0
 16 19  1  0  0  0
 17 18  2  0  0  0
 24 28  1  0  0  0
 27 29  1  0  0  0
 20 23  1  0  0  0
  6 12  1  0  0  0
M  END
> <minimizedAffinity>
-10.26856

$$$$
2136


 33 37  0  0  0  0  0  0  0  0999 V2000
   15.6121  -61.7800   34.0459 Cl  0  0  0  0  0  0  0  0  0  0  0  0
   15.1045  -60.1045   34.0064 C   0  0  0  0  0  0  0  0  0  0  0  0
   15.9990  -59.0540   34.0151 C   0  0  0  0  0  0  0  0  0  0  0  0
   15.5613  -57.7344   33.9837 C   0  0  0  0  0  0  0  0  0  0  0  0
   14.2083  -57.5372   33.9432 C   0  0  0  0  0  0  0  0  0  0  0  0
   13.3021  -58.5707   33.9332 C   0  0  0  0  0  0  0  0  0  0  0  0
   13.7354  -59.8624   33.9642 C   0  0  0  0  0  0  0  0  0  0  0  0
   16.7421  -56.8629   34.0024 C   0  0  0  0  0  0  0  0  0  0  0  0
   16.7440  -55.9534   35.1341 N   0  0  0  0  0  0  0  0  0  0  0  0
   17.7604  -54.9766   34.7356 C   0  0  0  0  0  0  0  0  0  0  0  0
   17.6408  -54.8089   33.2687 C   0  0  0  0  0  0  0  0  0  0  0  0
   16.7321  -55.9139   32.8335 C   0  0  0  0  0  0  0  0  0  0  0  0
   17.2720  -56.5058   31.6062 C   0  0  0  0  0  0  0  0  0  0  0  0
   16.6203  -57.2689   30.8501 O   0  0  0  0  0  0  0  0  0  0  0  0
   18.6113  -56.0439   31.4827 N   0  0  0  0  0  0  0  0  0  0  0  0
   18.9235  -55.1660   32.5560 C   0  0  0  0  0  0  0  0  0  0  0  0
   20.0481  -54.7194   32.9114 O   0  0  0  0  0  0  0  0  0  0  0  0
   17.9175  -57.7471   34.0522 C   0  0  0  0  0  0  0  0  0  0  0  0
   19.1182  -57.4415   34.0836 O   0  0  0  0  0  0  0  0  0  0  0  0
   17.4180  -59.0767   34.0567 N   0  0  0  0  0  0  0  0  0  0  0  0
   17.0197  -56.4409   36.0303 H   0  0  0  0  0  0  0  0  0  0  0  0
   17.9888  -59.9641   34.0861 H   0  0  0  0  0  0  0  0  0  0  0  0
   19.5216  -56.4246   30.4056 C   0  0  0  0  0  0  0  0  0  0  0  0
   20.1094  -57.7855   30.7497 C   0  0  0  0  0  0  0  0  0  0  0  0
   19.5292  -58.7829   29.9821 O   0  0  0  0  0  0  0  0  0  0  0  0
   19.3119  -58.3109   28.7023 C   0  0  0  0  0  0  0  0  0  0  0  0
   17.5730  -53.6742   35.4539 C   0  0  0  0  0  0  0  0  0  0  0  0
   17.7651  -53.7446   36.9118 C   0  0  0  0  0  0  0  0  0  0  0  0
   19.0399  -54.0545   37.3807 C   0  0  0  0  0  0  0  0  0  0  0  0
   19.2560  -54.1069   38.7334 C   0  0  0  0  0  0  0  0  0  0  0  0
   18.2673  -53.8661   39.6574 C   0  0  0  0  0  0  0  0  0  0  0  0
   17.0207  -53.5629   39.1542 C   0  0  0  0  0  0  0  0  0  0  0  0
   16.7488  -53.4963   37.8039 C   0  0  0  0  0  0  0  0  0  0  0  0
  1  2  1  0  0  0
  2  3  2  0  0  0
  2  7  1  0  0  0
  3  4  1  0  0  0
  3 20  1  0  0  0
  4  5  2  0  0  0
  4  8  1  0  0  0
  5  6  1  0  0  0
  6  7  2  0  0  0
  8  9  1  0  0  0
  8 12  1  0  0  0
  8 18  1  0  0  0
  9 10  1  0  0  0
 10 11  1  0  0  0
 10 27  1  0  0  0
 11 12  1  0  0  0
 11 16  1  0  0  0
 12 13  1  0  0  0
 13 14  2  0  0  0
 13 15  1  0  0  0
 15 16  1  0  0  0
 15 23  1  0  0  0
 16 17  2  0  0  0
 23 24  1  0  0  0
 24 25  1  0  0  0
 25 26  1  0  0  0
 27 28  1  0  0  0
 28 29  2  0  0  0
 28 33  1  0  0  0
 29 30  1  0  0  0
 30 31  2  0  0  0
 31 32  1  0  0  0
 32 33  2  0  0  0
 18 19  2  0  0  0
 18 20  1  0  0  0
  9 21  1  0  0  0
 20 22  1  0  0  0
M  END
> <minimizedAffinity>
-9.59273

$$$$
2139


 27 30  0  0  0  0  0  0  0  0999 V2000
   17.7553  -56.0913   34.5723 N   0  0  0  0  0  0  0  0  0  0  0  0
   18.2299  -57.4107   34.4384 C   0  0  0  0  0  0  0  0  0  0  0  0
   17.2105  -58.5077   34.5834 C   0  0  0  0  0  0  0  0  0  0  0  0
   15.8940  -57.8835   34.2888 N   0  0  0  0  0  0  0  0  0  0  0  0
   15.9317  -56.9442   33.2330 C   0  0  0  0  0  0  0  0  0  0  0  0
   16.6448  -55.7116   33.7454 C   0  0  0  0  0  0  0  0  0  0  0  0
   14.7999  -58.3250   35.0628 C   0  0  0  0  0  0  0  0  0  0  0  0
   13.8360  -59.0959   34.4749 N   0  0  0  0  0  0  0  0  0  0  0  0
   12.7431  -59.5443   35.0792 C   0  0  0  0  0  0  0  0  0  0  0  0
   12.5501  -59.2277   36.3707 N   0  0  0  0  0  0  0  0  0  0  0  0
   13.4705  -58.4680   37.0063 C   0  0  0  0  0  0  0  0  0  0  0  0
   13.5500  -58.0134   38.2705 N   0  0  0  0  0  0  0  0  0  0  0  0
   14.6720  -57.3077   38.4138 C   0  0  0  0  0  0  0  0  0  0  0  0
   15.3503  -57.2846   37.2528 N   0  0  0  0  0  0  0  0  0  0  0  0
   14.6221  -57.9934   36.3754 C   0  0  0  0  0  0  0  0  0  0  0  0
   11.7641  -60.3561   34.3972 N   0  0  0  0  0  0  0  0  0  0  0  0
   16.2648  -56.8024   37.1196 H   0  0  0  0  0  0  0  0  0  0  0  0
   10.7888  -60.0500   34.2765 H   0  0  0  0  0  0  0  0  0  0  0  0
   12.0411  -61.2803   34.0106 H   0  0  0  0  0  0  0  0  0  0  0  0
   17.8160  -55.4910   35.8489 C   0  0  0  0  0  0  0  0  0  0  0  0
   20.4120  -50.1007   36.1910 Cl  0  0  0  0  0  0  0  0  0  0  0  0
   19.6476  -51.6744   36.1000 C   0  0  0  0  0  0  0  0  0  0  0  0
   18.6695  -52.0131   37.0110 C   0  0  0  0  0  0  0  0  0  0  0  0
   18.0993  -53.2752   36.8878 C   0  0  0  0  0  0  0  0  0  0  0  0
   18.4583  -54.1800   35.9208 C   0  0  0  0  0  0  0  0  0  0  0  0
   19.4327  -53.8223   35.0236 C   0  0  0  0  0  0  0  0  0  0  0  0
   20.0088  -52.5794   35.1281 C   0  0  0  0  0  0  0  0  0  0  0  0
 21 22  1  0  0  0
 22 23  2  0  0  0
 22 27  1  0  0  0
 23 24  1  0  0  0
 24 25  2  0  0  0
 25 26  1  0  0  0
 25 20  1  0  0  0
 26 27  2  0  0  0
 20  1  1  0  0  0
  1  2  1  0  0  0
  1  6  1  0  0  0
  2  3  1  0  0  0
  3  4  1  0  0  0
  4  5  1  0  0  0
  4  7  1  0  0  0
  5  6  1  0  0  0
  7  8  2  0  0  0
  7 15  1  0  0  0
  8  9  1  0  0  0
  9 10  2  0  0  0
  9 16  1  0  0  0
 10 11  1  0  0  0
 11 12  1  0  0  0
 11 15  2  0  0  0
 12 13  2  0  0  0
 13 14  1  0  0  0
 14 15  1  0  0  0
 14 17  1  0  0  0
 16 18  1  0  0  0
 16 19  1  0  0  0
M  END
> <minimizedAffinity>
-8.58872

$$$$
2149


 24 27  0  0  0  0  0  0  0  0999 V2000
   16.7026  -55.2606   37.9872 N   0  0  0  0  0  0  0  0  0  0  0  0
   17.0999  -55.4976   36.7512 N   0  0  0  0  0  0  0  0  0  0  0  0
   16.3681  -56.4407   36.1872 N   0  0  0  0  0  0  0  0  0  0  0  0
   15.4537  -56.8503   37.0660 C   0  0  0  0  0  0  0  0  0  0  0  0
   15.6631  -56.1049   38.2059 C   0  0  0  0  0  0  0  0  0  0  0  0
   14.8603  -56.3287   39.2562 N   0  0  0  0  0  0  0  0  0  0  0  0
   13.8837  -57.2503   39.1961 C   0  0  0  0  0  0  0  0  0  0  0  0
   13.6985  -57.9659   38.0727 N   0  0  0  0  0  0  0  0  0  0  0  0
   14.4582  -57.8136   36.9564 C   0  0  0  0  0  0  0  0  0  0  0  0
   14.2682  -58.5591   35.7793 N   0  0  0  0  0  0  0  0  0  0  0  0
   13.1182  -58.5265   34.9154 C   0  0  0  0  0  0  0  0  0  0  0  0
   13.5624  -58.1118   33.5620 C   0  0  0  0  0  0  0  0  0  0  0  0
   14.9274  -58.2017   33.2551 N   0  0  0  0  0  0  0  0  0  0  0  0
   15.7744  -59.0234   34.0095 C   0  0  0  0  0  0  0  0  0  0  0  0
   15.2969  -59.4692   35.3404 C   0  0  0  0  0  0  0  0  0  0  0  0
   15.4912  -56.8657   33.1812 C   0  0  0  0  0  0  0  0  0  0  0  0
   17.2385  -54.3025   38.9522 C   0  0  0  0  0  0  0  0  0  0  0  0
   20.2673  -50.0700   35.9379 Cl  0  0  0  0  0  0  0  0  0  0  0  0
   19.3964  -51.3227   36.8163 C   0  0  0  0  0  0  0  0  0  0  0  0
   18.1789  -51.0424   37.3836 C   0  0  0  0  0  0  0  0  0  0  0  0
   17.5073  -52.0400   38.0713 C   0  0  0  0  0  0  0  0  0  0  0  0
   18.0300  -53.2976   38.1971 C   0  0  0  0  0  0  0  0  0  0  0  0
   19.2493  -53.5818   37.6296 C   0  0  0  0  0  0  0  0  0  0  0  0
   19.9155  -52.5946   36.9487 C   0  0  0  0  0  0  0  0  0  0  0  0
 18 19  1  0  0  0
 19 20  2  0  0  0
 19 24  1  0  0  0
 20 21  1  0  0  0
 21 22  2  0  0  0
 22 23  1  0  0  0
 22 17  1  0  0  0
 23 24  2  0  0  0
 17  1  1  0  0  0
  1  2  1  0  0  0
  1  5  1  0  0  0
  2  3  2  0  0  0
  3  4  1  0  0  0
  4  5  2  0  0  0
  4  9  1  0  0  0
  5  6  1  0  0  0
  6  7  2  0  0  0
  7  8  1  0  0  0
  8  9  2  0  0  0
  9 10  1  0  0  0
 10 11  1  0  0  0
 10 15  1  0  0  0
 11 12  1  0  0  0
 12 13  1  0  0  0
 13 14  1  0  0  0
 13 16  1  0  0  0
 14 15  1  0  0  0
M  END
> <minimizedAffinity>
-9.38170

$$$$
2163


 31 34  0  0  0  0  0  0  0  0999 V2000
   15.7217  -57.8379   33.7120 C   0  0  0  0  0  0  0  0  0  0  0  0
   15.2438  -57.9118   34.9730 N   0  0  0  0  0  0  0  0  0  0  0  0
   14.5413  -58.9687   35.3969 C   0  0  0  0  0  0  0  0  0  0  0  0
   14.3141  -59.9724   34.5354 N   0  0  0  0  0  0  0  0  0  0  0  0
   14.7654  -59.9651   33.2526 C   0  0  0  0  0  0  0  0  0  0  0  0
   15.4716  -58.8585   32.8913 N   0  0  0  0  0  0  0  0  0  0  0  0
   14.0376  -59.0459   36.7232 N   0  0  0  0  0  0  0  0  0  0  0  0
   12.7878  -59.7008   37.0406 C   0  0  0  0  0  0  0  0  0  0  0  0
   11.9850  -58.8958   38.0513 C   0  0  0  0  0  0  0  0  0  0  0  0
   12.8097  -58.4530   39.0916 O   0  0  0  0  0  0  0  0  0  0  0  0
   13.8084  -57.6276   38.6334 C   0  0  0  0  0  0  0  0  0  0  0  0
   14.7759  -58.4590   37.8190 C   0  0  0  0  0  0  0  0  0  0  0  0
   14.5238  -61.0203   32.3545 N   0  0  0  0  0  0  0  0  0  0  0  0
   13.6267  -62.0880   32.6821 C   0  0  0  0  0  0  0  0  0  0  0  0
   14.3912  -63.3933   32.4724 C   0  0  0  0  0  0  0  0  0  0  0  0
   14.8479  -63.3896   31.1658 O   0  0  0  0  0  0  0  0  0  0  0  0
   15.8064  -62.4316   30.9335 C   0  0  0  0  0  0  0  0  0  0  0  0
   15.1832  -61.0433   31.0818 C   0  0  0  0  0  0  0  0  0  0  0  0
   16.4720  -56.7302   33.2290 N   0  0  0  0  0  0  0  0  0  0  0  0
   16.8055  -56.6951   32.2276 H   0  0  0  0  0  0  0  0  0  0  0  0
   17.7737  -55.6420   34.8727 C   0  0  0  0  0  0  0  0  0  0  0  0
   16.8093  -55.6395   34.0320 N   0  0  0  0  0  0  0  0  0  0  0  0
   16.4490  -52.3692   38.8728 Br  0  0  0  0  0  0  0  0  0  0  0  0
   17.6074  -52.9712   37.4842 C   0  0  0  0  0  0  0  0  0  0  0  0
   17.2777  -54.0584   36.7057 C   0  0  0  0  0  0  0  0  0  0  0  0
   18.1120  -54.4923   35.7041 C   0  0  0  0  0  0  0  0  0  0  0  0
   19.2903  -53.8079   35.4992 C   0  0  0  0  0  0  0  0  0  0  0  0
   19.6372  -52.7040   36.2821 C   0  0  0  0  0  0  0  0  0  0  0  0
   18.7914  -52.2709   37.2904 C   0  0  0  0  0  0  0  0  0  0  0  0
   20.1158  -54.2683   34.4802 O   0  0  0  0  0  0  0  0  0  0  0  0
   20.4455  -53.5140   33.3372 C   0  0  0  0  0  0  0  0  0  0  0  0
 23 24  1  0  0  0
 24 25  2  0  0  0
 24 29  1  0  0  0
 25 26  1  0  0  0
 26 27  2  0  0  0
 26 21  1  0  0  0
 27 28  1  0  0  0
 27 30  1  0  0  0
 28 29  2  0  0  0
 30 31  1  0  0  0
 21 22  2  0  0  0
 22 19  1  0  0  0
 19  1  1  0  0  0
  1  2  2  0  0  0
  1  6  1  0  0  0
  2  3  1  0  0  0
  3  4  2  0  0  0
  3  7  1  0  0  0
  4  5  1  0  0  0
  5  6  2  0  0  0
  5 13  1  0  0  0
 13 14  1  0  0  0
 13 18  1  0  0  0
 14 15  1  0  0  0
 15 16  1  0  0  0
 16 17  1  0  0  0
 17 18  1  0  0  0
  7  8  1  0  0  0
  7 12  1  0  0  0
  8  9  1  0  0  0
  9 10  1  0  0  0
 10 11  1  0  0  0
 11 12  1  0  0  0
 19 20  1  0  0  0
M  END
> <minimizedAffinity>
-8.59847

$$$$
2164


 25 28  0  0  0  0  0  0  0  0999 V2000
   14.6347  -57.6692   38.3847 C   0  0  0  0  0  0  0  0  0  0  0  0
   15.6858  -58.4978   37.6930 C   0  0  0  0  0  0  0  0  0  0  0  0
   14.9883  -58.3606   36.4058 N   0  0  0  0  0  0  0  0  0  0  0  0
   13.8124  -57.9895   37.1710 C   0  0  0  0  0  0  0  0  0  0  0  0
   15.3812  -58.5378   35.0507 C   0  0  0  0  0  0  0  0  0  0  0  0
   15.0481  -59.6472   34.3413 N   0  0  0  0  0  0  0  0  0  0  0  0
   15.4373  -59.7928   33.0408 C   0  0  0  0  0  0  0  0  0  0  0  0
   16.1574  -58.8509   32.4238 N   0  0  0  0  0  0  0  0  0  0  0  0
   16.5197  -57.7360   33.0606 C   0  0  0  0  0  0  0  0  0  0  0  0
   17.2310  -56.6596   32.6699 N   0  0  0  0  0  0  0  0  0  0  0  0
   17.2856  -55.8542   33.7083 N   0  0  0  0  0  0  0  0  0  0  0  0
   16.6315  -56.3847   34.7478 N   0  0  0  0  0  0  0  0  0  0  0  0
   16.1254  -57.5909   34.3752 C   0  0  0  0  0  0  0  0  0  0  0  0
   17.8342  -56.4038   31.3644 C   0  0  0  0  0  0  0  0  0  0  0  0
   16.1605  -55.7397   37.8980 N   0  0  0  0  0  0  0  0  0  0  0  0
   14.9997  -56.2166   38.5263 C   0  0  0  0  0  0  0  0  0  0  0  0
   14.2169  -55.5420   39.2111 O   0  0  0  0  0  0  0  0  0  0  0  0
   16.7638  -56.4364   37.3246 H   0  0  0  0  0  0  0  0  0  0  0  0
   19.7473  -52.3185   36.0624 Br  0  0  0  0  0  0  0  0  0  0  0  0
   18.2456  -52.7710   37.1445 C   0  0  0  0  0  0  0  0  0  0  0  0
   17.7282  -54.0452   37.1591 C   0  0  0  0  0  0  0  0  0  0  0  0
   16.6245  -54.4108   37.9443 C   0  0  0  0  0  0  0  0  0  0  0  0
   16.0752  -53.4207   38.7097 C   0  0  0  0  0  0  0  0  0  0  0  0
   16.6083  -52.1296   38.6886 C   0  0  0  0  0  0  0  0  0  0  0  0
   17.6783  -51.8028   37.9185 C   0  0  0  0  0  0  0  0  0  0  0  0
 19 20  1  0  0  0
 20 21  2  0  0  0
 20 25  1  0  0  0
 21 22  1  0  0  0
 22 23  2  0  0  0
 22 15  1  0  0  0
 23 24  1  0  0  0
 24 25  2  0  0  0
 15 16  1  0  0  0
 16 17  2  0  0  0
 16  1  1  0  0  0
  1  2  1  0  0  0
  1  4  1  0  0  0
  2  3  1  0  0  0
  3  4  1  0  0  0
  3  5  1  0  0  0
  5  6  2  0  0  0
  5 13  1  0  0  0
  6  7  1  0  0  0
  7  8  2  0  0  0
  8  9  1  0  0  0
  9 10  1  0  0  0
  9 13  2  0  0  0
 10 11  1  0  0  0
 10 14  1  0  0  0
 11 12  2  0  0  0
 12 13  1  0  0  0
 15 18  1  0  0  0
M  END
> <minimizedAffinity>
-9.55984

$$$$
2170


 32 36  0  0  0  0  0  0  0  0999 V2000
   18.0976  -56.1895   33.6887 N   0  0  0  0  0  0  0  0  0  0  0  0
   18.1377  -55.2305   34.5891 N   0  0  0  0  0  0  0  0  0  0  0  0
   18.9167  -54.2120   34.1976 C   0  0  0  0  0  0  0  0  0  0  0  0
   18.9452  -53.2462   35.1294 N   0  0  0  0  0  0  0  0  0  0  0  0
   18.1715  -53.6202   36.1714 C   0  0  0  0  0  0  0  0  0  0  0  0
   17.6678  -54.8762   35.8153 C   0  0  0  0  0  0  0  0  0  0  0  0
   16.8435  -55.4628   36.7520 C   0  0  0  0  0  0  0  0  0  0  0  0
   16.3656  -56.6037   36.4750 O   0  0  0  0  0  0  0  0  0  0  0  0
   16.5231  -54.8866   37.9413 N   0  0  0  0  0  0  0  0  0  0  0  0
   17.0460  -53.6799   38.2063 C   0  0  0  0  0  0  0  0  0  0  0  0
   16.7335  -53.1568   39.3264 O   0  0  0  0  0  0  0  0  0  0  0  0
   17.8569  -53.0488   37.3458 N   0  0  0  0  0  0  0  0  0  0  0  0
   18.3855  -51.7569   37.6916 C   0  0  0  0  0  0  0  0  0  0  0  0
   15.6489  -55.5683   38.8683 C   0  0  0  0  0  0  0  0  0  0  0  0
   19.3858  -54.5744   32.9768 N   0  0  0  0  0  0  0  0  0  0  0  0
   18.8948  -55.7787   32.6551 C   0  0  0  0  0  0  0  0  0  0  0  0
   19.1240  -56.5391   31.4725 N   0  0  0  0  0  0  0  0  0  0  0  0
   20.0225  -57.6810   31.4586 C   0  0  0  0  0  0  0  0  0  0  0  0
   20.7762  -57.6555   30.1516 C   0  0  0  0  0  0  0  0  0  0  0  0
   19.8732  -57.6364   29.0766 O   0  0  0  0  0  0  0  0  0  0  0  0
   19.1946  -56.4400   29.0001 C   0  0  0  0  0  0  0  0  0  0  0  0
   18.4447  -56.1739   30.2575 C   0  0  0  0  0  0  0  0  0  0  0  0
   17.3957  -57.4519   33.6997 C   0  0  0  0  0  0  0  0  0  0  0  0
   16.0029  -57.3587   33.2278 C   0  0  0  0  0  0  0  0  0  0  0  0
   15.6215  -56.4862   32.4161 O   0  0  0  0  0  0  0  0  0  0  0  0
   11.9758  -61.3201   35.3478 Cl  0  0  0  0  0  0  0  0  0  0  0  0
   13.1557  -60.1773   34.7287 C   0  0  0  0  0  0  0  0  0  0  0  0
   14.4248  -60.5842   34.3394 C   0  0  0  0  0  0  0  0  0  0  0  0
   15.3384  -59.6695   33.8551 C   0  0  0  0  0  0  0  0  0  0  0  0
   15.0416  -58.3283   33.7369 C   0  0  0  0  0  0  0  0  0  0  0  0
   13.7583  -57.9329   34.1329 C   0  0  0  0  0  0  0  0  0  0  0  0
   12.8391  -58.8394   34.6171 C   0  0  0  0  0  0  0  0  0  0  0  0
 26 27  1  0  0  0
 27 28  2  0  0  0
 27 32  1  0  0  0
 28 29  1  0  0  0
 29 30  2  0  0  0
 30 31  1  0  0  0
 30 24  1  0  0  0
 31 32  2  0  0  0
 24 25  2  0  0  0
 24 23  1  0  0  0
 23  1  1  0  0  0
  1  2  1  0  0  0
  1 16  1  0  0  0
  2  3  1  0  0  0
  2  6  1  0  0  0
  3  4  2  0  0  0
  3 15  1  0  0  0
  4  5  1  0  0  0
  5  6  2  0  0  0
  5 12  1  0  0  0
  6  7  1  0  0  0
  7  8  2  0  0  0
  7  9  1  0  0  0
  9 10  1  0  0  0
  9 14  1  0  0  0
 10 11  2  0  0  0
 10 12  1  0  0  0
 12 13  1  0  0  0
 15 16  2  0  0  0
 16 17  1  0  0  0
 17 18  1  0  0  0
 17 22  1  0  0  0
 18 19  1  0  0  0
 19 20  1  0  0  0
 20 21  1  0  0  0
 21 22  1  0  0  0
M  END
> <minimizedAffinity>
-9.26912

$$$$
2177


 31 35  0  0  0  0  0  0  0  0999 V2000
   15.2192  -57.5504   36.7561 N   0  0  0  0  0  0  0  0  0  0  0  0
   14.0084  -57.6749   35.9798 C   0  0  0  0  0  0  0  0  0  0  0  0
   14.3880  -57.7393   34.5232 C   0  0  0  0  0  0  0  0  0  0  0  0
   15.5053  -58.6248   34.2607 N   0  0  0  0  0  0  0  0  0  0  0  0
   16.6962  -58.5069   35.0783 C   0  0  0  0  0  0  0  0  0  0  0  0
   16.2808  -58.5040   36.5263 C   0  0  0  0  0  0  0  0  0  0  0  0
   20.5677  -50.4817   36.2174 Cl  0  0  0  0  0  0  0  0  0  0  0  0
   19.5287  -51.9095   36.2671 C   0  0  0  0  0  0  0  0  0  0  0  0
   18.6659  -52.0854   37.3261 C   0  0  0  0  0  0  0  0  0  0  0  0
   17.8450  -53.1849   37.3949 C   0  0  0  0  0  0  0  0  0  0  0  0
   17.8558  -54.1481   36.4064 C   0  0  0  0  0  0  0  0  0  0  0  0
   18.7261  -53.9557   35.3544 C   0  0  0  0  0  0  0  0  0  0  0  0
   19.5545  -52.8600   35.2717 C   0  0  0  0  0  0  0  0  0  0  0  0
   16.9846  -55.2612   36.5331 N   0  0  0  0  0  0  0  0  0  0  0  0
   16.0878  -55.4572   37.6216 C   0  0  0  0  0  0  0  0  0  0  0  0
   15.2934  -56.4986   37.7087 C   0  0  0  0  0  0  0  0  0  0  0  0
   16.0689  -54.4708   38.6422 N   0  0  0  0  0  0  0  0  0  0  0  0
   16.9249  -53.3582   38.5368 C   0  0  0  0  0  0  0  0  0  0  0  0
   16.9628  -52.4350   39.4141 O   0  0  0  0  0  0  0  0  0  0  0  0
   16.9861  -55.9937   35.7918 H   0  0  0  0  0  0  0  0  0  0  0  0
   15.4384  -54.5430   39.4726 H   0  0  0  0  0  0  0  0  0  0  0  0
   15.4186  -59.5901   33.2106 C   0  0  0  0  0  0  0  0  0  0  0  0
   16.2127  -59.4488   32.1311 N   0  0  0  0  0  0  0  0  0  0  0  0
   16.1625  -60.3462   31.1069 C   0  0  0  0  0  0  0  0  0  0  0  0
   15.3142  -61.3969   31.1512 N   0  0  0  0  0  0  0  0  0  0  0  0
   14.5019  -61.5905   32.1955 C   0  0  0  0  0  0  0  0  0  0  0  0
   13.5827  -62.5273   32.4916 N   0  0  0  0  0  0  0  0  0  0  0  0
   13.0734  -62.2213   33.6715 N   0  0  0  0  0  0  0  0  0  0  0  0
   13.6549  -61.0862   34.1520 C   0  0  0  0  0  0  0  0  0  0  0  0
   14.5661  -60.6622   33.2361 C   0  0  0  0  0  0  0  0  0  0  0  0
   13.1954  -63.6843   31.6788 C   0  0  0  0  0  0  0  0  0  0  0  0
  7  8  1  0  0  0
  8  9  2  0  0  0
  8 13  1  0  0  0
  9 10  1  0  0  0
 10 11  2  0  0  0
 10 18  1  0  0  0
 11 12  1  0  0  0
 11 14  1  0  0  0
 12 13  2  0  0  0
 14 15  1  0  0  0
 15 16  2  0  0  0
 15 17  1  0  0  0
 16  1  1  0  0  0
  1  2  1  0  0  0
  1  6  1  0  0  0
  2  3  1  0  0  0
  3  4  1  0  0  0
  4  5  1  0  0  0
  4 22  1  0  0  0
  5  6  1  0  0  0
 22 23  2  0  0  0
 22 30  1  0  0  0
 23 24  1  0  0  0
 24 25  2  0  0  0
 25 26  1  0  0  0
 26 27  1  0  0  0
 26 30  2  0  0  0
 27 28  1  0  0  0
 27 31  1  0  0  0
 28 29  2  0  0  0
 29 30  1  0  0  0
 17 18  1  0  0  0
 18 19  2  0  0  0
 14 20  1  0  0  0
 17 21  1  0  0  0
M  END
> <minimizedAffinity>
-9.68706

$$$$
2184


 29 32  0  0  0  0  0  0  0  0999 V2000
   18.5130  -55.2423   33.9011 N   0  0  0  0  0  0  0  0  0  0  0  0
   17.1601  -55.1058   33.6544 C   0  0  0  0  0  0  0  0  0  0  0  0
   16.6158  -56.3500   32.8711 C   0  0  0  0  0  0  0  0  0  0  0  0
   16.6943  -57.3731   34.0205 N   0  0  0  0  0  0  0  0  0  0  0  0
   18.0007  -57.6676   34.3556 C   0  0  0  0  0  0  0  0  0  0  0  0
   18.8854  -56.6544   33.5956 C   0  0  0  0  0  0  0  0  0  0  0  0
   19.0329  -54.7215   33.1228 H   0  0  0  0  0  0  0  0  0  0  0  0
   15.4204  -57.7237   34.5180 C   0  0  0  0  0  0  0  0  0  0  0  0
   14.2564  -57.7118   33.8322 C   0  0  0  0  0  0  0  0  0  0  0  0
   13.0751  -58.3179   34.3480 C   0  0  0  0  0  0  0  0  0  0  0  0
   13.0634  -58.9427   35.5663 C   0  0  0  0  0  0  0  0  0  0  0  0
   14.2550  -58.9530   36.2844 C   0  0  0  0  0  0  0  0  0  0  0  0
   15.3989  -58.3565   35.7755 C   0  0  0  0  0  0  0  0  0  0  0  0
   11.8857  -59.5174   36.0277 O   0  0  0  0  0  0  0  0  0  0  0  0
   11.6273  -59.6426   37.4346 C   0  0  0  0  0  0  0  0  0  0  0  0
   19.1632  -54.8964   35.0885 C   0  0  0  0  0  0  0  0  0  0  0  0
   15.3323  -55.8681   38.4113 Cl  0  0  0  0  0  0  0  0  0  0  0  0
   16.4151  -54.5249   38.0295 C   0  0  0  0  0  0  0  0  0  0  0  0
   17.3505  -54.5634   37.0302 C   0  0  0  0  0  0  0  0  0  0  0  0
   18.1177  -53.4869   36.7511 C   0  0  0  0  0  0  0  0  0  0  0  0
   17.9851  -52.3226   37.4558 C   0  0  0  0  0  0  0  0  0  0  0  0
   17.0212  -52.2800   38.4916 C   0  0  0  0  0  0  0  0  0  0  0  0
   16.2419  -53.3625   38.7884 C   0  0  0  0  0  0  0  0  0  0  0  0
   15.3055  -53.2947   39.8445 O   0  0  0  0  0  0  0  0  0  0  0  0
   18.6887  -51.2570   37.1984 O   0  0  0  0  0  0  0  0  0  0  0  0
   19.5806  -51.2696   36.2143 C   0  0  0  0  0  0  0  0  0  0  0  0
   20.2373  -50.2457   35.9873 O   0  0  0  0  0  0  0  0  0  0  0  0
   19.7775  -52.4296   35.4381 C   0  0  0  0  0  0  0  0  0  0  0  0
   19.0661  -53.5526   35.6815 C   0  0  0  0  0  0  0  0  0  0  0  0
 17 18  1  0  0  0
 18 19  2  0  0  0
 18 23  1  0  0  0
 19 20  1  0  0  0
 20 21  2  0  0  0
 20 29  1  0  0  0
 21 22  1  0  0  0
 21 25  1  0  0  0
 22 23  2  0  0  0
 23 24  1  0  0  0
 25 26  1  0  0  0
 26 27  2  0  0  0
 26 28  1  0  0  0
 28 29  2  0  0  0
 29 16  1  0  0  0
 16  1  1  0  0  0
  1  2  1  0  0  0
  1  6  1  0  0  0
  2  3  1  0  0  0
  3  4  1  0  0  0
  4  5  1  0  0  0
  4  8  1  0  0  0
  5  6  1  0  0  0
  8  9  2  0  0  0
  8 13  1  0  0  0
  9 10  1  0  0  0
 10 11  2  0  0  0
 11 12  1  0  0  0
 11 14  1  0  0  0
 12 13  2  0  0  0
 14 15  1  0  0  0
  1  7  1  0  0  0
M  CHG 1   1   1
M  CHG 1  24  -1
M  END
> <minimizedAffinity>
-10.42984

$$$$
2195


 29 32  0  0  0  0  0  0  0  0999 V2000
   18.7691  -56.3147   34.0282 C   0  0  0  0  0  0  0  0  0  0  0  0
   19.0089  -55.6078   35.1307 N   0  0  0  0  0  0  0  0  0  0  0  0
   19.5102  -54.3615   35.0799 C   0  0  0  0  0  0  0  0  0  0  0  0
   19.8417  -53.4407   36.0264 N   0  0  0  0  0  0  0  0  0  0  0  0
   20.2900  -52.3864   35.3784 N   0  0  0  0  0  0  0  0  0  0  0  0
   20.2654  -52.5756   34.0727 N   0  0  0  0  0  0  0  0  0  0  0  0
   19.7837  -53.8015   33.8393 C   0  0  0  0  0  0  0  0  0  0  0  0
   19.5391  -54.5250   32.6847 C   0  0  0  0  0  0  0  0  0  0  0  0
   19.0397  -55.7580   32.8436 N   0  0  0  0  0  0  0  0  0  0  0  0
   19.8059  -53.9828   31.4353 O   0  0  0  0  0  0  0  0  0  0  0  0
   19.3293  -53.1463   31.1345 H   0  0  0  0  0  0  0  0  0  0  0  0
   16.0145  -58.1514   35.1265 N   0  0  0  0  0  0  0  0  0  0  0  0
   17.3983  -58.0220   35.2204 C   0  0  0  0  0  0  0  0  0  0  0  0
   18.2081  -57.6934   34.0456 C   0  0  0  0  0  0  0  0  0  0  0  0
   17.4339  -57.9110   32.7713 C   0  0  0  0  0  0  0  0  0  0  0  0
   16.1433  -57.1796   32.8697 C   0  0  0  0  0  0  0  0  0  0  0  0
   15.3235  -57.7439   33.9938 C   0  0  0  0  0  0  0  0  0  0  0  0
   15.1969  -58.1034   36.6101 S   0  0  0  0  0  0  0  0  0  0  0  0
   14.8117  -56.7272   37.0264 O   0  0  0  0  0  0  0  0  0  0  0  0
   16.0841  -58.7471   37.6562 O   0  0  0  0  0  0  0  0  0  0  0  0
   13.7124  -59.1185   36.5602 C   0  0  0  0  0  0  0  0  0  0  0  0
   19.7222  -53.5994   37.4422 C   0  0  0  0  0  0  0  0  0  0  0  0
   18.3214  -53.5692   37.9277 C   0  0  0  0  0  0  0  0  0  0  0  0
   17.6599  -52.3672   37.9434 C   0  0  0  0  0  0  0  0  0  0  0  0
   16.3435  -52.2499   38.3839 C   0  0  0  0  0  0  0  0  0  0  0  0
   15.6634  -53.3653   38.8233 C   0  0  0  0  0  0  0  0  0  0  0  0
   16.3207  -54.5754   38.8098 C   0  0  0  0  0  0  0  0  0  0  0  0
   17.6375  -54.6807   38.3671 C   0  0  0  0  0  0  0  0  0  0  0  0
   18.4658  -50.9108   37.3989 Cl  0  0  0  0  0  0  0  0  0  0  0  0
 18 19  2  0  0  0
 18 20  2  0  0  0
 18 12  1  0  0  0
 18 21  1  0  0  0
 12 13  1  0  0  0
 12 17  1  0  0  0
 13 14  1  0  0  0
 14 15  1  0  0  0
 14  1  1  0  0  0
 15 16  1  0  0  0
 16 17  1  0  0  0
  1  2  2  0  0  0
  1  9  1  0  0  0
  2  3  1  0  0  0
  3  4  1  0  0  0
  3  7  2  0  0  0
  4  5  1  0  0  0
  4 22  1  0  0  0
  5  6  2  0  0  0
  6  7  1  0  0  0
  7  8  1  0  0  0
  8  9  2  0  0  0
  8 10  1  0  0  0
 22 23  1  0  0  0
 23 24  2  0  0  0
 23 28  1  0  0  0
 24 25  1  0  0  0
 24 29  1  0  0  0
 25 26  2  0  0  0
 26 27  1  0  0  0
 27 28  2  0  0  0
 10 11  1  0  0  0
M  END
> <minimizedAffinity>
-10.79352

$$$$
2197


 28 31  0  0  0  0  0  0  0  0999 V2000
   18.1810  -57.7221   33.4241 N   0  0  0  0  0  0  0  0  0  0  0  0
   18.7877  -56.5578   34.1017 C   0  0  0  0  0  0  0  0  0  0  0  0
   18.4472  -55.3565   33.3002 C   0  0  0  0  0  0  0  0  0  0  0  0
   18.6242  -55.3930   31.9669 O   0  0  0  0  0  0  0  0  0  0  0  0
   18.7720  -56.5668   31.3350 C   0  0  0  0  0  0  0  0  0  0  0  0
   18.8452  -57.7947   32.1750 C   0  0  0  0  0  0  0  0  0  0  0  0
   19.2313  -54.2188   33.8642 C   0  0  0  0  0  0  0  0  0  0  0  0
   19.8991  -53.5235   33.0529 O   0  0  0  0  0  0  0  0  0  0  0  0
   19.2766  -53.8708   35.2270 N   0  0  0  0  0  0  0  0  0  0  0  0
   18.5627  -54.5766   36.2743 C   0  0  0  0  0  0  0  0  0  0  0  0
   18.9783  -53.9596   37.5949 C   0  0  0  0  0  0  0  0  0  0  0  0
   18.6385  -52.5520   37.6865 N   0  0  0  0  0  0  0  0  0  0  0  0
   19.0857  -51.8771   36.5099 C   0  0  0  0  0  0  0  0  0  0  0  0
   20.0737  -52.7309   35.7048 C   0  0  0  0  0  0  0  0  0  0  0  0
   17.2415  -52.4446   37.9581 C   0  0  0  0  0  0  0  0  0  0  0  0
   16.7535  -53.3884   39.0228 C   0  0  0  0  0  0  0  0  0  0  0  0
   15.5967  -54.2718   38.5578 C   0  0  0  0  0  0  0  0  0  0  0  0
   15.4362  -53.2598   39.6490 C   0  0  0  0  0  0  0  0  0  0  0  0
   16.4993  -57.6547   33.4641 S   0  0  0  0  0  0  0  0  0  0  0  0
   16.0914  -56.2135   33.1300 O   0  0  0  0  0  0  0  0  0  0  0  0
   15.8370  -58.4800   32.3877 O   0  0  0  0  0  0  0  0  0  0  0  0
   15.8202  -57.9796   35.0269 C   0  0  0  0  0  0  0  0  0  0  0  0
   14.4668  -57.8853   35.2660 C   0  0  0  0  0  0  0  0  0  0  0  0
   13.9239  -58.0854   36.5208 C   0  0  0  0  0  0  0  0  0  0  0  0
   14.7488  -58.3922   37.5738 C   0  0  0  0  0  0  0  0  0  0  0  0
   16.1143  -58.4939   37.3516 C   0  0  0  0  0  0  0  0  0  0  0  0
   16.6454  -58.2931   36.1087 C   0  0  0  0  0  0  0  0  0  0  0  0
   13.3328  -57.5813   33.9361 Cl  0  0  0  0  0  0  0  0  0  0  0  0
 19 20  2  0  0  0
 19 21  2  0  0  0
 19  1  1  0  0  0
 19 22  1  0  0  0
  1  2  1  0  0  0
  1  6  1  0  0  0
  2  3  1  0  0  0
  3  4  1  0  0  0
  3  7  1  0  0  0
  4  5  1  0  0  0
  5  6  1  0  0  0
  7  8  2  0  0  0
  7  9  1  0  0  0
  9 10  1  0  0  0
  9 14  1  0  0  0
 10 11  1  0  0  0
 11 12  1  0  0  0
 12 13  1  0  0  0
 12 15  1  0  0  0
 13 14  1  0  0  0
 15 16  1  0  0  0
 16 17  1  0  0  0
 16 18  1  0  0  0
 17 18  1  0  0  0
 22 23  2  0  0  0
 22 27  1  0  0  0
 23 24  1  0  0  0
 23 28  1  0  0  0
 24 25  2  0  0  0
 25 26  1  0  0  0
 26 27  2  0  0  0
M  END
> <minimizedAffinity>
-8.97028

$$$$
2210


 33 36  0  0  0  0  0  0  0  0999 V2000
   19.3693  -53.1504   35.9914 C   0  0  0  0  0  0  0  0  0  0  0  0
   19.1873  -53.8530   34.8657 C   0  0  0  0  0  0  0  0  0  0  0  0
   18.0636  -54.6291   34.6061 O   0  0  0  0  0  0  0  0  0  0  0  0
   18.1934  -55.1951   33.3303 C   0  0  0  0  0  0  0  0  0  0  0  0
   19.3568  -54.8394   32.7201 C   0  0  0  0  0  0  0  0  0  0  0  0
   19.6740  -55.2660   31.4517 C   0  0  0  0  0  0  0  0  0  0  0  0
   18.7909  -56.0856   30.7569 C   0  0  0  0  0  0  0  0  0  0  0  0
   17.6005  -56.4484   31.3893 C   0  0  0  0  0  0  0  0  0  0  0  0
   17.2935  -56.0271   32.6427 C   0  0  0  0  0  0  0  0  0  0  0  0
   16.7712  -57.2712   30.6277 O   0  0  0  0  0  0  0  0  0  0  0  0
   20.0468  -53.9555   33.7053 C   0  0  0  0  0  0  0  0  0  0  0  0
   21.1508  -53.4135   33.5632 O   0  0  0  0  0  0  0  0  0  0  0  0
   15.7128  -56.1523   38.3873 Br  0  0  0  0  0  0  0  0  0  0  0  0
   16.5680  -54.4836   38.0509 C   0  0  0  0  0  0  0  0  0  0  0  0
   17.6773  -54.4315   37.1896 C   0  0  0  0  0  0  0  0  0  0  0  0
   18.2685  -53.2395   36.9663 C   0  0  0  0  0  0  0  0  0  0  0  0
   17.8115  -52.0811   37.5542 C   0  0  0  0  0  0  0  0  0  0  0  0
   16.7008  -52.1557   38.4073 C   0  0  0  0  0  0  0  0  0  0  0  0
   16.0739  -53.3589   38.6633 C   0  0  0  0  0  0  0  0  0  0  0  0
   18.4419  -50.8730   37.2946 O   0  0  0  0  0  0  0  0  0  0  0  0
   19.5626  -50.6817   36.5036 C   0  0  0  0  0  0  0  0  0  0  0  0
   16.1522  -56.5217   33.4421 C   0  0  0  0  0  0  0  0  0  0  0  0
   16.3079  -57.8215   33.8998 N   0  0  0  0  0  0  0  0  0  0  0  0
   16.6455  -57.8703   35.3573 C   0  0  0  0  0  0  0  0  0  0  0  0
   15.6615  -58.9185   35.9343 C   0  0  0  0  0  0  0  0  0  0  0  0
   15.0970  -59.6759   34.8625 N   0  0  0  0  0  0  0  0  0  0  0  0
   16.0154  -60.1653   33.9108 C   0  0  0  0  0  0  0  0  0  0  0  0
   16.8436  -58.9516   33.3007 C   0  0  0  0  0  0  0  0  0  0  0  0
   15.1947  -58.0735   34.0135 H   0  0  0  0  0  0  0  0  0  0  0  0
   13.7336  -59.8631   34.8153 C   0  0  0  0  0  0  0  0  0  0  0  0
   12.8179  -58.7123   34.5443 C   0  0  0  0  0  0  0  0  0  0  0  0
   13.1648  -58.0634   33.3481 O   0  0  0  0  0  0  0  0  0  0  0  0
   12.3161  -57.8461   32.8395 H   0  0  0  0  0  0  0  0  0  0  0  0
 13 14  1  0  0  0
 14 15  2  0  0  0
 14 19  1  0  0  0
 15 16  1  0  0  0
 16 17  2  0  0  0
 16  1  1  0  0  0
 17 18  1  0  0  0
 17 20  1  0  0  0
 18 19  2  0  0  0
 20 21  1  0  0  0
  1  2  2  0  0  0
  2  3  1  0  0  0
  2 11  1  0  0  0
  3  4  1  0  0  0
  4  5  2  0  0  0
  4  9  1  0  0  0
  5  6  1  0  0  0
  5 11  1  0  0  0
  6  7  2  0  0  0
  7  8  1  0  0  0
  8  9  2  0  0  0
  8 10  1  0  0  0
  9 22  1  0  0  0
 22 23  1  0  0  0
 23 24  1  0  0  0
 23 28  1  0  0  0
 24 25  1  0  0  0
 25 26  1  0  0  0
 26 27  1  0  0  0
 26 30  1  0  0  0
 27 28  1  0  0  0
 30 31  1  0  0  0
 31 32  1  0  0  0
 11 12  2  0  0  0
 23 29  1  0  0  0
 32 33  1  0  0  0
M  CHG 1  10  -1
M  CHG 1  23   1
M  END
> <minimizedAffinity>
-10.71850

$$$$
2213


 31 34  0  0  0  0  0  0  0  0999 V2000
   18.5904  -54.8135   37.4708 Cl  0  0  0  0  0  0  0  0  0  0  0  0
   18.3993  -55.1358   35.7615 C   0  0  0  0  0  0  0  0  0  0  0  0
   17.3090  -55.9189   35.3540 C   0  0  0  0  0  0  0  0  0  0  0  0
   17.1327  -56.1896   34.0224 C   0  0  0  0  0  0  0  0  0  0  0  0
   18.0707  -55.6556   33.1319 C   0  0  0  0  0  0  0  0  0  0  0  0
   19.1374  -54.8884   33.5437 C   0  0  0  0  0  0  0  0  0  0  0  0
   19.3196  -54.6127   34.8865 C   0  0  0  0  0  0  0  0  0  0  0  0
   20.3038  -54.2283   32.4041 Cl  0  0  0  0  0  0  0  0  0  0  0  0
   16.0197  -57.0006   33.5060 C   0  0  0  0  0  0  0  0  0  0  0  0
   15.1496  -57.4635   34.6002 C   0  0  0  0  0  0  0  0  0  0  0  0
   15.3427  -57.1837   35.9164 C   0  0  0  0  0  0  0  0  0  0  0  0
   14.5045  -57.6388   36.8928 N   0  0  0  0  0  0  0  0  0  0  0  0
   13.4675  -58.3826   36.5158 C   0  0  0  0  0  0  0  0  0  0  0  0
   12.6593  -58.8296   37.3898 O   0  0  0  0  0  0  0  0  0  0  0  0
   13.2380  -58.6845   35.2219 N   0  0  0  0  0  0  0  0  0  0  0  0
   14.0522  -58.2432   34.2568 C   0  0  0  0  0  0  0  0  0  0  0  0
   13.8388  -58.5241   33.0497 O   0  0  0  0  0  0  0  0  0  0  0  0
   12.0839  -59.5014   34.8735 C   0  0  0  0  0  0  0  0  0  0  0  0
   14.7398  -57.3229   38.2852 C   0  0  0  0  0  0  0  0  0  0  0  0
   16.4152  -56.4172   36.2833 O   0  0  0  0  0  0  0  0  0  0  0  0
   16.5178  -58.1476   32.6762 C   0  0  0  0  0  0  0  0  0  0  0  0
   16.7570  -58.0210   31.3295 C   0  0  0  0  0  0  0  0  0  0  0  0
   17.1922  -59.0306   30.5597 N   0  0  0  0  0  0  0  0  0  0  0  0
   17.4026  -60.2269   31.1417 C   0  0  0  0  0  0  0  0  0  0  0  0
   17.8119  -61.1725   30.4063 O   0  0  0  0  0  0  0  0  0  0  0  0
   17.1808  -60.3961   32.4571 N   0  0  0  0  0  0  0  0  0  0  0  0
   16.7476  -59.4003   33.2428 C   0  0  0  0  0  0  0  0  0  0  0  0
   16.5326  -59.5278   34.4719 O   0  0  0  0  0  0  0  0  0  0  0  0
   17.4199  -61.6989   33.0340 C   0  0  0  0  0  0  0  0  0  0  0  0
   17.4397  -58.8640   29.1401 C   0  0  0  0  0  0  0  0  0  0  0  0
   16.5405  -56.7949   30.7344 O   0  0  0  0  0  0  0  0  0  0  0  0
  1  2  1  0  0  0
  2  3  2  0  0  0
  2  7  1  0  0  0
  3  4  1  0  0  0
  3 20  1  0  0  0
  4  5  2  0  0  0
  4  9  1  0  0  0
  5  6  1  0  0  0
  6  7  2  0  0  0
  6  8  1  0  0  0
  9 10  1  0  0  0
  9 21  1  0  0  0
 10 11  2  0  0  0
 10 16  1  0  0  0
 11 12  1  0  0  0
 11 20  1  0  0  0
 12 13  1  0  0  0
 12 19  1  0  0  0
 13 14  2  0  0  0
 13 15  1  0  0  0
 15 16  1  0  0  0
 15 18  1  0  0  0
 16 17  2  0  0  0
 21 22  2  0  0  0
 21 27  1  0  0  0
 22 23  1  0  0  0
 22 31  1  0  0  0
 23 24  1  0  0  0
 23 30  1  0  0  0
 24 25  2  0  0  0
 24 26  1  0  0  0
 26 27  1  0  0  0
 26 29  1  0  0  0
 27 28  2  0  0  0
M  CHG 1  31  -1
M  END
> <minimizedAffinity>
-8.79990

$$$$
2214


 34 38  0  0  0  0  0  0  0  0999 V2000
   16.2171  -52.2031   38.7731 Cl  0  0  0  0  0  0  0  0  0  0  0  0
   17.2592  -53.1316   37.7162 C   0  0  0  0  0  0  0  0  0  0  0  0
   16.7919  -54.1687   36.9557 C   0  0  0  0  0  0  0  0  0  0  0  0
   17.6591  -54.8838   36.1256 C   0  0  0  0  0  0  0  0  0  0  0  0
   18.9711  -54.5148   36.1014 C   0  0  0  0  0  0  0  0  0  0  0  0
   19.4535  -53.4507   36.8811 C   0  0  0  0  0  0  0  0  0  0  0  0
   18.6058  -52.7519   37.6930 C   0  0  0  0  0  0  0  0  0  0  0  0
   19.6685  -55.3688   35.2000 N   0  0  0  0  0  0  0  0  0  0  0  0
   18.7707  -56.2983   34.6430 C   0  0  0  0  0  0  0  0  0  0  0  0
   19.1032  -57.1937   33.8036 O   0  0  0  0  0  0  0  0  0  0  0  0
   17.4483  -56.0197   35.2125 C   0  0  0  0  0  0  0  0  0  0  0  0
   16.9507  -57.1133   36.0174 N   0  0  0  0  0  0  0  0  0  0  0  0
   15.7741  -57.6629   35.4224 C   0  0  0  0  0  0  0  0  0  0  0  0
   15.6700  -57.0308   34.0913 C   0  0  0  0  0  0  0  0  0  0  0  0
   16.4097  -55.7234   34.1571 C   0  0  0  0  0  0  0  0  0  0  0  0
   16.9888  -55.6117   32.8004 C   0  0  0  0  0  0  0  0  0  0  0  0
   17.4160  -54.5848   32.2157 O   0  0  0  0  0  0  0  0  0  0  0  0
   17.0127  -56.9110   32.1717 N   0  0  0  0  0  0  0  0  0  0  0  0
   16.4958  -57.8340   33.1229 C   0  0  0  0  0  0  0  0  0  0  0  0
   16.7105  -59.0687   33.1164 O   0  0  0  0  0  0  0  0  0  0  0  0
   20.7063  -55.3288   34.9670 H   0  0  0  0  0  0  0  0  0  0  0  0
   16.7107  -56.8265   36.9921 H   0  0  0  0  0  0  0  0  0  0  0  0
   17.4808  -57.1956   30.8316 C   0  0  0  0  0  0  0  0  0  0  0  0
   18.9522  -57.5034   30.7711 C   0  0  0  0  0  0  0  0  0  0  0  0
   19.1838  -58.4864   29.8126 O   0  0  0  0  0  0  0  0  0  0  0  0
   19.4456  -57.8432   28.6244 C   0  0  0  0  0  0  0  0  0  0  0  0
   20.0447  -56.4912   28.9442 C   0  0  0  0  0  0  0  0  0  0  0  0
   19.8158  -56.3391   30.4352 C   0  0  0  0  0  0  0  0  0  0  0  0
   14.5524  -57.5033   36.2874 C   0  0  0  0  0  0  0  0  0  0  0  0
   14.6877  -58.0150   37.6383 C   0  0  0  0  0  0  0  0  0  0  0  0
   15.3145  -57.3606   38.4981 O   0  0  0  0  0  0  0  0  0  0  0  0
   14.1190  -59.2539   38.0078 N   0  0  0  0  0  0  0  0  0  0  0  0
   13.4957  -59.3018   38.8474 H   0  0  0  0  0  0  0  0  0  0  0  0
   14.2756  -60.1440   37.4990 H   0  0  0  0  0  0  0  0  0  0  0  0
  1  2  1  0  0  0
  2  3  2  0  0  0
  2  7  1  0  0  0
  3  4  1  0  0  0
  4  5  2  0  0  0
  4 11  1  0  0  0
  5  6  1  0  0  0
  5  8  1  0  0  0
  6  7  2  0  0  0
  8  9  1  0  0  0
  9 10  2  0  0  0
  9 11  1  0  0  0
 11 12  1  0  0  0
 11 15  1  0  0  0
 12 13  1  0  0  0
 13 14  1  0  0  0
 13 29  1  0  0  0
 14 15  1  0  0  0
 14 19  1  0  0  0
 15 16  1  0  0  0
 16 17  2  0  0  0
 16 18  1  0  0  0
 18 19  1  0  0  0
 18 23  1  0  0  0
 19 20  2  0  0  0
 23 24  1  0  0  0
 24 25  1  0  0  0
 24 28  1  0  0  0
 25 26  1  0  0  0
 26 27  1  0  0  0
 27 28  1  0  0  0
 29 30  1  0  0  0
 30 31  2  0  0  0
 30 32  1  0  0  0
  8 21  1  0  0  0
 12 22  1  0  0  0
 32 33  1  0  0  0
 32 34  1  0  0  0
M  END
> <minimizedAffinity>
-9.14978

$$$$
2225


 29 32  0  0  0  0  0  0  0  0999 V2000
   19.6302  -53.7744   36.0170 C   0  0  0  0  0  0  0  0  0  0  0  0
   20.4349  -54.7925   36.1480 O   0  0  0  0  0  0  0  0  0  0  0  0
   19.0611  -53.3004   37.1882 N   0  0  0  0  0  0  0  0  0  0  0  0
   19.4091  -54.0034   38.4610 C   0  0  0  0  0  0  0  0  0  0  0  0
   18.1254  -54.0906   39.2472 C   0  0  0  0  0  0  0  0  0  0  0  0
   16.9400  -53.9483   38.4215 N   0  0  0  0  0  0  0  0  0  0  0  0
   16.7722  -52.7037   37.7203 C   0  0  0  0  0  0  0  0  0  0  0  0
   18.1642  -52.1923   37.3862 C   0  0  0  0  0  0  0  0  0  0  0  0
   16.0107  -55.0057   38.3270 C   0  0  0  0  0  0  0  0  0  0  0  0
   15.9210  -55.7693   37.2026 N   0  0  0  0  0  0  0  0  0  0  0  0
   15.0672  -56.7745   37.0677 C   0  0  0  0  0  0  0  0  0  0  0  0
   14.2466  -57.0410   38.1166 N   0  0  0  0  0  0  0  0  0  0  0  0
   14.2741  -56.3457   39.2391 C   0  0  0  0  0  0  0  0  0  0  0  0
   15.1723  -55.2918   39.3741 C   0  0  0  0  0  0  0  0  0  0  0  0
   14.9614  -57.5773   35.9054 N   0  0  0  0  0  0  0  0  0  0  0  0
   15.9141  -57.4055   34.8140 C   0  0  0  0  0  0  0  0  0  0  0  0
   15.0555  -57.1967   33.5629 C   0  0  0  0  0  0  0  0  0  0  0  0
   14.2609  -58.2915   33.3500 O   0  0  0  0  0  0  0  0  0  0  0  0
   13.3387  -58.5395   34.3384 C   0  0  0  0  0  0  0  0  0  0  0  0
   13.9423  -58.5815   35.7243 C   0  0  0  0  0  0  0  0  0  0  0  0
   19.4766  -53.3112   34.6243 C   0  0  0  0  0  0  0  0  0  0  0  0
   19.3748  -54.0884   33.6066 O   0  0  0  0  0  0  0  0  0  0  0  0
   18.9612  -57.4639   28.8115 Cl  0  0  0  0  0  0  0  0  0  0  0  0
   19.0681  -56.4670   30.2406 C   0  0  0  0  0  0  0  0  0  0  0  0
   18.0565  -56.4261   31.1721 C   0  0  0  0  0  0  0  0  0  0  0  0
   18.1276  -55.6541   32.2918 C   0  0  0  0  0  0  0  0  0  0  0  0
   19.2507  -54.8427   32.5630 C   0  0  0  0  0  0  0  0  0  0  0  0
   20.2769  -54.8979   31.5963 C   0  0  0  0  0  0  0  0  0  0  0  0
   20.1722  -55.6833   30.4872 C   0  0  0  0  0  0  0  0  0  0  0  0
 23 24  1  0  0  0
 24 25  2  0  0  0
 24 29  1  0  0  0
 25 26  1  0  0  0
 26 27  2  0  0  0
 27 28  1  0  0  0
 27 22  1  0  0  0
 28 29  2  0  0  0
 22 21  1  0  0  0
 21  1  1  0  0  0
  1  2  2  0  0  0
  1  3  1  0  0  0
  3  4  1  0  0  0
  3  8  1  0  0  0
  4  5  1  0  0  0
  5  6  1  0  0  0
  6  7  1  0  0  0
  6  9  1  0  0  0
  7  8  1  0  0  0
  9 10  2  0  0  0
  9 14  1  0  0  0
 10 11  1  0  0  0
 11 12  2  0  0  0
 11 15  1  0  0  0
 12 13  1  0  0  0
 13 14  2  0  0  0
 15 16  1  0  0  0
 15 20  1  0  0  0
 16 17  1  0  0  0
 17 18  1  0  0  0
 18 19  1  0  0  0
 19 20  1  0  0  0
M  END
> <minimizedAffinity>
-8.71448

$$$$
2231


 27 31  0  0  0  0  0  0  0  0999 V2000
   17.3019  -55.1392   35.5848 N   0  0  0  0  0  0  0  0  0  0  0  0
   16.7260  -55.9056   36.4941 N   0  0  0  0  0  0  0  0  0  0  0  0
   16.0575  -56.8999   35.9428 N   0  0  0  0  0  0  0  0  0  0  0  0
   16.1734  -56.8217   34.6061 C   0  0  0  0  0  0  0  0  0  0  0  0
   16.9603  -55.7064   34.4001 C   0  0  0  0  0  0  0  0  0  0  0  0
   17.2524  -55.3704   33.1235 N   0  0  0  0  0  0  0  0  0  0  0  0
   16.7733  -56.1236   32.1162 C   0  0  0  0  0  0  0  0  0  0  0  0
   16.0001  -57.2177   32.3249 N   0  0  0  0  0  0  0  0  0  0  0  0
   15.6794  -57.5964   33.5758 C   0  0  0  0  0  0  0  0  0  0  0  0
   14.8674  -58.7460   33.8145 N   0  0  0  0  0  0  0  0  0  0  0  0
   15.5365  -60.0321   33.7653 C   0  0  0  0  0  0  0  0  0  0  0  0
   14.7767  -61.0728   34.5846 C   0  0  0  0  0  0  0  0  0  0  0  0
   13.3739  -60.8829   34.4921 N   0  0  0  0  0  0  0  0  0  0  0  0
   12.9251  -59.5708   35.0518 C   0  0  0  0  0  0  0  0  0  0  0  0
   13.4775  -58.5445   34.0805 C   0  0  0  0  0  0  0  0  0  0  0  0
   12.4536  -61.7632   33.9492 C   0  0  0  0  0  0  0  0  0  0  0  0
   11.2038  -61.3338   33.9937 O   0  0  0  0  0  0  0  0  0  0  0  0
   12.5814  -63.0749   33.3327 C   0  0  0  0  0  0  0  0  0  0  0  0
   11.5363  -63.5201   32.3819 C   0  0  0  0  0  0  0  0  0  0  0  0
   12.9813  -63.3803   31.9631 C   0  0  0  0  0  0  0  0  0  0  0  0
   20.7544  -50.3599   36.3413 Cl  0  0  0  0  0  0  0  0  0  0  0  0
   19.7408  -51.7537   36.1268 C   0  0  0  0  0  0  0  0  0  0  0  0
   18.6831  -51.9660   36.9746 C   0  0  0  0  0  0  0  0  0  0  0  0
   17.8773  -53.0703   36.8090 C   0  0  0  0  0  0  0  0  0  0  0  0
   18.0978  -53.9846   35.8053 C   0  0  0  0  0  0  0  0  0  0  0  0
   19.1665  -53.7453   34.9706 C   0  0  0  0  0  0  0  0  0  0  0  0
   19.9869  -52.6429   35.1213 C   0  0  0  0  0  0  0  0  0  0  0  0
 21 22  1  0  0  0
 22 23  2  0  0  0
 22 27  1  0  0  0
 23 24  1  0  0  0
 24 25  2  0  0  0
 25 26  1  0  0  0
 25  1  1  0  0  0
 26 27  2  0  0  0
  1  2  1  0  0  0
  1  5  1  0  0  0
  2  3  2  0  0  0
  3  4  1  0  0  0
  4  5  2  0  0  0
  4  9  1  0  0  0
  5  6  1  0  0  0
  6  7  2  0  0  0
  7  8  1  0  0  0
  8  9  2  0  0  0
  9 10  1  0  0  0
 10 11  1  0  0  0
 10 15  1  0  0  0
 11 12  1  0  0  0
 12 13  1  0  0  0
 13 14  1  0  0  0
 13 16  1  0  0  0
 14 15  1  0  0  0
 16 17  2  0  0  0
 16 18  1  0  0  0
 18 19  1  0  0  0
 18 20  1  0  0  0
 19 20  1  0  0  0
M  END
> <minimizedAffinity>
-8.72285

$$$$
2242


 32 35  0  0  0  0  0  0  0  0999 V2000
   15.6134  -57.7727   35.2817 N   0  0  0  0  0  0  0  0  0  0  0  0
   15.7320  -57.8220   36.6727 C   0  0  0  0  0  0  0  0  0  0  0  0
   15.8017  -58.8835   37.3086 O   0  0  0  0  0  0  0  0  0  0  0  0
   15.5576  -56.8095   34.8219 H   0  0  0  0  0  0  0  0  0  0  0  0
   18.2514  -58.4996   34.2358 Cl  0  0  0  0  0  0  0  0  0  0  0  0
   16.7588  -59.3413   33.8791 C   0  0  0  0  0  0  0  0  0  0  0  0
   16.8056  -60.4281   33.0523 C   0  0  0  0  0  0  0  0  0  0  0  0
   15.6817  -61.1348   32.7283 C   0  0  0  0  0  0  0  0  0  0  0  0
   14.4871  -60.7246   33.2578 C   0  0  0  0  0  0  0  0  0  0  0  0
   14.4446  -59.6059   34.1077 C   0  0  0  0  0  0  0  0  0  0  0  0
   15.5606  -58.8899   34.4390 C   0  0  0  0  0  0  0  0  0  0  0  0
   13.2950  -61.3873   32.9783 O   0  0  0  0  0  0  0  0  0  0  0  0
   13.2666  -62.7203   32.4469 C   0  0  0  0  0  0  0  0  0  0  0  0
   14.4777  -62.9563   31.6066 C   0  0  0  0  0  0  0  0  0  0  0  0
   14.3932  -63.7648   30.6535 O   0  0  0  0  0  0  0  0  0  0  0  0
   15.7041  -62.2835   31.8727 N   0  0  0  0  0  0  0  0  0  0  0  0
   16.5954  -62.6167   31.4558 H   0  0  0  0  0  0  0  0  0  0  0  0
   15.7828  -56.5662   37.4715 C   0  0  0  0  0  0  0  0  0  0  0  0
   16.6159  -55.6376   37.1172 N   0  0  0  0  0  0  0  0  0  0  0  0
   16.7271  -54.4335   37.8097 N   0  0  0  0  0  0  0  0  0  0  0  0
   15.9053  -54.2143   38.9341 C   0  0  0  0  0  0  0  0  0  0  0  0
   15.9794  -53.0628   39.4830 O   0  0  0  0  0  0  0  0  0  0  0  0
   14.9959  -55.2468   39.4711 C   0  0  0  0  0  0  0  0  0  0  0  0
   14.9468  -56.3678   38.5992 N   0  0  0  0  0  0  0  0  0  0  0  0
   14.2395  -57.1239   38.7924 H   0  0  0  0  0  0  0  0  0  0  0  0
   17.6731  -53.4212   37.3876 C   0  0  0  0  0  0  0  0  0  0  0  0
   18.7875  -53.7412   36.6510 C   0  0  0  0  0  0  0  0  0  0  0  0
   19.6841  -52.7446   36.2516 C   0  0  0  0  0  0  0  0  0  0  0  0
   19.4707  -51.4236   36.5895 C   0  0  0  0  0  0  0  0  0  0  0  0
   18.3506  -51.1195   37.3284 C   0  0  0  0  0  0  0  0  0  0  0  0
   17.4805  -52.0959   37.7136 C   0  0  0  0  0  0  0  0  0  0  0  0
   20.3946  -50.3222   36.1850 C   0  0  0  0  0  0  0  0  0  0  0  0
  5  6  1  0  0  0
  6  7  2  0  0  0
  6 11  1  0  0  0
  7  8  1  0  0  0
  8  9  2  0  0  0
  8 16  1  0  0  0
  9 10  1  0  0  0
  9 12  1  0  0  0
 10 11  2  0  0  0
 11  1  1  0  0  0
  1  2  1  0  0  0
  2  3  2  0  0  0
  2 18  1  0  0  0
 18 19  2  0  0  0
 18 24  1  0  0  0
 19 20  1  0  0  0
 20 21  1  0  0  0
 20 26  1  0  0  0
 21 22  2  0  0  0
 21 23  1  0  0  0
 23 24  1  0  0  0
 26 27  2  0  0  0
 26 31  1  0  0  0
 27 28  1  0  0  0
 28 29  2  0  0  0
 29 30  1  0  0  0
 29 32  1  0  0  0
 30 31  2  0  0  0
 12 13  1  0  0  0
 13 14  1  0  0  0
 14 15  2  0  0  0
 14 16  1  0  0  0
  1  4  1  0  0  0
 24 25  1  0  0  0
 16 17  1  0  0  0
M  END
> <minimizedAffinity>
-10.51058

$$$$
2266


 27 30  0  0  0  0  0  0  0  0999 V2000
   18.2026  -55.6478   34.2259 N   0  0  0  0  0  0  0  0  0  0  0  0
   17.1652  -55.2936   33.3427 C   0  0  0  0  0  0  0  0  0  0  0  0
   16.2748  -56.4539   32.9436 C   0  0  0  0  0  0  0  0  0  0  0  0
   15.8292  -57.0885   34.2202 C   0  0  0  0  0  0  0  0  0  0  0  0
   16.8052  -57.3221   35.1668 C   0  0  0  0  0  0  0  0  0  0  0  0
   16.4723  -57.8864   36.3278 N   0  0  0  0  0  0  0  0  0  0  0  0
   15.1799  -58.2104   36.5349 C   0  0  0  0  0  0  0  0  0  0  0  0
   14.2100  -57.9929   35.6296 N   0  0  0  0  0  0  0  0  0  0  0  0
   13.0255  -58.4162   36.1094 N   0  0  0  0  0  0  0  0  0  0  0  0
   13.1834  -58.9222   37.3411 C   0  0  0  0  0  0  0  0  0  0  0  0
   14.5235  -58.8015   37.6233 C   0  0  0  0  0  0  0  0  0  0  0  0
   14.5117  -57.4230   34.4418 C   0  0  0  0  0  0  0  0  0  0  0  0
   13.6491  -57.1949   33.5556 O   0  0  0  0  0  0  0  0  0  0  0  0
   18.1892  -56.9211   34.8182 C   0  0  0  0  0  0  0  0  0  0  0  0
   12.1291  -58.3467   35.5760 H   0  0  0  0  0  0  0  0  0  0  0  0
   19.0767  -54.4133   34.9511 S   0  0  0  0  0  0  0  0  0  0  0  0
   20.4055  -54.9069   35.5052 O   0  0  0  0  0  0  0  0  0  0  0  0
   19.4703  -53.4176   33.8645 O   0  0  0  0  0  0  0  0  0  0  0  0
   18.2903  -53.5480   36.2146 C   0  0  0  0  0  0  0  0  0  0  0  0
   18.7646  -52.3064   36.6314 C   0  0  0  0  0  0  0  0  0  0  0  0
   18.1131  -51.6422   37.6473 C   0  0  0  0  0  0  0  0  0  0  0  0
   17.0174  -52.1542   38.2621 C   0  0  0  0  0  0  0  0  0  0  0  0
   16.5273  -53.3701   37.8760 C   0  0  0  0  0  0  0  0  0  0  0  0
   17.1789  -54.0363   36.8594 C   0  0  0  0  0  0  0  0  0  0  0  0
   15.1018  -54.0607   38.6593 Cl  0  0  0  0  0  0  0  0  0  0  0  0
   19.8680  -51.7165   36.0613 O   0  0  0  0  0  0  0  0  0  0  0  0
   20.0319  -50.3206   36.1689 C   0  0  0  0  0  0  0  0  0  0  0  0
 16 17  2  0  0  0
 16 18  2  0  0  0
 16  1  1  0  0  0
 16 19  1  0  0  0
  1  2  1  0  0  0
  1 14  1  0  0  0
  2  3  1  0  0  0
  3  4  1  0  0  0
  4  5  2  0  0  0
  4 12  1  0  0  0
  5  6  1  0  0  0
  5 14  1  0  0  0
  6  7  2  0  0  0
  7  8  1  0  0  0
  7 11  1  0  0  0
  8  9  1  0  0  0
  8 12  1  0  0  0
  9 10  1  0  0  0
 10 11  2  0  0  0
 12 13  2  0  0  0
 19 20  2  0  0  0
 19 24  1  0  0  0
 20 21  1  0  0  0
 20 26  1  0  0  0
 21 22  2  0  0  0
 22 23  1  0  0  0
 23 24  2  0  0  0
 23 25  1  0  0  0
 26 27  1  0  0  0
  9 15  1  0  0  0
M  END
> <minimizedAffinity>
-10.28498

$$$$
2267


 27 30  0  0  0  0  0  0  0  0999 V2000
   15.0152  -58.4030   35.5179 N   0  0  0  0  0  0  0  0  0  0  0  0
   13.9049  -58.4840   36.3561 C   0  0  0  0  0  0  0  0  0  0  0  0
   14.1384  -57.9065   37.7325 C   0  0  0  0  0  0  0  0  0  0  0  0
   15.1641  -56.8379   37.7602 C   0  0  0  0  0  0  0  0  0  0  0  0
   16.2430  -56.9888   36.9231 C   0  0  0  0  0  0  0  0  0  0  0  0
   17.2195  -56.0749   36.8815 N   0  0  0  0  0  0  0  0  0  0  0  0
   17.1395  -54.9676   37.6898 C   0  0  0  0  0  0  0  0  0  0  0  0
   16.0727  -54.8366   38.5050 N   0  0  0  0  0  0  0  0  0  0  0  0
   16.2317  -53.6927   39.1760 N   0  0  0  0  0  0  0  0  0  0  0  0
   17.3614  -53.0988   38.8119 C   0  0  0  0  0  0  0  0  0  0  0  0
   17.9842  -53.8901   37.8485 C   0  0  0  0  0  0  0  0  0  0  0  0
   15.0685  -55.7189   38.5871 C   0  0  0  0  0  0  0  0  0  0  0  0
   14.0767  -55.5953   39.3456 O   0  0  0  0  0  0  0  0  0  0  0  0
   16.3021  -58.1833   36.0645 C   0  0  0  0  0  0  0  0  0  0  0  0
   15.5703  -53.3075   39.8883 H   0  0  0  0  0  0  0  0  0  0  0  0
   14.7941  -58.1056   33.8914 S   0  0  0  0  0  0  0  0  0  0  0  0
   14.6051  -59.4159   33.1613 O   0  0  0  0  0  0  0  0  0  0  0  0
   13.5574  -57.2930   33.6465 O   0  0  0  0  0  0  0  0  0  0  0  0
   16.1319  -57.2885   33.1142 C   0  0  0  0  0  0  0  0  0  0  0  0
   17.0658  -57.9499   32.3354 C   0  0  0  0  0  0  0  0  0  0  0  0
   18.1066  -57.2508   31.7434 C   0  0  0  0  0  0  0  0  0  0  0  0
   18.2602  -55.8921   31.8957 C   0  0  0  0  0  0  0  0  0  0  0  0
   17.3309  -55.2326   32.6708 C   0  0  0  0  0  0  0  0  0  0  0  0
   16.2970  -55.9269   33.2589 C   0  0  0  0  0  0  0  0  0  0  0  0
   19.2802  -58.1042   30.7607 Cl  0  0  0  0  0  0  0  0  0  0  0  0
   19.3218  -55.2041   31.2862 O   0  0  0  0  0  0  0  0  0  0  0  0
   20.1327  -54.3402   32.0599 C   0  0  0  0  0  0  0  0  0  0  0  0
 16 17  2  0  0  0
 16 18  2  0  0  0
 16  1  1  0  0  0
 16 19  1  0  0  0
  1  2  1  0  0  0
  1 14  1  0  0  0
  2  3  1  0  0  0
  3  4  1  0  0  0
  4  5  2  0  0  0
  4 12  1  0  0  0
  5  6  1  0  0  0
  5 14  1  0  0  0
  6  7  2  0  0  0
  7  8  1  0  0  0
  7 11  1  0  0  0
  8  9  1  0  0  0
  8 12  1  0  0  0
  9 10  1  0  0  0
 10 11  2  0  0  0
 12 13  2  0  0  0
 19 20  2  0  0  0
 19 24  1  0  0  0
 20 21  1  0  0  0
 21 22  2  0  0  0
 21 25  1  0  0  0
 22 23  1  0  0  0
 22 26  1  0  0  0
 23 24  2  0  0  0
 26 27  1  0  0  0
  9 15  1  0  0  0
M  END
> <minimizedAffinity>
-9.21198

$$$$
2270


 22 24  0  0  0  0  0  0  0  0999 V2000
   16.9164  -54.9555   37.3299 C   0  0  0  0  0  0  0  0  0  0  0  0
   16.1495  -55.0370   38.3308 O   0  0  0  0  0  0  0  0  0  0  0  0
   17.0602  -56.0414   36.4128 N   0  0  0  0  0  0  0  0  0  0  0  0
   17.6913  -55.9276   35.6203 H   0  0  0  0  0  0  0  0  0  0  0  0
   20.2063  -50.0744   36.1762 Cl  0  0  0  0  0  0  0  0  0  0  0  0
   19.2229  -51.4907   36.5382 C   0  0  0  0  0  0  0  0  0  0  0  0
   19.4197  -52.6518   35.8215 C   0  0  0  0  0  0  0  0  0  0  0  0
   18.6418  -53.7479   36.1189 C   0  0  0  0  0  0  0  0  0  0  0  0
   17.6603  -53.7403   37.1154 C   0  0  0  0  0  0  0  0  0  0  0  0
   17.4729  -52.5863   37.8198 C   0  0  0  0  0  0  0  0  0  0  0  0
   18.2546  -51.4618   37.5312 C   0  0  0  0  0  0  0  0  0  0  0  0
   20.3870  -52.6896   34.8266 O   0  0  0  0  0  0  0  0  0  0  0  0
   20.2193  -53.4797   33.6655 C   0  0  0  0  0  0  0  0  0  0  0  0
   16.3027  -57.2324   36.6607 C   0  0  0  0  0  0  0  0  0  0  0  0
   15.3015  -57.6196   35.6469 C   0  0  0  0  0  0  0  0  0  0  0  0
   14.7993  -58.9583   35.6946 N   0  0  0  0  0  0  0  0  0  0  0  0
   13.3656  -58.8455   35.3318 C   0  0  0  0  0  0  0  0  0  0  0  0
   13.3708  -57.9425   34.0920 C   0  0  0  0  0  0  0  0  0  0  0  0
   14.6466  -57.9657   33.4055 N   0  0  0  0  0  0  0  0  0  0  0  0
   15.7121  -57.3585   34.2068 C   0  0  0  0  0  0  0  0  0  0  0  0
   15.0232  -59.3619   33.2681 C   0  0  0  0  0  0  0  0  0  0  0  0
   15.3292  -59.8464   34.6801 C   0  0  0  0  0  0  0  0  0  0  0  0
  5  6  1  0  0  0
  6  7  2  0  0  0
  6 11  1  0  0  0
  7  8  1  0  0  0
  7 12  1  0  0  0
  8  9  2  0  0  0
  9 10  1  0  0  0
  9  1  1  0  0  0
 10 11  2  0  0  0
  1  2  2  0  0  0
  1  3  1  0  0  0
  3 14  1  0  0  0
 14 15  1  0  0  0
 15 16  1  0  0  0
 15 20  1  0  0  0
 16 17  1  0  0  0
 16 22  1  0  0  0
 17 18  1  0  0  0
 18 19  1  0  0  0
 19 20  1  0  0  0
 19 21  1  0  0  0
 21 22  1  0  0  0
 12 13  1  0  0  0
  3  4  1  0  0  0
M  END
> <minimizedAffinity>
-8.33886

$$$$
2271


 27 30  0  0  0  0  0  0  0  0999 V2000
   18.0314  -57.6948   34.7789 C   0  0  0  0  0  0  0  0  0  0  0  0
   17.4212  -58.0099   33.5853 N   0  0  0  0  0  0  0  0  0  0  0  0
   16.0015  -57.8980   33.8481 C   0  0  0  0  0  0  0  0  0  0  0  0
   14.9784  -57.4065   33.2279 C   0  0  0  0  0  0  0  0  0  0  0  0
   13.6020  -57.4371   33.7546 C   0  0  0  0  0  0  0  0  0  0  0  0
   13.4367  -58.0646   35.0928 C   0  0  0  0  0  0  0  0  0  0  0  0
   14.5305  -59.0023   35.4788 C   0  0  0  0  0  0  0  0  0  0  0  0
   15.8423  -58.5106   35.1154 N   0  0  0  0  0  0  0  0  0  0  0  0
   17.1420  -58.4862   35.7805 C   0  0  0  0  0  0  0  0  0  0  0  0
   19.2933  -58.3395   34.9157 O   0  0  0  0  0  0  0  0  0  0  0  0
   17.5216  -59.0847   33.4722 H   0  0  0  0  0  0  0  0  0  0  0  0
   19.0972  -59.3115   34.8972 H   0  0  0  0  0  0  0  0  0  0  0  0
   18.4744  -52.1530   37.0312 Cl  0  0  0  0  0  0  0  0  0  0  0  0
   18.3533  -53.7615   36.3645 C   0  0  0  0  0  0  0  0  0  0  0  0
   19.3011  -54.2952   35.5004 C   0  0  0  0  0  0  0  0  0  0  0  0
   19.1876  -55.5548   34.9903 C   0  0  0  0  0  0  0  0  0  0  0  0
   18.1097  -56.3534   35.3208 C   0  0  0  0  0  0  0  0  0  0  0  0
   17.1696  -55.8324   36.1745 C   0  0  0  0  0  0  0  0  0  0  0  0
   17.2869  -54.5534   36.6907 C   0  0  0  0  0  0  0  0  0  0  0  0
   17.7895  -57.4890   32.3544 C   0  0  0  0  0  0  0  0  0  0  0  0
   17.9476  -56.1837   32.0336 C   0  0  0  0  0  0  0  0  0  0  0  0
   18.3367  -55.8144   30.7471 C   0  0  0  0  0  0  0  0  0  0  0  0
   18.5787  -56.7420   29.7481 C   0  0  0  0  0  0  0  0  0  0  0  0
   18.4097  -58.0634   30.1045 C   0  0  0  0  0  0  0  0  0  0  0  0
   18.0280  -58.4583   31.3592 C   0  0  0  0  0  0  0  0  0  0  0  0
   18.9631  -56.3319   28.4818 O   0  0  0  0  0  0  0  0  0  0  0  0
   20.2442  -55.7882   28.2930 C   0  0  0  0  0  0  0  0  0  0  0  0
 13 14  1  0  0  0
 14 15  2  0  0  0
 14 19  1  0  0  0
 15 16  1  0  0  0
 16 17  2  0  0  0
 17 18  1  0  0  0
 17  1  1  0  0  0
 18 19  2  0  0  0
  1  2  1  0  0  0
  1  9  1  0  0  0
  1 10  1  0  0  0
  2  3  1  0  0  0
  2 20  1  0  0  0
  3  4  2  0  0  0
  3  8  1  0  0  0
  4  5  1  0  0  0
  5  6  1  0  0  0
  6  7  1  0  0  0
  7  8  1  0  0  0
  8  9  1  0  0  0
 20 21  2  0  0  0
 20 25  1  0  0  0
 21 22  1  0  0  0
 22 23  2  0  0  0
 23 24  1  0  0  0
 23 26  1  0  0  0
 24 25  2  0  0  0
 26 27  1  0  0  0
  2 11  1  0  0  0
 10 12  1  0  0  0
M  CHG 1   2   1
M  END
> <minimizedAffinity>
-7.48317

$$$$
2272


 29 32  0  0  0  0  0  0  0  0999 V2000
   18.2193  -57.1103   32.1394 C   0  0  0  0  0  0  0  0  0  0  0  0
   19.2561  -57.7445   31.7065 O   0  0  0  0  0  0  0  0  0  0  0  0
   18.4169  -55.7593   32.4316 N   0  0  0  0  0  0  0  0  0  0  0  0
   17.4407  -54.9048   33.1332 C   0  0  0  0  0  0  0  0  0  0  0  0
   18.2099  -54.7326   34.4807 C   0  0  0  0  0  0  0  0  0  0  0  0
   19.4053  -53.9479   34.2055 N   0  0  0  0  0  0  0  0  0  0  0  0
   19.9586  -53.9296   32.9649 C   0  0  0  0  0  0  0  0  0  0  0  0
   19.5921  -55.0405   32.0224 C   0  0  0  0  0  0  0  0  0  0  0  0
   17.0183  -57.9049   32.2267 C   0  0  0  0  0  0  0  0  0  0  0  0
   16.7574  -58.7998   33.3504 C   0  0  0  0  0  0  0  0  0  0  0  0
   14.5994  -55.8785   39.3809 Cl  0  0  0  0  0  0  0  0  0  0  0  0
   14.9771  -56.6465   37.8587 C   0  0  0  0  0  0  0  0  0  0  0  0
   13.9937  -57.2413   37.1175 C   0  0  0  0  0  0  0  0  0  0  0  0
   14.3239  -57.8388   35.8942 C   0  0  0  0  0  0  0  0  0  0  0  0
   15.6098  -57.8500   35.4080 C   0  0  0  0  0  0  0  0  0  0  0  0
   16.6303  -57.2403   36.1590 C   0  0  0  0  0  0  0  0  0  0  0  0
   16.2680  -56.6595   37.3631 C   0  0  0  0  0  0  0  0  0  0  0  0
   15.6500  -58.4644   34.2287 N   0  0  0  0  0  0  0  0  0  0  0  0
   14.3515  -58.8457   33.9811 C   0  0  0  0  0  0  0  0  0  0  0  0
   13.9595  -59.4684   32.9524 O   0  0  0  0  0  0  0  0  0  0  0  0
   13.6109  -58.4547   34.9885 O   0  0  0  0  0  0  0  0  0  0  0  0
   20.0213  -53.6716   35.4153 C   0  0  0  0  0  0  0  0  0  0  0  0
   19.7078  -52.2573   35.9056 C   0  0  0  0  0  0  0  0  0  0  0  0
   20.4228  -51.3469   35.3361 O   0  0  0  0  0  0  0  0  0  0  0  0
   18.7862  -52.0363   36.8357 N   0  0  0  0  0  0  0  0  0  0  0  0
   18.8701  -50.6928   36.6554 H   0  0  0  0  0  0  0  0  0  0  0  0
   17.8056  -51.8019   37.8263 C   0  0  0  0  0  0  0  0  0  0  0  0
   17.5092  -53.0351   38.7625 C   0  0  0  0  0  0  0  0  0  0  0  0
   16.5316  -52.6191   37.7747 C   0  0  0  0  0  0  0  0  0  0  0  0
 11 12  1  0  0  0
 12 13  2  0  0  0
 12 17  1  0  0  0
 13 14  1  0  0  0
 14 15  2  0  0  0
 14 21  1  0  0  0
 15 16  1  0  0  0
 15 18  1  0  0  0
 16 17  2  0  0  0
 18 19  1  0  0  0
 18 10  1  0  0  0
 19 20  2  0  0  0
 19 21  1  0  0  0
 10  9  1  0  0  0
  9  1  1  0  0  0
  1  2  2  0  0  0
  1  3  1  0  0  0
  3  4  1  0  0  0
  3  8  1  0  0  0
  4  5  1  0  0  0
  5  6  1  0  0  0
  6  7  1  0  0  0
  6 22  1  0  0  0
  7  8  1  0  0  0
 22 23  1  0  0  0
 23 24  2  0  0  0
 23 25  1  0  0  0
 25 27  1  0  0  0
 27 28  1  0  0  0
 27 29  1  0  0  0
 28 29  1  0  0  0
 25 26  1  0  0  0
M  END
> <minimizedAffinity>
-9.18097

$$$$
2275


 21 23  0  0  0  0  0  0  0  0999 V2000
   19.9337  -54.2978   32.4466 Cl  0  0  0  0  0  0  0  0  0  0  0  0
   19.0867  -54.3909   33.9749 C   0  0  0  0  0  0  0  0  0  0  0  0
   18.0794  -55.3168   34.1517 C   0  0  0  0  0  0  0  0  0  0  0  0
   17.4598  -55.3368   35.3816 C   0  0  0  0  0  0  0  0  0  0  0  0
   16.5218  -56.1480   35.6509 O   0  0  0  0  0  0  0  0  0  0  0  0
   17.8436  -54.4800   36.3397 N   0  0  0  0  0  0  0  0  0  0  0  0
   18.7996  -53.5808   36.2149 N   0  0  0  0  0  0  0  0  0  0  0  0
   19.1842  -52.6714   37.2812 C   0  0  0  0  0  0  0  0  0  0  0  0
   18.1505  -51.5908   37.5185 C   0  0  0  0  0  0  0  0  0  0  0  0
   17.0231  -52.1161   38.3904 C   0  0  0  0  0  0  0  0  0  0  0  0
   16.3161  -53.2791   37.7331 C   0  0  0  0  0  0  0  0  0  0  0  0
   17.1663  -54.5190   37.6452 C   0  0  0  0  0  0  0  0  0  0  0  0
   18.2394  -54.4185   38.6699 C   0  0  0  0  0  0  0  0  0  0  0  0
   19.1983  -53.5086   38.5384 C   0  0  0  0  0  0  0  0  0  0  0  0
   19.4300  -53.5403   35.0037 C   0  0  0  0  0  0  0  0  0  0  0  0
   20.3609  -52.6786   34.8529 O   0  0  0  0  0  0  0  0  0  0  0  0
   17.6687  -56.2237   33.1329 N   0  0  0  0  0  0  0  0  0  0  0  0
   16.9205  -55.8357   32.4824 H   0  0  0  0  0  0  0  0  0  0  0  0
   18.1928  -57.5514   32.9622 C   0  0  0  0  0  0  0  0  0  0  0  0
   19.1628  -57.6327   31.7960 C   0  0  0  0  0  0  0  0  0  0  0  0
   18.8738  -58.1079   34.1677 C   0  0  0  0  0  0  0  0  0  0  0  0
  1  2  1  0  0  0
  2  3  2  0  0  0
  2 15  1  0  0  0
  3  4  1  0  0  0
  3 17  1  0  0  0
  4  5  2  0  0  0
  4  6  1  0  0  0
  6  7  1  0  0  0
  6 12  1  0  0  0
  7  8  1  0  0  0
  7 15  1  0  0  0
  8  9  1  0  0  0
  8 14  1  0  0  0
  9 10  1  0  0  0
 10 11  1  0  0  0
 11 12  1  0  0  0
 12 13  1  0  0  0
 13 14  2  0  0  0
 15 16  2  0  0  0
 17 19  1  0  0  0
 19 20  1  0  0  0
 19 21  1  0  0  0
 17 18  1  0  0  0
M  END
> <minimizedAffinity>
-9.01253

$$$$
2276


 21 24  0  0  0  0  0  0  0  0999 V2000
   20.3665  -53.9391   32.8056 Cl  0  0  0  0  0  0  0  0  0  0  0  0
   19.3250  -54.1153   34.2040 C   0  0  0  0  0  0  0  0  0  0  0  0
   18.3752  -55.1151   34.1810 C   0  0  0  0  0  0  0  0  0  0  0  0
   17.5751  -55.1947   35.3278 C   0  0  0  0  0  0  0  0  0  0  0  0
   16.6996  -56.0810   35.3608 O   0  0  0  0  0  0  0  0  0  0  0  0
   17.7433  -54.3510   36.3531 N   0  0  0  0  0  0  0  0  0  0  0  0
   18.6575  -53.3931   36.3682 N   0  0  0  0  0  0  0  0  0  0  0  0
   18.7105  -52.5664   37.5655 C   0  0  0  0  0  0  0  0  0  0  0  0
   17.3269  -51.9670   37.7365 C   0  0  0  0  0  0  0  0  0  0  0  0
   16.2963  -53.0099   37.6745 C   0  0  0  0  0  0  0  0  0  0  0  0
   16.9142  -54.4100   37.5593 C   0  0  0  0  0  0  0  0  0  0  0  0
   17.9077  -54.5111   38.6830 C   0  0  0  0  0  0  0  0  0  0  0  0
   18.8329  -53.5666   38.6917 C   0  0  0  0  0  0  0  0  0  0  0  0
   16.5509  -52.2310   38.9723 C   0  0  0  0  0  0  0  0  0  0  0  0
   19.4445  -53.2713   35.3043 C   0  0  0  0  0  0  0  0  0  0  0  0
   20.3161  -52.3648   35.3089 O   0  0  0  0  0  0  0  0  0  0  0  0
   18.1879  -56.0234   33.0993 N   0  0  0  0  0  0  0  0  0  0  0  0
   17.4798  -55.7318   32.3928 H   0  0  0  0  0  0  0  0  0  0  0  0
   18.8747  -57.2514   32.9283 C   0  0  0  0  0  0  0  0  0  0  0  0
   18.0478  -58.4793   33.2089 C   0  0  0  0  0  0  0  0  0  0  0  0
   19.4482  -57.4279   31.5292 C   0  0  0  0  0  0  0  0  0  0  0  0
  1  2  1  0  0  0
  2  3  2  0  0  0
  2 15  1  0  0  0
  3  4  1  0  0  0
  3 17  1  0  0  0
  4  5  2  0  0  0
  4  6  1  0  0  0
  6  7  1  0  0  0
  6 11  1  0  0  0
  7  8  1  0  0  0
  7 15  1  0  0  0
  8  9  1  0  0  0
  8 13  1  0  0  0
  9 10  1  0  0  0
  9 14  1  0  0  0
 10 11  1  0  0  0
 10 14  1  0  0  0
 11 12  1  0  0  0
 12 13  2  0  0  0
 15 16  2  0  0  0
 17 19  1  0  0  0
 19 20  1  0  0  0
 19 21  1  0  0  0
 17 18  1  0  0  0
M  END
> <minimizedAffinity>
-8.90614

$$$$
2281


 34 37  0  0  0  0  0  0  0  0999 V2000
   16.2824  -57.5781   32.9581 N   0  0  0  0  0  0  0  0  0  0  0  0
   17.2986  -58.3588   32.3901 C   0  0  0  0  0  0  0  0  0  0  0  0
   18.5913  -57.4642   32.3400 C   0  0  0  0  0  0  0  0  0  0  0  0
   18.5663  -56.2767   33.0372 N   0  0  0  0  0  0  0  0  0  0  0  0
   17.3095  -55.6171   33.2652 C   0  0  0  0  0  0  0  0  0  0  0  0
   16.2216  -56.2013   32.3056 C   0  0  0  0  0  0  0  0  0  0  0  0
   17.5710  -58.0754   35.6935 Cl  0  0  0  0  0  0  0  0  0  0  0  0
   15.8094  -58.1060   35.2809 C   0  0  0  0  0  0  0  0  0  0  0  0
   15.4629  -57.6921   34.0701 C   0  0  0  0  0  0  0  0  0  0  0  0
   14.0033  -57.6911   33.8063 C   0  0  0  0  0  0  0  0  0  0  0  0
   13.2297  -58.1053   34.7378 N   0  0  0  0  0  0  0  0  0  0  0  0
   13.6291  -58.5388   35.9622 N   0  0  0  0  0  0  0  0  0  0  0  0
   14.9022  -58.5424   36.2472 C   0  0  0  0  0  0  0  0  0  0  0  0
   15.3823  -58.9408   37.3622 O   0  0  0  0  0  0  0  0  0  0  0  0
   12.6261  -59.2221   36.7773 C   0  0  0  0  0  0  0  0  0  0  0  0
   12.2398  -58.7717   37.9985 C   0  0  0  0  0  0  0  0  0  0  0  0
   11.2067  -59.3672   38.6892 C   0  0  0  0  0  0  0  0  0  0  0  0
   10.5237  -60.4554   38.1485 C   0  0  0  0  0  0  0  0  0  0  0  0
   10.9480  -60.9010   36.8968 C   0  0  0  0  0  0  0  0  0  0  0  0
   11.9559  -60.3072   36.2420 C   0  0  0  0  0  0  0  0  0  0  0  0
   19.3947  -55.1733   32.4455 C   0  0  0  0  0  0  0  0  0  0  0  0
   19.7035  -54.1875   33.4705 C   0  0  0  0  0  0  0  0  0  0  0  0
   19.8641  -53.0822   33.4933 O   0  0  0  0  0  0  0  0  0  0  0  0
   19.8355  -54.9553   34.9908 N   0  0  0  0  0  0  0  0  0  0  0  0
   19.7766  -53.6729   35.7773 C   0  0  0  0  0  0  0  0  0  0  0  0
   20.1967  -52.6090   35.4136 O   0  0  0  0  0  0  0  0  0  0  0  0
   19.1196  -53.8958   37.0446 N   0  0  0  0  0  0  0  0  0  0  0  0
   19.8672  -55.6109   34.5817 H   0  0  0  0  0  0  0  0  0  0  0  0
   18.8338  -54.9131   37.2368 H   0  0  0  0  0  0  0  0  0  0  0  0
   18.8392  -52.9425   38.0508 C   0  0  0  0  0  0  0  0  0  0  0  0
   17.9464  -51.8076   37.7549 C   0  0  0  0  0  0  0  0  0  0  0  0
   16.5242  -52.2306   38.1360 C   0  0  0  0  0  0  0  0  0  0  0  0
   16.7928  -53.1223   39.3256 C   0  0  0  0  0  0  0  0  0  0  0  0
   18.1119  -53.7364   39.1560 C   0  0  0  0  0  0  0  0  0  0  0  0
  7  8  1  0  0  0
  8  9  2  0  0  0
  8 13  1  0  0  0
  9 10  1  0  0  0
  9  1  1  0  0  0
 10 11  2  0  0  0
 11 12  1  0  0  0
 12 13  1  0  0  0
 12 15  1  0  0  0
 13 14  2  0  0  0
 15 16  2  0  0  0
 15 20  1  0  0  0
 16 17  1  0  0  0
 17 18  2  0  0  0
 18 19  1  0  0  0
 19 20  2  0  0  0
  1  2  1  0  0  0
  1  6  1  0  0  0
  2  3  1  0  0  0
  3  4  1  0  0  0
  4  5  1  0  0  0
  4 21  1  0  0  0
  5  6  1  0  0  0
 21 22  1  0  0  0
 22 23  2  0  0  0
 22 24  1  0  0  0
 24 25  1  0  0  0
 25 26  2  0  0  0
 25 27  1  0  0  0
 27 30  1  0  0  0
 30 31  1  0  0  0
 30 34  1  0  0  0
 31 32  1  0  0  0
 32 33  1  0  0  0
 33 34  1  0  0  0
 24 28  1  0  0  0
 27 29  1  0  0  0
M  END
> <minimizedAffinity>
-9.97420

$$$$
2282


 31 34  0  0  0  0  0  0  0  0999 V2000
   17.7528  -53.8022   37.9811 N   0  0  0  0  0  0  0  0  0  0  0  0
   17.3731  -52.4157   37.8517 C   0  0  0  0  0  0  0  0  0  0  0  0
   18.3963  -51.6792   37.0452 C   0  0  0  0  0  0  0  0  0  0  0  0
   19.2626  -52.6644   36.4473 N   0  0  0  0  0  0  0  0  0  0  0  0
   20.0543  -53.2561   37.4646 C   0  0  0  0  0  0  0  0  0  0  0  0
   19.1184  -54.1258   38.3096 C   0  0  0  0  0  0  0  0  0  0  0  0
   15.3673  -53.7109   39.7339 Cl  0  0  0  0  0  0  0  0  0  0  0  0
   15.6610  -54.9628   38.5458 C   0  0  0  0  0  0  0  0  0  0  0  0
   16.8327  -54.8675   37.8004 C   0  0  0  0  0  0  0  0  0  0  0  0
   17.0326  -55.8696   36.8753 C   0  0  0  0  0  0  0  0  0  0  0  0
   16.1311  -56.8567   36.7320 N   0  0  0  0  0  0  0  0  0  0  0  0
   15.0139  -56.9656   37.4294 N   0  0  0  0  0  0  0  0  0  0  0  0
   14.7792  -56.0067   38.3450 C   0  0  0  0  0  0  0  0  0  0  0  0
   13.7178  -56.0886   39.0247 O   0  0  0  0  0  0  0  0  0  0  0  0
   14.0965  -58.0469   37.2191 C   0  0  0  0  0  0  0  0  0  0  0  0
   13.6018  -58.2975   35.9600 C   0  0  0  0  0  0  0  0  0  0  0  0
   12.7062  -59.3506   35.7429 C   0  0  0  0  0  0  0  0  0  0  0  0
   12.2946  -60.1634   36.7743 C   0  0  0  0  0  0  0  0  0  0  0  0
   12.7856  -59.9201   38.0381 C   0  0  0  0  0  0  0  0  0  0  0  0
   13.6746  -58.8699   38.2413 C   0  0  0  0  0  0  0  0  0  0  0  0
   19.8793  -52.3034   35.2340 C   0  0  0  0  0  0  0  0  0  0  0  0
   20.0108  -53.3940   34.2622 C   0  0  0  0  0  0  0  0  0  0  0  0
   21.0606  -53.3718   33.5343 O   0  0  0  0  0  0  0  0  0  0  0  0
   19.0937  -54.4542   34.0634 N   0  0  0  0  0  0  0  0  0  0  0  0
   18.2457  -54.4745   34.6650 H   0  0  0  0  0  0  0  0  0  0  0  0
   19.2678  -55.5061   33.0940 C   0  0  0  0  0  0  0  0  0  0  0  0
   17.9344  -55.9002   32.5380 C   0  0  0  0  0  0  0  0  0  0  0  0
   17.8385  -57.2660   32.5090 O   0  0  0  0  0  0  0  0  0  0  0  0
   16.7548  -57.6965   33.2243 C   0  0  0  0  0  0  0  0  0  0  0  0
   15.7899  -56.5336   33.1301 C   0  0  0  0  0  0  0  0  0  0  0  0
   16.7890  -55.3965   33.4046 C   0  0  0  0  0  0  0  0  0  0  0  0
  7  8  1  0  0  0
  8  9  2  0  0  0
  8 13  1  0  0  0
  9 10  1  0  0  0
  9  1  1  0  0  0
 10 11  2  0  0  0
 11 12  1  0  0  0
 12 13  1  0  0  0
 12 15  1  0  0  0
 13 14  2  0  0  0
 15 16  2  0  0  0
 15 20  1  0  0  0
 16 17  1  0  0  0
 17 18  2  0  0  0
 18 19  1  0  0  0
 19 20  2  0  0  0
  1  2  1  0  0  0
  1  6  1  0  0  0
  2  3  1  0  0  0
  3  4  1  0  0  0
  4  5  1  0  0  0
  4 21  1  0  0  0
  5  6  1  0  0  0
 21 22  1  0  0  0
 22 23  2  0  0  0
 22 24  1  0  0  0
 24 26  1  0  0  0
 26 27  1  0  0  0
 27 28  1  0  0  0
 27 31  1  0  0  0
 28 29  1  0  0  0
 29 30  1  0  0  0
 30 31  1  0  0  0
 24 25  1  0  0  0
M  END
> <minimizedAffinity>
-8.67905

$$$$
2284


 33 37  0  0  0  0  0  0  0  0999 V2000
   13.6644  -58.2585   38.6467 C   0  0  0  0  0  0  0  0  0  0  0  0
   14.5848  -58.7089   37.7211 C   0  0  0  0  0  0  0  0  0  0  0  0
   15.5953  -57.9471   37.1921 C   0  0  0  0  0  0  0  0  0  0  0  0
   16.3855  -58.4754   36.3428 O   0  0  0  0  0  0  0  0  0  0  0  0
   15.7335  -56.6460   37.5849 N   0  0  0  0  0  0  0  0  0  0  0  0
   16.6248  -55.8352   37.1729 N   0  0  0  0  0  0  0  0  0  0  0  0
   16.6997  -54.6061   37.5902 C   0  0  0  0  0  0  0  0  0  0  0  0
   15.3643  -54.5906   38.6855 S   0  0  0  0  0  0  0  0  0  0  0  0
   14.8428  -56.2137   38.4798 C   0  0  0  0  0  0  0  0  0  0  0  0
   13.8482  -56.9674   38.9978 N   0  0  0  0  0  0  0  0  0  0  0  0
   17.6222  -53.5125   37.2621 C   0  0  0  0  0  0  0  0  0  0  0  0
   18.6852  -53.7727   36.4242 C   0  0  0  0  0  0  0  0  0  0  0  0
   19.5924  -52.7817   36.0757 C   0  0  0  0  0  0  0  0  0  0  0  0
   19.4353  -51.5044   36.5724 C   0  0  0  0  0  0  0  0  0  0  0  0
   18.3750  -51.2192   37.4157 C   0  0  0  0  0  0  0  0  0  0  0  0
   17.5025  -52.2349   37.7330 C   0  0  0  0  0  0  0  0  0  0  0  0
   20.5606  -50.2561   36.1456 Cl  0  0  0  0  0  0  0  0  0  0  0  0
   12.5893  -59.1246   39.1867 C   0  0  0  0  0  0  0  0  0  0  0  0
   11.3065  -61.9863   36.4734 N   0  0  0  0  0  0  0  0  0  0  0  0
   11.3337  -60.6532   36.0550 C   0  0  0  0  0  0  0  0  0  0  0  0
   11.2595  -59.7054   37.2566 C   0  0  0  0  0  0  0  0  0  0  0  0
   12.2357  -60.0901   38.1959 N   0  0  0  0  0  0  0  0  0  0  0  0
   12.1231  -61.4236   38.6504 C   0  0  0  0  0  0  0  0  0  0  0  0
   11.0751  -62.1596   37.8462 C   0  0  0  0  0  0  0  0  0  0  0  0
   12.0036  -63.1911   35.5705 S   0  0  0  0  0  0  0  0  0  0  0  0
   10.8966  -64.0561   34.9761 O   0  0  0  0  0  0  0  0  0  0  0  0
   12.9405  -64.0524   36.3774 O   0  0  0  0  0  0  0  0  0  0  0  0
   12.8674  -62.5355   34.1976 C   0  0  0  0  0  0  0  0  0  0  0  0
   13.9523  -61.7129   34.2339 N   0  0  0  0  0  0  0  0  0  0  0  0
   14.3437  -61.4099   32.9949 C   0  0  0  0  0  0  0  0  0  0  0  0
   13.5400  -62.0171   32.1108 N   0  0  0  0  0  0  0  0  0  0  0  0
   12.6335  -62.7081   32.8547 C   0  0  0  0  0  0  0  0  0  0  0  0
   13.6001  -61.9671   31.0806 H   0  0  0  0  0  0  0  0  0  0  0  0
 25 26  2  0  0  0
 25 27  2  0  0  0
 25 19  1  0  0  0
 25 28  1  0  0  0
 19 20  1  0  0  0
 19 24  1  0  0  0
 20 21  1  0  0  0
 21 22  1  0  0  0
 22 23  1  0  0  0
 22 18  1  0  0  0
 23 24  1  0  0  0
 18  1  1  0  0  0
  1  2  2  0  0  0
  1 10  1  0  0  0
  2  3  1  0  0  0
  3  4  2  0  0  0
  3  5  1  0  0  0
  5  6  1  0  0  0
  5  9  1  0  0  0
  6  7  2  0  0  0
  7  8  1  0  0  0
  7 11  1  0  0  0
  8  9  1  0  0  0
  9 10  2  0  0  0
 11 12  2  0  0  0
 11 16  1  0  0  0
 12 13  1  0  0  0
 13 14  2  0  0  0
 14 15  1  0  0  0
 14 17  1  0  0  0
 15 16  2  0  0  0
 28 29  1  0  0  0
 28 32  2  0  0  0
 29 30  2  0  0  0
 30 31  1  0  0  0
 31 32  1  0  0  0
 31 33  1  0  0  0
M  END
> <minimizedAffinity>
-9.81910

$$$$
2285


 32 35  0  0  0  0  0  0  0  0999 V2000
   17.4061  -57.4125   32.8448 N   0  0  0  0  0  0  0  0  0  0  0  0
   17.0060  -56.2193   33.5292 C   0  0  0  0  0  0  0  0  0  0  0  0
   17.5272  -54.9213   32.8851 C   0  0  0  0  0  0  0  0  0  0  0  0
   18.9484  -55.0506   32.8037 N   0  0  0  0  0  0  0  0  0  0  0  0
   19.2432  -56.0775   31.8432 C   0  0  0  0  0  0  0  0  0  0  0  0
   18.8803  -57.3565   32.5461 C   0  0  0  0  0  0  0  0  0  0  0  0
   17.3242  -58.7084   34.0614 S   0  0  0  0  0  0  0  0  0  0  0  0
   16.9246  -59.9759   33.3300 O   0  0  0  0  0  0  0  0  0  0  0  0
   18.6746  -58.8793   34.6606 O   0  0  0  0  0  0  0  0  0  0  0  0
   16.1564  -58.3773   35.2797 C   0  0  0  0  0  0  0  0  0  0  0  0
   14.8538  -58.8027   34.9863 C   0  0  0  0  0  0  0  0  0  0  0  0
   13.7919  -58.7085   35.8897 C   0  0  0  0  0  0  0  0  0  0  0  0
   14.0460  -58.1641   37.1449 C   0  0  0  0  0  0  0  0  0  0  0  0
   15.3349  -57.7430   37.4167 C   0  0  0  0  0  0  0  0  0  0  0  0
   16.3835  -57.8452   36.5116 C   0  0  0  0  0  0  0  0  0  0  0  0
   12.9529  -58.1066   37.9894 O   0  0  0  0  0  0  0  0  0  0  0  0
   12.0303  -59.2289   37.9630 C   0  0  0  0  0  0  0  0  0  0  0  0
   11.7354  -59.7100   36.5811 C   0  0  0  0  0  0  0  0  0  0  0  0
   12.5163  -59.1352   35.5619 O   0  0  0  0  0  0  0  0  0  0  0  0
   19.7441  -53.9327   32.9831 C   0  0  0  0  0  0  0  0  0  0  0  0
   19.9581  -53.4648   34.3543 C   0  0  0  0  0  0  0  0  0  0  0  0
   20.3611  -52.2201   34.4051 O   0  0  0  0  0  0  0  0  0  0  0  0
   19.8079  -54.0760   35.5659 N   0  0  0  0  0  0  0  0  0  0  0  0
   19.5244  -55.1033   35.6961 H   0  0  0  0  0  0  0  0  0  0  0  0
   19.9601  -53.4145   36.8637 C   0  0  0  0  0  0  0  0  0  0  0  0
   18.6380  -53.3258   37.5158 C   0  0  0  0  0  0  0  0  0  0  0  0
   18.0129  -52.0751   37.7260 C   0  0  0  0  0  0  0  0  0  0  0  0
   16.8811  -51.9356   38.4340 C   0  0  0  0  0  0  0  0  0  0  0  0
   16.2462  -53.0778   39.0150 C   0  0  0  0  0  0  0  0  0  0  0  0
   16.8291  -54.2669   38.8340 C   0  0  0  0  0  0  0  0  0  0  0  0
   18.0114  -54.4398   38.1037 C   0  0  0  0  0  0  0  0  0  0  0  0
   18.7643  -50.6355   36.9943 Cl  0  0  0  0  0  0  0  0  0  0  0  0
  7  8  2  0  0  0
  7  9  2  0  0  0
  7  1  1  0  0  0
  7 10  1  0  0  0
  1  2  1  0  0  0
  1  6  1  0  0  0
  2  3  1  0  0  0
  3  4  1  0  0  0
  4  5  1  0  0  0
  4 20  1  0  0  0
  5  6  1  0  0  0
 20 21  1  0  0  0
 21 22  2  0  0  0
 21 23  1  0  0  0
 23 25  1  0  0  0
 25 26  1  0  0  0
 26 27  2  0  0  0
 26 31  1  0  0  0
 27 28  1  0  0  0
 27 32  1  0  0  0
 28 29  2  0  0  0
 29 30  1  0  0  0
 30 31  2  0  0  0
 10 11  2  0  0  0
 10 15  1  0  0  0
 11 12  1  0  0  0
 12 13  2  0  0  0
 12 19  1  0  0  0
 13 14  1  0  0  0
 13 16  1  0  0  0
 14 15  2  0  0  0
 16 17  1  0  0  0
 17 18  1  0  0  0
 18 19  1  0  0  0
 23 24  1  0  0  0
M  END
> <minimizedAffinity>
-10.43856

$$$$
2286


 31 34  0  0  0  0  0  0  0  0999 V2000
   16.6388  -58.7065   33.1060 N   0  0  0  0  0  0  0  0  0  0  0  0
   16.8313  -58.3061   31.7595 C   0  0  0  0  0  0  0  0  0  0  0  0
   17.3811  -56.9133   31.6018 C   0  0  0  0  0  0  0  0  0  0  0  0
   18.3834  -56.6049   32.5999 N   0  0  0  0  0  0  0  0  0  0  0  0
   18.8710  -57.7240   33.3834 C   0  0  0  0  0  0  0  0  0  0  0  0
   17.7383  -58.5194   33.9841 C   0  0  0  0  0  0  0  0  0  0  0  0
   18.8225  -55.2849   32.7600 C   0  0  0  0  0  0  0  0  0  0  0  0
   18.3379  -54.3875   32.0305 O   0  0  0  0  0  0  0  0  0  0  0  0
   15.1234  -58.2781   33.7750 S   0  0  0  0  0  0  0  0  0  0  0  0
   14.1185  -59.3372   33.4402 O   0  0  0  0  0  0  0  0  0  0  0  0
   14.6294  -56.9749   33.2201 O   0  0  0  0  0  0  0  0  0  0  0  0
   15.2216  -58.0730   35.5321 C   0  0  0  0  0  0  0  0  0  0  0  0
   14.5366  -56.8556   36.4990 S   0  0  0  0  0  0  0  0  0  0  0  0
   15.0860  -57.3709   38.0236 C   0  0  0  0  0  0  0  0  0  0  0  0
   15.8038  -58.5009   37.7359 C   0  0  0  0  0  0  0  0  0  0  0  0
   15.8737  -58.8668   36.4358 C   0  0  0  0  0  0  0  0  0  0  0  0
   14.8160  -56.6454   39.6229 Cl  0  0  0  0  0  0  0  0  0  0  0  0
   19.8476  -54.9031   33.7654 C   0  0  0  0  0  0  0  0  0  0  0  0
   19.2916  -54.1240   34.8367 N   0  0  0  0  0  0  0  0  0  0  0  0
   19.6940  -52.8020   35.1614 C   0  0  0  0  0  0  0  0  0  0  0  0
   20.5980  -52.1452   34.5432 O   0  0  0  0  0  0  0  0  0  0  0  0
   18.9653  -52.2894   36.2694 N   0  0  0  0  0  0  0  0  0  0  0  0
   18.2150  -53.3997   36.8261 C   0  0  0  0  0  0  0  0  0  0  0  0
   16.7716  -53.0549   37.0534 C   0  0  0  0  0  0  0  0  0  0  0  0
   16.5106  -52.3741   38.3645 C   0  0  0  0  0  0  0  0  0  0  0  0
   17.1137  -53.0809   39.5427 C   0  0  0  0  0  0  0  0  0  0  0  0
   17.9394  -54.2819   39.1365 C   0  0  0  0  0  0  0  0  0  0  0  0
   18.9288  -53.8284   38.0860 C   0  0  0  0  0  0  0  0  0  0  0  0
   18.2745  -54.4466   35.7755 C   0  0  0  0  0  0  0  0  0  0  0  0
   17.5571  -55.4718   35.6942 O   0  0  0  0  0  0  0  0  0  0  0  0
   18.9851  -50.9034   36.7359 C   0  0  0  0  0  0  0  0  0  0  0  0
  9 10  2  0  0  0
  9 11  2  0  0  0
  9  1  1  0  0  0
  9 12  1  0  0  0
  1  2  1  0  0  0
  1  6  1  0  0  0
  2  3  1  0  0  0
  3  4  1  0  0  0
  4  5  1  0  0  0
  4  7  1  0  0  0
  5  6  1  0  0  0
  7  8  2  0  0  0
  7 18  1  0  0  0
 18 19  1  0  0  0
 19 20  1  0  0  0
 19 29  1  0  0  0
 20 21  2  0  0  0
 20 22  1  0  0  0
 22 23  1  0  0  0
 22 31  1  0  0  0
 23 24  1  0  0  0
 23 28  1  0  0  0
 23 29  1  0  0  0
 24 25  1  0  0  0
 25 26  1  0  0  0
 26 27  1  0  0  0
 27 28  1  0  0  0
 29 30  2  0  0  0
 12 13  1  0  0  0
 12 16  2  0  0  0
 13 14  1  0  0  0
 14 15  2  0  0  0
 14 17  1  0  0  0
 15 16  1  0  0  0
M  END
> <minimizedAffinity>
-10.12219

$$$$
2298


 34 37  0  0  0  0  0  0  0  0999 V2000
   14.9724  -58.2524   37.0619 C   0  0  0  0  0  0  0  0  0  0  0  0
   14.9797  -59.2681   33.7011 N   0  0  0  0  0  0  0  0  0  0  0  0
   14.4099  -58.0166   33.5948 C   0  0  0  0  0  0  0  0  0  0  0  0
   14.3865  -57.3261   34.9318 C   0  0  0  0  0  0  0  0  0  0  0  0
   13.9822  -58.1253   36.0324 N   0  0  0  0  0  0  0  0  0  0  0  0
   13.4778  -59.3906   35.6048 C   0  0  0  0  0  0  0  0  0  0  0  0
   14.5025  -60.0967   34.7220 C   0  0  0  0  0  0  0  0  0  0  0  0
   16.1828  -59.8175   32.6945 S   0  0  0  0  0  0  0  0  0  0  0  0
   17.0490  -60.8883   33.3109 O   0  0  0  0  0  0  0  0  0  0  0  0
   15.6824  -60.4035   31.3932 O   0  0  0  0  0  0  0  0  0  0  0  0
   17.2739  -58.4956   32.2898 C   0  0  0  0  0  0  0  0  0  0  0  0
   18.1198  -57.9623   33.2224 C   0  0  0  0  0  0  0  0  0  0  0  0
   18.9704  -56.9340   32.9125 C   0  0  0  0  0  0  0  0  0  0  0  0
   18.9671  -56.4295   31.6304 C   0  0  0  0  0  0  0  0  0  0  0  0
   18.1131  -56.9659   30.6854 C   0  0  0  0  0  0  0  0  0  0  0  0
   17.2662  -57.9959   31.0068 C   0  0  0  0  0  0  0  0  0  0  0  0
   20.0678  -55.1127   31.2652 Cl  0  0  0  0  0  0  0  0  0  0  0  0
   16.2311  -57.5194   36.6963 C   0  0  0  0  0  0  0  0  0  0  0  0
   17.1417  -58.1902   36.1634 O   0  0  0  0  0  0  0  0  0  0  0  0
   16.3750  -56.1312   36.9449 N   0  0  0  0  0  0  0  0  0  0  0  0
   15.5670  -55.6240   37.3953 H   0  0  0  0  0  0  0  0  0  0  0  0
   17.6118  -55.5134   36.5637 C   0  0  0  0  0  0  0  0  0  0  0  0
   17.8176  -54.1137   36.9988 C   0  0  0  0  0  0  0  0  0  0  0  0
   18.3749  -54.0997   38.4011 C   0  0  0  0  0  0  0  0  0  0  0  0
   17.2715  -54.0258   39.4614 C   0  0  0  0  0  0  0  0  0  0  0  0
   16.5771  -52.6799   39.4004 C   0  0  0  0  0  0  0  0  0  0  0  0
   16.5988  -52.2255   37.9524 C   0  0  0  0  0  0  0  0  0  0  0  0
   16.4190  -53.4768   37.1190 C   0  0  0  0  0  0  0  0  0  0  0  0
   18.5693  -53.2604   36.1613 N   0  0  0  0  0  0  0  0  0  0  0  0
   19.7545  -52.6762   36.6807 C   0  0  0  0  0  0  0  0  0  0  0  0
   20.0903  -51.4997   35.7459 C   0  0  0  0  0  0  0  0  0  0  0  0
   20.3579  -51.9643   34.4807 O   0  0  0  0  0  0  0  0  0  0  0  0
   20.2244  -53.3219   34.3339 C   0  0  0  0  0  0  0  0  0  0  0  0
   18.8846  -53.8289   34.8686 C   0  0  0  0  0  0  0  0  0  0  0  0
  8  9  2  0  0  0
  8 10  2  0  0  0
  8  2  1  0  0  0
  8 11  1  0  0  0
  2  3  1  0  0  0
  2  7  1  0  0  0
  3  4  1  0  0  0
  4  5  1  0  0  0
  5  6  1  0  0  0
  5  1  1  0  0  0
  6  7  1  0  0  0
  1 18  1  0  0  0
 18 19  2  0  0  0
 18 20  1  0  0  0
 20 22  1  0  0  0
 22 23  1  0  0  0
 23 24  1  0  0  0
 23 28  1  0  0  0
 23 29  1  0  0  0
 24 25  1  0  0  0
 25 26  1  0  0  0
 26 27  1  0  0  0
 27 28  1  0  0  0
 29 30  1  0  0  0
 29 34  1  0  0  0
 30 31  1  0  0  0
 31 32  1  0  0  0
 32 33  1  0  0  0
 33 34  1  0  0  0
 11 12  2  0  0  0
 11 16  1  0  0  0
 12 13  1  0  0  0
 13 14  2  0  0  0
 14 15  1  0  0  0
 14 17  1  0  0  0
 15 16  2  0  0  0
 20 21  1  0  0  0
M  END
> <minimizedAffinity>
-9.34312

$$$$
2301


 24 27  0  0  0  0  0  0  0  0999 V2000
   17.2805  -56.6807   32.3559 C   0  0  0  0  0  0  0  0  0  0  0  0
   17.0688  -55.4793   33.2166 C   0  0  0  0  0  0  0  0  0  0  0  0
   17.8830  -55.5975   34.5169 C   0  0  0  0  0  0  0  0  0  0  0  0
   17.2595  -56.7492   35.1848 N   0  0  0  0  0  0  0  0  0  0  0  0
   17.4441  -57.9959   34.5118 C   0  0  0  0  0  0  0  0  0  0  0  0
   17.0514  -57.9634   33.0636 C   0  0  0  0  0  0  0  0  0  0  0  0
   16.3088  -56.5887   31.3266 O   0  0  0  0  0  0  0  0  0  0  0  0
   15.4595  -56.9816   31.6981 H   0  0  0  0  0  0  0  0  0  0  0  0
   16.5527  -56.5364   36.3928 C   0  0  0  0  0  0  0  0  0  0  0  0
   16.5066  -55.3033   36.9256 N   0  0  0  0  0  0  0  0  0  0  0  0
   15.8741  -54.9767   38.0356 N   0  0  0  0  0  0  0  0  0  0  0  0
   15.6971  -53.8469   38.7258 N   0  0  0  0  0  0  0  0  0  0  0  0
   14.9618  -54.0669   39.7926 N   0  0  0  0  0  0  0  0  0  0  0  0
   14.6552  -55.3352   39.8009 N   0  0  0  0  0  0  0  0  0  0  0  0
   15.2169  -55.9165   38.7125 C   0  0  0  0  0  0  0  0  0  0  0  0
   15.2191  -57.2121   38.2249 C   0  0  0  0  0  0  0  0  0  0  0  0
   15.8866  -57.5355   37.0625 C   0  0  0  0  0  0  0  0  0  0  0  0
   22.5782  -56.6234   29.4731 Cl  0  0  0  0  0  0  0  0  0  0  0  0
   21.0371  -56.6187   30.3053 C   0  0  0  0  0  0  0  0  0  0  0  0
   20.4292  -55.4441   30.7283 C   0  0  0  0  0  0  0  0  0  0  0  0
   19.2321  -55.4022   31.3876 C   0  0  0  0  0  0  0  0  0  0  0  0
   18.5719  -56.5659   31.6586 C   0  0  0  0  0  0  0  0  0  0  0  0
   19.1555  -57.7623   31.2446 C   0  0  0  0  0  0  0  0  0  0  0  0
   20.3666  -57.7842   30.5805 C   0  0  0  0  0  0  0  0  0  0  0  0
 18 19  1  0  0  0
 19 20  2  0  0  0
 19 24  1  0  0  0
 20 21  1  0  0  0
 21 22  2  0  0  0
 22 23  1  0  0  0
 22  1  1  0  0  0
 23 24  2  0  0  0
  1  2  1  0  0  0
  1  6  1  0  0  0
  1  7  1  0  0  0
  2  3  1  0  0  0
  3  4  1  0  0  0
  4  5  1  0  0  0
  4  9  1  0  0  0
  5  6  1  0  0  0
  9 10  2  0  0  0
  9 17  1  0  0  0
 10 11  1  0  0  0
 11 12  1  0  0  0
 11 15  1  0  0  0
 12 13  2  0  0  0
 13 14  1  0  0  0
 14 15  2  0  0  0
 15 16  1  0  0  0
 16 17  2  0  0  0
  7  8  1  0  0  0
M  END
> <minimizedAffinity>
-8.91912

$$$$
2304


 28 31  0  0  0  0  0  0  0  0999 V2000
   15.2576  -58.9358   34.6855 N   0  0  0  0  0  0  0  0  0  0  0  0
   15.2005  -58.7656   36.0876 C   0  0  0  0  0  0  0  0  0  0  0  0
   16.1920  -57.7809   36.6493 C   0  0  0  0  0  0  0  0  0  0  0  0
   16.3123  -56.5880   35.8589 N   0  0  0  0  0  0  0  0  0  0  0  0
   15.7097  -56.6078   34.5496 C   0  0  0  0  0  0  0  0  0  0  0  0
   16.0080  -57.9792   33.9501 C   0  0  0  0  0  0  0  0  0  0  0  0
   16.9978  -55.4719   36.3662 C   0  0  0  0  0  0  0  0  0  0  0  0
   17.4964  -55.5763   37.5226 O   0  0  0  0  0  0  0  0  0  0  0  0
   17.1694  -54.1884   35.6316 C   0  0  0  0  0  0  0  0  0  0  0  0
   18.3008  -54.2159   34.7793 N   0  0  0  0  0  0  0  0  0  0  0  0
   19.5367  -53.7838   35.3463 C   0  0  0  0  0  0  0  0  0  0  0  0
   19.0116  -52.5479   36.5521 S   0  0  0  0  0  0  0  0  0  0  0  0
   17.2332  -53.0061   36.5519 C   0  0  0  0  0  0  0  0  0  0  0  0
   20.1887  -53.0383   34.1976 C   0  0  0  0  0  0  0  0  0  0  0  0
   19.9540  -54.0658   33.0825 C   0  0  0  0  0  0  0  0  0  0  0  0
   18.6257  -54.5737   33.4159 C   0  0  0  0  0  0  0  0  0  0  0  0
   17.8998  -55.2244   32.6053 O   0  0  0  0  0  0  0  0  0  0  0  0
   20.4077  -54.8382   35.9029 C   0  0  0  0  0  0  0  0  0  0  0  0
   13.8276  -59.4750   33.9483 S   0  0  0  0  0  0  0  0  0  0  0  0
   13.1141  -58.3467   33.2723 O   0  0  0  0  0  0  0  0  0  0  0  0
   14.1930  -60.4643   32.8693 O   0  0  0  0  0  0  0  0  0  0  0  0
   12.7557  -60.3201   35.0613 C   0  0  0  0  0  0  0  0  0  0  0  0
   11.9138  -59.6150   35.8923 C   0  0  0  0  0  0  0  0  0  0  0  0
   11.0658  -60.2435   36.7736 C   0  0  0  0  0  0  0  0  0  0  0  0
   11.0194  -61.6230   36.8661 C   0  0  0  0  0  0  0  0  0  0  0  0
   11.8773  -62.3037   36.0183 C   0  0  0  0  0  0  0  0  0  0  0  0
   12.7283  -61.6897   35.1335 C   0  0  0  0  0  0  0  0  0  0  0  0
    9.9524  -62.4560   37.9770 Cl  0  0  0  0  0  0  0  0  0  0  0  0
 19 20  2  0  0  0
 19 21  2  0  0  0
 19  1  1  0  0  0
 19 22  1  0  0  0
  1  2  1  0  0  0
  1  6  1  0  0  0
  2  3  1  0  0  0
  3  4  1  0  0  0
  4  5  1  0  0  0
  4  7  1  0  0  0
  5  6  1  0  0  0
  7  8  2  0  0  0
  7  9  1  0  0  0
  9 10  1  0  0  0
  9 13  1  0  0  0
 10 11  1  0  0  0
 10 16  1  0  0  0
 11 12  1  0  0  0
 11 14  1  0  0  0
 11 18  1  0  0  0
 12 13  1  0  0  0
 14 15  1  0  0  0
 15 16  1  0  0  0
 16 17  2  0  0  0
 22 23  2  0  0  0
 22 27  1  0  0  0
 23 24  1  0  0  0
 24 25  2  0  0  0
 25 26  1  0  0  0
 25 28  1  0  0  0
 26 27  2  0  0  0
M  END
> <minimizedAffinity>
-8.42375

$$$$
2319


 33 36  0  0  0  0  0  0  0  0999 V2000
   15.9745  -56.6516   34.0085 N   0  0  0  0  0  0  0  0  0  0  0  0
   16.7286  -56.5545   32.8180 C   0  0  0  0  0  0  0  0  0  0  0  0
   16.5334  -57.3526   31.8779 O   0  0  0  0  0  0  0  0  0  0  0  0
   16.0837  -56.0215   34.8315 H   0  0  0  0  0  0  0  0  0  0  0  0
   12.0312  -60.1966   39.2463 Br  0  0  0  0  0  0  0  0  0  0  0  0
   12.3652  -60.0757   37.3655 C   0  0  0  0  0  0  0  0  0  0  0  0
   13.2701  -59.1725   36.8464 C   0  0  0  0  0  0  0  0  0  0  0  0
   13.5215  -59.0777   35.4882 C   0  0  0  0  0  0  0  0  0  0  0  0
   12.8177  -59.9358   34.6717 C   0  0  0  0  0  0  0  0  0  0  0  0
   11.9064  -60.8491   35.1522 C   0  0  0  0  0  0  0  0  0  0  0  0
   11.6667  -60.9318   36.5141 C   0  0  0  0  0  0  0  0  0  0  0  0
   10.9633  -62.0122   33.9641 Br  0  0  0  0  0  0  0  0  0  0  0  0
   14.5161  -58.0522   35.2104 C   0  0  0  0  0  0  0  0  0  0  0  0
   15.0141  -57.6638   34.0969 N   0  0  0  0  0  0  0  0  0  0  0  0
   14.8841  -57.4941   36.5163 C   0  0  0  0  0  0  0  0  0  0  0  0
   15.7293  -56.5725   36.6731 O   0  0  0  0  0  0  0  0  0  0  0  0
   14.1081  -58.2010   37.4632 N   0  0  0  0  0  0  0  0  0  0  0  0
   14.1424  -58.0342   38.4831 H   0  0  0  0  0  0  0  0  0  0  0  0
   17.7830  -55.5100   32.6211 C   0  0  0  0  0  0  0  0  0  0  0  0
   18.2661  -54.9914   33.8713 N   0  0  0  0  0  0  0  0  0  0  0  0
   19.4672  -54.2396   33.9827 C   0  0  0  0  0  0  0  0  0  0  0  0
   20.1292  -54.0216   32.9446 O   0  0  0  0  0  0  0  0  0  0  0  0
   17.7420  -55.1492   34.7639 H   0  0  0  0  0  0  0  0  0  0  0  0
   19.9833  -53.6968   35.2750 C   0  0  0  0  0  0  0  0  0  0  0  0
   19.3806  -54.3093   36.3762 O   0  0  0  0  0  0  0  0  0  0  0  0
   18.4784  -53.6891   37.2377 C   0  0  0  0  0  0  0  0  0  0  0  0
   18.4581  -52.3193   37.2346 C   0  0  0  0  0  0  0  0  0  0  0  0
   17.5651  -51.6713   38.0882 C   0  0  0  0  0  0  0  0  0  0  0  0
   16.7137  -52.3559   38.9252 C   0  0  0  0  0  0  0  0  0  0  0  0
   16.7629  -53.7362   38.9007 C   0  0  0  0  0  0  0  0  0  0  0  0
   17.6410  -54.3806   38.0610 C   0  0  0  0  0  0  0  0  0  0  0  0
   19.3004  -51.6297   36.4069 O   0  0  0  0  0  0  0  0  0  0  0  0
   19.9650  -52.2090   35.3183 C   0  0  0  0  0  0  0  0  0  0  0  0
  5  6  1  0  0  0
  6  7  2  0  0  0
  6 11  1  0  0  0
  7  8  1  0  0  0
  7 17  1  0  0  0
  8  9  2  0  0  0
  8 13  1  0  0  0
  9 10  1  0  0  0
 10 11  2  0  0  0
 10 12  1  0  0  0
 13 14  2  0  0  0
 13 15  1  0  0  0
 14  1  1  0  0  0
  1  2  1  0  0  0
  2  3  2  0  0  0
  2 19  1  0  0  0
 19 20  1  0  0  0
 20 21  1  0  0  0
 21 22  2  0  0  0
 21 24  1  0  0  0
 24 25  1  0  0  0
 24 33  1  0  0  0
 25 26  1  0  0  0
 26 27  2  0  0  0
 26 31  1  0  0  0
 27 28  1  0  0  0
 27 32  1  0  0  0
 28 29  2  0  0  0
 29 30  1  0  0  0
 30 31  2  0  0  0
 32 33  1  0  0  0
 15 16  2  0  0  0
 15 17  1  0  0  0
  1  4  1  0  0  0
 20 23  1  0  0  0
 17 18  1  0  0  0
M  END
> <minimizedAffinity>
-10.21123

$$$$
2330


 28 31  0  0  0  0  0  0  0  0999 V2000
   18.6437  -54.5443   35.0430 C   0  0  0  0  0  0  0  0  0  0  0  0
   19.7365  -54.9552   35.4962 O   0  0  0  0  0  0  0  0  0  0  0  0
   18.0323  -53.4357   35.6312 N   0  0  0  0  0  0  0  0  0  0  0  0
   17.1002  -53.1579   35.1566 H   0  0  0  0  0  0  0  0  0  0  0  0
   20.0145  -54.1506   32.4168 Cl  0  0  0  0  0  0  0  0  0  0  0  0
   18.6081  -55.1825   32.6303 C   0  0  0  0  0  0  0  0  0  0  0  0
   18.0720  -55.2762   33.8978 C   0  0  0  0  0  0  0  0  0  0  0  0
   16.9691  -56.0904   34.0440 C   0  0  0  0  0  0  0  0  0  0  0  0
   16.3894  -56.7966   33.0225 C   0  0  0  0  0  0  0  0  0  0  0  0
   16.9701  -56.6677   31.7559 C   0  0  0  0  0  0  0  0  0  0  0  0
   18.0672  -55.8737   31.5487 C   0  0  0  0  0  0  0  0  0  0  0  0
   15.2237  -57.6507   33.1991 C   0  0  0  0  0  0  0  0  0  0  0  0
   15.1356  -58.9838   33.1764 N   0  0  0  0  0  0  0  0  0  0  0  0
   13.8583  -59.3402   33.3881 N   0  0  0  0  0  0  0  0  0  0  0  0
   13.1435  -58.2398   33.5431 N   0  0  0  0  0  0  0  0  0  0  0  0
   13.9787  -57.2049   33.4288 N   0  0  0  0  0  0  0  0  0  0  0  0
   13.4748  -60.3124   33.4266 H   0  0  0  0  0  0  0  0  0  0  0  0
   18.4169  -52.6335   36.7195 C   0  0  0  0  0  0  0  0  0  0  0  0
   18.2990  -53.1196   38.1002 C   0  0  0  0  0  0  0  0  0  0  0  0
   16.9987  -53.5519   38.6053 C   0  0  0  0  0  0  0  0  0  0  0  0
   16.3802  -54.7165   38.3826 N   0  0  0  0  0  0  0  0  0  0  0  0
   15.2430  -54.7197   39.0597 C   0  0  0  0  0  0  0  0  0  0  0  0
   15.1514  -53.5510   39.7077 N   0  0  0  0  0  0  0  0  0  0  0  0
   16.2155  -52.8477   39.4302 N   0  0  0  0  0  0  0  0  0  0  0  0
   14.3709  -55.7872   39.0382 C   0  0  0  0  0  0  0  0  0  0  0  0
   14.7255  -56.8814   38.2707 C   0  0  0  0  0  0  0  0  0  0  0  0
   15.9031  -56.8686   37.5738 C   0  0  0  0  0  0  0  0  0  0  0  0
   16.7261  -55.7830   37.6352 C   0  0  0  0  0  0  0  0  0  0  0  0
  5  6  1  0  0  0
  6  7  2  0  0  0
  6 11  1  0  0  0
  7  8  1  0  0  0
  7  1  1  0  0  0
  8  9  2  0  0  0
  9 10  1  0  0  0
  9 12  1  0  0  0
 10 11  2  0  0  0
 12 13  2  0  0  0
 12 16  1  0  0  0
 13 14  1  0  0  0
 14 15  1  0  0  0
 15 16  2  0  0  0
  1  2  2  0  0  0
  1  3  1  0  0  0
  3 18  1  0  0  0
 18 19  1  0  0  0
 19 20  1  0  0  0
 20 21  1  0  0  0
 20 24  2  0  0  0
 21 22  1  0  0  0
 21 28  1  0  0  0
 22 23  2  0  0  0
 22 25  1  0  0  0
 23 24  1  0  0  0
 25 26  2  0  0  0
 26 27  1  0  0  0
 27 28  2  0  0  0
 14 17  1  0  0  0
  3  4  1  0  0  0
M  END
> <minimizedAffinity>
-9.89672

$$$$
2334


 30 33  0  0  0  0  0  0  0  0999 V2000
   19.5706  -53.9399   35.2679 S   0  0  0  0  0  0  0  0  0  0  0  0
   20.7209  -54.7323   35.8936 O   0  0  0  0  0  0  0  0  0  0  0  0
   20.2595  -52.7289   34.6280 O   0  0  0  0  0  0  0  0  0  0  0  0
   18.5236  -53.3643   36.4954 C   0  0  0  0  0  0  0  0  0  0  0  0
   18.5458  -52.0657   36.9418 C   0  0  0  0  0  0  0  0  0  0  0  0
   17.6280  -51.6438   37.8921 C   0  0  0  0  0  0  0  0  0  0  0  0
   16.6703  -52.5162   38.4167 C   0  0  0  0  0  0  0  0  0  0  0  0
   16.6387  -53.8216   37.9803 C   0  0  0  0  0  0  0  0  0  0  0  0
   17.5566  -54.2204   37.0374 C   0  0  0  0  0  0  0  0  0  0  0  0
   19.7418  -50.8924   36.4339 Cl  0  0  0  0  0  0  0  0  0  0  0  0
   15.6522  -54.7524   38.5117 C   0  0  0  0  0  0  0  0  0  0  0  0
   14.9103  -54.5749   39.6179 N   0  0  0  0  0  0  0  0  0  0  0  0
   14.1314  -55.6053   39.8002 O   0  0  0  0  0  0  0  0  0  0  0  0
   14.3356  -56.4679   38.8404 C   0  0  0  0  0  0  0  0  0  0  0  0
   15.2798  -55.9500   38.0318 N   0  0  0  0  0  0  0  0  0  0  0  0
   13.6524  -57.7958   38.6599 C   0  0  0  0  0  0  0  0  0  0  0  0
   18.9004  -54.9300   34.0673 N   0  0  0  0  0  0  0  0  0  0  0  0
   17.4916  -54.8700   33.9030 C   0  0  0  0  0  0  0  0  0  0  0  0
   16.9815  -55.7573   32.7915 C   0  0  0  0  0  0  0  0  0  0  0  0
   17.6704  -55.4351   31.5103 C   0  0  0  0  0  0  0  0  0  0  0  0
   19.1798  -55.3989   31.6769 C   0  0  0  0  0  0  0  0  0  0  0  0
   19.5186  -54.4840   32.8015 C   0  0  0  0  0  0  0  0  0  0  0  0
   16.9398  -57.1930   33.1348 C   0  0  0  0  0  0  0  0  0  0  0  0
   18.0699  -57.8033   33.0624 O   0  0  0  0  0  0  0  0  0  0  0  0
   15.8357  -57.9391   33.5227 N   0  0  0  0  0  0  0  0  0  0  0  0
   15.9433  -59.3227   33.8652 C   0  0  0  0  0  0  0  0  0  0  0  0
   15.0299  -59.7422   34.9830 C   0  0  0  0  0  0  0  0  0  0  0  0
   13.9246  -58.9698   35.1587 O   0  0  0  0  0  0  0  0  0  0  0  0
   14.0953  -57.6055   35.0477 C   0  0  0  0  0  0  0  0  0  0  0  0
   14.5134  -57.3660   33.5872 C   0  0  0  0  0  0  0  0  0  0  0  0
  1  2  2  0  0  0
  1  3  2  0  0  0
  1 17  1  0  0  0
  1  4  1  0  0  0
 17 18  1  0  0  0
 17 22  1  0  0  0
 18 19  1  0  0  0
 19 20  1  0  0  0
 19 23  1  0  0  0
 20 21  1  0  0  0
 21 22  1  0  0  0
 23 24  2  0  0  0
 23 25  1  0  0  0
 25 26  1  0  0  0
 25 30  1  0  0  0
 26 27  1  0  0  0
 27 28  1  0  0  0
 28 29  1  0  0  0
 29 30  1  0  0  0
  4  5  2  0  0  0
  4  9  1  0  0  0
  5  6  1  0  0  0
  5 10  1  0  0  0
  6  7  2  0  0  0
  7  8  1  0  0  0
  8  9  2  0  0  0
  8 11  1  0  0  0
 11 12  2  0  0  0
 11 15  1  0  0  0
 12 13  1  0  0  0
 13 14  1  0  0  0
 14 15  2  0  0  0
 14 16  1  0  0  0
M  END
> <minimizedAffinity>
-10.85499

$$$$
2335


 35 38  0  0  0  0  0  0  0  0999 V2000
   16.8752  -57.4579   34.2060 N   0  0  0  0  0  0  0  0  0  0  0  0
   15.5618  -57.7166   33.7663 C   0  0  0  0  0  0  0  0  0  0  0  0
   14.5084  -57.4709   34.8246 C   0  0  0  0  0  0  0  0  0  0  0  0
   14.9925  -57.6387   36.2137 C   0  0  0  0  0  0  0  0  0  0  0  0
   16.2721  -58.3689   36.4001 C   0  0  0  0  0  0  0  0  0  0  0  0
   17.3251  -58.1175   35.3511 C   0  0  0  0  0  0  0  0  0  0  0  0
   13.3146  -58.3236   34.5925 C   0  0  0  0  0  0  0  0  0  0  0  0
   12.8427  -58.3725   33.4302 O   0  0  0  0  0  0  0  0  0  0  0  0
   12.7255  -59.0702   35.6808 N   0  0  0  0  0  0  0  0  0  0  0  0
   13.1819  -58.9525   36.5889 H   0  0  0  0  0  0  0  0  0  0  0  0
   11.5892  -59.8647   35.3862 C   0  0  0  0  0  0  0  0  0  0  0  0
   11.7770  -61.3027   35.0832 C   0  0  0  0  0  0  0  0  0  0  0  0
   11.7556  -61.7343   33.7352 N   0  0  0  0  0  0  0  0  0  0  0  0
   10.7241  -62.5699   33.3242 C   0  0  0  0  0  0  0  0  0  0  0  0
   11.1075  -63.9645   32.9211 C   0  0  0  0  0  0  0  0  0  0  0  0
   12.2950  -64.0055   32.2057 O   0  0  0  0  0  0  0  0  0  0  0  0
   13.2915  -63.5499   33.0684 C   0  0  0  0  0  0  0  0  0  0  0  0
   13.0732  -62.0648   33.2442 C   0  0  0  0  0  0  0  0  0  0  0  0
   17.8145  -56.3424   33.4089 S   0  0  0  0  0  0  0  0  0  0  0  0
   17.0758  -55.8925   32.1497 O   0  0  0  0  0  0  0  0  0  0  0  0
   19.0473  -57.0520   32.8624 O   0  0  0  0  0  0  0  0  0  0  0  0
   18.3376  -54.9721   34.3167 C   0  0  0  0  0  0  0  0  0  0  0  0
   17.7239  -54.6560   35.5192 C   0  0  0  0  0  0  0  0  0  0  0  0
   18.1114  -53.5843   36.2865 C   0  0  0  0  0  0  0  0  0  0  0  0
   19.1650  -52.7790   35.8381 C   0  0  0  0  0  0  0  0  0  0  0  0
   19.7586  -53.0961   34.6606 C   0  0  0  0  0  0  0  0  0  0  0  0
   19.3670  -54.1774   33.8887 C   0  0  0  0  0  0  0  0  0  0  0  0
   20.2844  -54.5273   32.2271 Br  0  0  0  0  0  0  0  0  0  0  0  0
   19.4250  -51.6799   36.8071 C   0  0  0  0  0  0  0  0  0  0  0  0
   18.1062  -51.6107   37.5497 C   0  0  0  0  0  0  0  0  0  0  0  0
   17.7054  -53.0222   37.5264 N   0  0  0  0  0  0  0  0  0  0  0  0
   17.0418  -53.6465   38.5806 C   0  0  0  0  0  0  0  0  0  0  0  0
   16.7963  -52.9911   39.6516 O   0  0  0  0  0  0  0  0  0  0  0  0
   16.5921  -55.0367   38.5562 C   0  0  0  0  0  0  0  0  0  0  0  0
   15.1093  -55.1646   38.8965 C   0  0  0  0  0  0  0  0  0  0  0  0
 19 20  2  0  0  0
 19 21  2  0  0  0
 19  1  1  0  0  0
 19 22  1  0  0  0
  1  2  1  0  0  0
  1  6  1  0  0  0
  2  3  1  0  0  0
  3  4  1  0  0  0
  3  7  1  0  0  0
  4  5  1  0  0  0
  5  6  1  0  0  0
  7  8  2  0  0  0
  7  9  1  0  0  0
  9 11  1  0  0  0
 11 12  1  0  0  0
 12 13  1  0  0  0
 13 14  1  0  0  0
 13 18  1  0  0  0
 14 15  1  0  0  0
 15 16  1  0  0  0
 16 17  1  0  0  0
 17 18  1  0  0  0
 22 23  2  0  0  0
 22 27  1  0  0  0
 23 24  1  0  0  0
 24 25  2  0  0  0
 24 31  1  0  0  0
 25 26  1  0  0  0
 25 29  1  0  0  0
 26 27  2  0  0  0
 27 28  1  0  0  0
 29 30  1  0  0  0
 30 31  1  0  0  0
 31 32  1  0  0  0
 32 33  2  0  0  0
 32 34  1  0  0  0
 34 35  1  0  0  0
  9 10  1  0  0  0
M  END
> <minimizedAffinity>
-9.94534

$$$$
2345


 27 30  0  0  0  0  0  0  0  0999 V2000
   18.8239  -52.3455   37.2205 C   0  0  0  0  0  0  0  0  0  0  0  0
   18.7149  -51.0796   37.0124 O   0  0  0  0  0  0  0  0  0  0  0  0
   19.5145  -53.0739   36.2463 N   0  0  0  0  0  0  0  0  0  0  0  0
   20.0519  -52.4031   35.0735 C   0  0  0  0  0  0  0  0  0  0  0  0
   19.4983  -53.0299   33.7977 C   0  0  0  0  0  0  0  0  0  0  0  0
   19.3279  -54.4376   34.0058 N   0  0  0  0  0  0  0  0  0  0  0  0
   20.1479  -55.0934   34.9783 C   0  0  0  0  0  0  0  0  0  0  0  0
   19.7354  -54.4976   36.3388 C   0  0  0  0  0  0  0  0  0  0  0  0
   16.5995  -54.6069   38.4604 N   0  0  0  0  0  0  0  0  0  0  0  0
   18.0363  -54.3608   38.4851 C   0  0  0  0  0  0  0  0  0  0  0  0
   18.2125  -52.8684   38.4483 C   0  0  0  0  0  0  0  0  0  0  0  0
   16.9036  -52.2618   38.8300 C   0  0  0  0  0  0  0  0  0  0  0  0
   16.0011  -53.4203   39.0257 C   0  0  0  0  0  0  0  0  0  0  0  0
   14.8587  -53.4733   39.5875 O   0  0  0  0  0  0  0  0  0  0  0  0
   13.7265  -59.4747   36.4548 Cl  0  0  0  0  0  0  0  0  0  0  0  0
   14.5664  -58.0423   37.0482 C   0  0  0  0  0  0  0  0  0  0  0  0
   14.1651  -57.4216   38.2012 C   0  0  0  0  0  0  0  0  0  0  0  0
   14.8326  -56.2992   38.6555 C   0  0  0  0  0  0  0  0  0  0  0  0
   15.9114  -55.7606   37.9879 C   0  0  0  0  0  0  0  0  0  0  0  0
   16.3047  -56.3964   36.8294 C   0  0  0  0  0  0  0  0  0  0  0  0
   15.6336  -57.5349   36.3603 C   0  0  0  0  0  0  0  0  0  0  0  0
   18.3661  -55.1675   33.2754 C   0  0  0  0  0  0  0  0  0  0  0  0
   18.5427  -55.7604   32.0622 N   0  0  0  0  0  0  0  0  0  0  0  0
   17.4015  -56.3620   31.7013 C   0  0  0  0  0  0  0  0  0  0  0  0
   16.4733  -56.1538   32.6939 C   0  0  0  0  0  0  0  0  0  0  0  0
   17.0900  -55.4356   33.6158 N   0  0  0  0  0  0  0  0  0  0  0  0
   19.7844  -55.7390   31.2776 C   0  0  0  0  0  0  0  0  0  0  0  0
 15 16  1  0  0  0
 16 17  2  0  0  0
 16 21  1  0  0  0
 17 18  1  0  0  0
 18 19  2  0  0  0
 19 20  1  0  0  0
 19  9  1  0  0  0
 20 21  2  0  0  0
  9 10  1  0  0  0
  9 13  1  0  0  0
 10 11  1  0  0  0
 11 12  1  0  0  0
 11  1  1  0  0  0
 12 13  1  0  0  0
 13 14  2  0  0  0
  1  2  2  0  0  0
  1  3  1  0  0  0
  3  4  1  0  0  0
  3  8  1  0  0  0
  4  5  1  0  0  0
  5  6  1  0  0  0
  6  7  1  0  0  0
  6 22  1  0  0  0
  7  8  1  0  0  0
 22 23  1  0  0  0
 22 26  2  0  0  0
 23 24  1  0  0  0
 23 27  1  0  0  0
 24 25  2  0  0  0
 25 26  1  0  0  0
M  END
> <minimizedAffinity>
-8.94714

$$$$
2349


 28 31  0  0  0  0  0  0  0  0999 V2000
   15.8835  -60.1782   32.7993 N   0  0  0  0  0  0  0  0  0  0  0  0
   14.4576  -60.3148   32.7118 C   0  0  0  0  0  0  0  0  0  0  0  0
   13.9768  -61.3793   32.2307 O   0  0  0  0  0  0  0  0  0  0  0  0
   13.6817  -59.2258   33.1809 N   0  0  0  0  0  0  0  0  0  0  0  0
   14.1430  -58.1546   33.6553 C   0  0  0  0  0  0  0  0  0  0  0  0
   15.6007  -57.8194   33.8094 C   0  0  0  0  0  0  0  0  0  0  0  0
   15.8256  -56.6716   32.8659 C   0  0  0  0  0  0  0  0  0  0  0  0
   16.9087  -55.8084   33.1386 N   0  0  0  0  0  0  0  0  0  0  0  0
   17.1203  -55.4815   34.4988 C   0  0  0  0  0  0  0  0  0  0  0  0
   16.6109  -56.2740   35.4767 C   0  0  0  0  0  0  0  0  0  0  0  0
   16.8415  -55.9210   36.8036 C   0  0  0  0  0  0  0  0  0  0  0  0
   17.5721  -54.7877   37.0980 C   0  0  0  0  0  0  0  0  0  0  0  0
   18.0910  -53.9787   36.0985 C   0  0  0  0  0  0  0  0  0  0  0  0
   17.8529  -54.3438   34.7746 C   0  0  0  0  0  0  0  0  0  0  0  0
   17.8281  -54.3757   38.5148 C   0  0  0  0  0  0  0  0  0  0  0  0
   15.8237  -57.5033   35.2382 C   0  0  0  0  0  0  0  0  0  0  0  0
   18.1731  -56.1761   32.5204 C   0  0  0  0  0  0  0  0  0  0  0  0
   16.4011  -58.9816   33.3525 C   0  0  0  0  0  0  0  0  0  0  0  0
   17.6811  -58.9630   33.4429 O   0  0  0  0  0  0  0  0  0  0  0  0
   13.2718  -57.1416   34.0975 O   0  0  0  0  0  0  0  0  0  0  0  0
   16.6712  -54.8699   32.6812 H   0  0  0  0  0  0  0  0  0  0  0  0
   19.2533  -64.6440   30.5766 Cl  0  0  0  0  0  0  0  0  0  0  0  0
   18.2615  -63.3619   31.2459 C   0  0  0  0  0  0  0  0  0  0  0  0
   17.9538  -62.2299   30.4906 C   0  0  0  0  0  0  0  0  0  0  0  0
   17.1879  -61.2161   30.9995 C   0  0  0  0  0  0  0  0  0  0  0  0
   16.6668  -61.2412   32.2947 C   0  0  0  0  0  0  0  0  0  0  0  0
   16.9771  -62.3698   33.0356 C   0  0  0  0  0  0  0  0  0  0  0  0
   17.7461  -63.3887   32.5271 C   0  0  0  0  0  0  0  0  0  0  0  0
 22 23  1  0  0  0
 23 24  2  0  0  0
 23 28  1  0  0  0
 24 25  1  0  0  0
 25 26  2  0  0  0
 26 27  1  0  0  0
 26  1  1  0  0  0
 27 28  2  0  0  0
  1  2  1  0  0  0
  1 18  1  0  0  0
  2  3  2  0  0  0
  2  4  1  0  0  0
  4  5  2  0  0  0
  5  6  1  0  0  0
  5 20  1  0  0  0
  6  7  1  0  0  0
  6 16  1  0  0  0
  6 18  1  0  0  0
  7  8  1  0  0  0
  8  9  1  0  0  0
  8 17  1  0  0  0
  9 10  2  0  0  0
  9 14  1  0  0  0
 10 11  1  0  0  0
 10 16  1  0  0  0
 11 12  2  0  0  0
 12 13  1  0  0  0
 12 15  1  0  0  0
 13 14  2  0  0  0
 18 19  2  0  0  0
  8 21  1  0  0  0
M  CHG 1   8   1
M  CHG 1  20  -1
M  END
> <minimizedAffinity>
-9.34516

$$$$
2350


 23 26  0  0  0  0  0  0  0  0999 V2000
   17.4998  -56.9327   33.8223 N   0  0  0  0  0  0  0  0  0  0  0  0
   16.6599  -57.0427   32.6615 C   0  0  0  0  0  0  0  0  0  0  0  0
   15.5989  -56.3861   32.5125 O   0  0  0  0  0  0  0  0  0  0  0  0
   17.2217  -58.0211   31.6971 C   0  0  0  0  0  0  0  0  0  0  0  0
   17.6295  -57.4155   30.3934 C   0  0  0  0  0  0  0  0  0  0  0  0
   18.0539  -55.9886   30.6710 C   0  0  0  0  0  0  0  0  0  0  0  0
   19.2960  -56.2044   31.5341 C   0  0  0  0  0  0  0  0  0  0  0  0
   19.5407  -57.6954   31.5472 C   0  0  0  0  0  0  0  0  0  0  0  0
   18.5368  -58.4537   32.3575 C   0  0  0  0  0  0  0  0  0  0  0  0
   18.4272  -58.0050   33.7666 C   0  0  0  0  0  0  0  0  0  0  0  0
   19.0625  -58.5132   34.7227 O   0  0  0  0  0  0  0  0  0  0  0  0
   19.0164  -58.0265   30.1315 C   0  0  0  0  0  0  0  0  0  0  0  0
   20.4204  -55.6347   30.9403 O   0  0  0  0  0  0  0  0  0  0  0  0
   18.4663  -55.4310   29.4801 O   0  0  0  0  0  0  0  0  0  0  0  0
   20.5063  -54.7024   31.3031 H   0  0  0  0  0  0  0  0  0  0  0  0
   17.8772  -55.6068   28.7102 H   0  0  0  0  0  0  0  0  0  0  0  0
   17.4083  -52.7915   38.1562 Cl  0  0  0  0  0  0  0  0  0  0  0  0
   17.4230  -54.0173   36.8899 C   0  0  0  0  0  0  0  0  0  0  0  0
   17.9768  -53.7415   35.6542 C   0  0  0  0  0  0  0  0  0  0  0  0
   18.0019  -54.6833   34.6536 C   0  0  0  0  0  0  0  0  0  0  0  0
   17.4638  -55.9598   34.8573 C   0  0  0  0  0  0  0  0  0  0  0  0
   16.9217  -56.1978   36.0986 C   0  0  0  0  0  0  0  0  0  0  0  0
   16.8835  -55.2754   37.1171 C   0  0  0  0  0  0  0  0  0  0  0  0
 17 18  1  0  0  0
 18 19  2  0  0  0
 18 23  1  0  0  0
 19 20  1  0  0  0
 20 21  2  0  0  0
 21 22  1  0  0  0
 21  1  1  0  0  0
 22 23  2  0  0  0
  1  2  1  0  0  0
  1 10  1  0  0  0
  2  3  2  0  0  0
  2  4  1  0  0  0
  4  5  1  0  0  0
  4  9  1  0  0  0
  5  6  1  0  0  0
  5 12  1  0  0  0
  6  7  1  0  0  0
  6 14  1  0  0  0
  7  8  1  0  0  0
  7 13  1  0  0  0
  8  9  1  0  0  0
  8 12  1  0  0  0
  9 10  1  0  0  0
 10 11  2  0  0  0
 13 15  1  0  0  0
 14 16  1  0  0  0
M  END
> <minimizedAffinity>
-8.47851

$$$$
2357


 36 39  0  0  0  0  0  0  0  0999 V2000
   15.3864  -58.7998   33.7760 C   0  0  0  0  0  0  0  0  0  0  0  0
   14.5411  -59.7499   34.1248 C   0  0  0  0  0  0  0  0  0  0  0  0
   13.1780  -59.1839   34.2832 C   0  0  0  0  0  0  0  0  0  0  0  0
   13.2616  -57.9492   33.5541 N   0  0  0  0  0  0  0  0  0  0  0  0
   14.6158  -57.6062   33.6865 N   0  0  0  0  0  0  0  0  0  0  0  0
   12.6142  -57.2214   33.8519 H   0  0  0  0  0  0  0  0  0  0  0  0
   14.9783  -56.6324   33.7122 H   0  0  0  0  0  0  0  0  0  0  0  0
   17.7756  -56.5670   33.7067 N   0  0  0  0  0  0  0  0  0  0  0  0
   17.6698  -56.4321   32.2967 C   0  0  0  0  0  0  0  0  0  0  0  0
   17.8738  -55.2669   31.8065 O   0  0  0  0  0  0  0  0  0  0  0  0
   17.3568  -57.5320   31.4921 N   0  0  0  0  0  0  0  0  0  0  0  0
   17.1378  -58.8065   32.0633 C   0  0  0  0  0  0  0  0  0  0  0  0
   17.1733  -59.8333   31.3582 O   0  0  0  0  0  0  0  0  0  0  0  0
   16.8615  -58.9270   33.5123 C   0  0  0  0  0  0  0  0  0  0  0  0
   17.5523  -57.8531   34.2655 C   0  0  0  0  0  0  0  0  0  0  0  0
   17.9461  -58.0929   35.4200 O   0  0  0  0  0  0  0  0  0  0  0  0
   17.2923  -57.3745   30.4449 H   0  0  0  0  0  0  0  0  0  0  0  0
   19.0576  -51.8060   37.0960 Cl  0  0  0  0  0  0  0  0  0  0  0  0
   18.6780  -53.2129   36.0936 C   0  0  0  0  0  0  0  0  0  0  0  0
   17.3796  -53.6156   35.9057 C   0  0  0  0  0  0  0  0  0  0  0  0
   17.1020  -54.7156   35.1199 C   0  0  0  0  0  0  0  0  0  0  0  0
   18.0942  -55.4368   34.5070 C   0  0  0  0  0  0  0  0  0  0  0  0
   19.3874  -55.0359   34.6948 C   0  0  0  0  0  0  0  0  0  0  0  0
   19.6886  -53.9212   35.4884 C   0  0  0  0  0  0  0  0  0  0  0  0
   12.8959  -59.0350   35.7061 C   0  0  0  0  0  0  0  0  0  0  0  0
   11.7741  -59.6486   36.2210 C   0  0  0  0  0  0  0  0  0  0  0  0
   11.4224  -59.5702   37.5533 C   0  0  0  0  0  0  0  0  0  0  0  0
   12.2534  -58.8296   38.4042 C   0  0  0  0  0  0  0  0  0  0  0  0
   13.3847  -58.1974   37.9362 C   0  0  0  0  0  0  0  0  0  0  0  0
   13.6732  -58.3204   36.5915 C   0  0  0  0  0  0  0  0  0  0  0  0
   11.9452  -58.7217   39.7415 O   0  0  0  0  0  0  0  0  0  0  0  0
   11.1201  -59.1777   40.1061 H   0  0  0  0  0  0  0  0  0  0  0  0
   14.1584  -57.4882   38.8056 O   0  0  0  0  0  0  0  0  0  0  0  0
   14.3658  -56.1057   38.8033 C   0  0  0  0  0  0  0  0  0  0  0  0
   10.2951  -60.1854   38.0822 O   0  0  0  0  0  0  0  0  0  0  0  0
   10.3046  -61.5974   38.1345 C   0  0  0  0  0  0  0  0  0  0  0  0
 18 19  1  0  0  0
 19 20  2  0  0  0
 19 24  1  0  0  0
 20 21  1  0  0  0
 21 22  2  0  0  0
 22 23  1  0  0  0
 22  8  1  0  0  0
 23 24  2  0  0  0
  8  9  1  0  0  0
  8 15  1  0  0  0
  9 10  2  0  0  0
  9 11  1  0  0  0
 11 12  1  0  0  0
 12 13  2  0  0  0
 12 14  1  0  0  0
 14 15  1  0  0  0
 14  1  1  0  0  0
 15 16  2  0  0  0
  1  2  2  0  0  0
  1  5  1  0  0  0
  2  3  1  0  0  0
  3  4  1  0  0  0
  3 25  1  0  0  0
  4  5  1  0  0  0
 25 26  2  0  0  0
 25 30  1  0  0  0
 26 27  1  0  0  0
 27 28  2  0  0  0
 27 35  1  0  0  0
 28 29  1  0  0  0
 28 31  1  0  0  0
 29 30  2  0  0  0
 29 33  1  0  0  0
 33 34  1  0  0  0
 35 36  1  0  0  0
 11 17  1  0  0  0
  4  6  1  0  0  0
  5  7  1  0  0  0
 31 32  1  0  0  0
M  END
> <minimizedAffinity>
-9.86352

$$$$
2358


 34 37  0  0  0  0  0  0  0  0999 V2000
   15.1915  -57.9123   34.5546 N   0  0  0  0  0  0  0  0  0  0  0  0
   13.7911  -58.0825   34.3849 C   0  0  0  0  0  0  0  0  0  0  0  0
   13.2970  -57.8678   33.2392 O   0  0  0  0  0  0  0  0  0  0  0  0
   12.9588  -58.4797   35.4555 N   0  0  0  0  0  0  0  0  0  0  0  0
   13.5036  -58.7212   36.7382 C   0  0  0  0  0  0  0  0  0  0  0  0
   12.8046  -59.2515   37.6708 O   0  0  0  0  0  0  0  0  0  0  0  0
   14.8888  -58.3779   37.0584 C   0  0  0  0  0  0  0  0  0  0  0  0
   15.7032  -58.1629   35.8555 C   0  0  0  0  0  0  0  0  0  0  0  0
   16.9787  -58.1981   35.9504 O   0  0  0  0  0  0  0  0  0  0  0  0
   11.9228  -58.5997   35.3089 H   0  0  0  0  0  0  0  0  0  0  0  0
   18.8033  -56.1999   30.1254 Cl  0  0  0  0  0  0  0  0  0  0  0  0
   17.7441  -56.7216   31.4222 C   0  0  0  0  0  0  0  0  0  0  0  0
   17.4381  -58.0629   31.5998 C   0  0  0  0  0  0  0  0  0  0  0  0
   16.6117  -58.4367   32.6161 C   0  0  0  0  0  0  0  0  0  0  0  0
   16.0539  -57.5171   33.4960 C   0  0  0  0  0  0  0  0  0  0  0  0
   16.3602  -56.1865   33.3160 C   0  0  0  0  0  0  0  0  0  0  0  0
   17.2049  -55.7780   32.2815 C   0  0  0  0  0  0  0  0  0  0  0  0
   14.9304  -57.2076   37.9846 C   0  0  0  0  0  0  0  0  0  0  0  0
   15.7980  -56.9530   38.9276 C   0  0  0  0  0  0  0  0  0  0  0  0
   15.3979  -55.6706   39.5568 C   0  0  0  0  0  0  0  0  0  0  0  0
   14.0154  -55.5046   39.1623 N   0  0  0  0  0  0  0  0  0  0  0  0
   13.9577  -56.1697   37.9324 N   0  0  0  0  0  0  0  0  0  0  0  0
   13.3630  -55.9307   39.8624 H   0  0  0  0  0  0  0  0  0  0  0  0
   13.2988  -55.9056   37.1548 H   0  0  0  0  0  0  0  0  0  0  0  0
   16.2230  -54.5478   39.0315 C   0  0  0  0  0  0  0  0  0  0  0  0
   17.5604  -54.6914   38.7408 C   0  0  0  0  0  0  0  0  0  0  0  0
   18.3355  -53.6550   38.2539 C   0  0  0  0  0  0  0  0  0  0  0  0
   17.7729  -52.4173   38.0406 C   0  0  0  0  0  0  0  0  0  0  0  0
   16.4394  -52.2538   38.3237 C   0  0  0  0  0  0  0  0  0  0  0  0
   15.6762  -53.2928   38.8087 C   0  0  0  0  0  0  0  0  0  0  0  0
   19.6742  -53.8604   37.9806 O   0  0  0  0  0  0  0  0  0  0  0  0
   20.1045  -54.7515   38.1284 H   0  0  0  0  0  0  0  0  0  0  0  0
   18.5283  -51.3687   37.5549 O   0  0  0  0  0  0  0  0  0  0  0  0
   19.2894  -51.5431   36.3818 C   0  0  0  0  0  0  0  0  0  0  0  0
 11 12  1  0  0  0
 12 13  2  0  0  0
 12 17  1  0  0  0
 13 14  1  0  0  0
 14 15  2  0  0  0
 15 16  1  0  0  0
 15  1  1  0  0  0
 16 17  2  0  0  0
  1  2  1  0  0  0
  1  8  1  0  0  0
  2  3  2  0  0  0
  2  4  1  0  0  0
  4  5  1  0  0  0
  5  6  2  0  0  0
  5  7  1  0  0  0
  7  8  1  0  0  0
  7 18  1  0  0  0
  8  9  2  0  0  0
 18 19  2  0  0  0
 18 22  1  0  0  0
 19 20  1  0  0  0
 20 21  1  0  0  0
 20 25  1  0  0  0
 21 22  1  0  0  0
 25 26  2  0  0  0
 25 30  1  0  0  0
 26 27  1  0  0  0
 27 28  2  0  0  0
 27 31  1  0  0  0
 28 29  1  0  0  0
 28 33  1  0  0  0
 29 30  2  0  0  0
 33 34  1  0  0  0
  4 10  1  0  0  0
 21 23  1  0  0  0
 22 24  1  0  0  0
 31 32  1  0  0  0
M  END
> <minimizedAffinity>
-10.73636

$$$$
2359


 32 35  0  0  0  0  0  0  0  0999 V2000
   19.2522  -54.8866   33.7551 N   0  0  0  0  0  0  0  0  0  0  0  0
   20.0317  -53.9409   33.0056 C   0  0  0  0  0  0  0  0  0  0  0  0
   20.3924  -52.8332   33.5101 O   0  0  0  0  0  0  0  0  0  0  0  0
   20.3765  -54.3078   31.6782 N   0  0  0  0  0  0  0  0  0  0  0  0
   19.9522  -55.5757   31.1291 C   0  0  0  0  0  0  0  0  0  0  0  0
   20.6239  -56.0304   30.1946 O   0  0  0  0  0  0  0  0  0  0  0  0
   18.7886  -56.2381   31.6859 C   0  0  0  0  0  0  0  0  0  0  0  0
   18.8604  -56.1198   33.1732 C   0  0  0  0  0  0  0  0  0  0  0  0
   18.5906  -57.0596   33.9636 O   0  0  0  0  0  0  0  0  0  0  0  0
   20.9383  -53.6398   31.1215 H   0  0  0  0  0  0  0  0  0  0  0  0
   17.6975  -53.3372   39.3360 Cl  0  0  0  0  0  0  0  0  0  0  0  0
   18.1929  -53.7949   37.7325 C   0  0  0  0  0  0  0  0  0  0  0  0
   17.2375  -53.7943   36.7256 C   0  0  0  0  0  0  0  0  0  0  0  0
   17.6079  -54.1541   35.4435 C   0  0  0  0  0  0  0  0  0  0  0  0
   18.8970  -54.5187   35.1071 C   0  0  0  0  0  0  0  0  0  0  0  0
   19.8334  -54.5125   36.1228 C   0  0  0  0  0  0  0  0  0  0  0  0
   19.4997  -54.1586   37.4174 C   0  0  0  0  0  0  0  0  0  0  0  0
   18.4947  -57.5806   31.2393 C   0  0  0  0  0  0  0  0  0  0  0  0
   17.3337  -58.1291   30.9635 C   0  0  0  0  0  0  0  0  0  0  0  0
   17.4923  -59.5404   30.5346 C   0  0  0  0  0  0  0  0  0  0  0  0
   18.9193  -59.6551   30.3403 N   0  0  0  0  0  0  0  0  0  0  0  0
   19.5025  -58.5909   31.0244 N   0  0  0  0  0  0  0  0  0  0  0  0
   19.1902  -59.6974   29.3343 H   0  0  0  0  0  0  0  0  0  0  0  0
   20.5047  -58.5855   31.3081 H   0  0  0  0  0  0  0  0  0  0  0  0
   16.8399  -59.8315   29.2527 C   0  0  0  0  0  0  0  0  0  0  0  0
   15.7025  -60.6244   29.2631 C   0  0  0  0  0  0  0  0  0  0  0  0
   15.0665  -60.9154   28.0792 C   0  0  0  0  0  0  0  0  0  0  0  0
   15.5286  -60.4387   26.8747 C   0  0  0  0  0  0  0  0  0  0  0  0
   16.6557  -59.6515   26.8471 C   0  0  0  0  0  0  0  0  0  0  0  0
   17.2986  -59.3593   28.0504 C   0  0  0  0  0  0  0  0  0  0  0  0
   13.9155  -61.7145   28.0763 O   0  0  0  0  0  0  0  0  0  0  0  0
   13.5642  -62.0701   28.9481 H   0  0  0  0  0  0  0  0  0  0  0  0
 11 12  1  0  0  0
 12 13  2  0  0  0
 12 17  1  0  0  0
 13 14  1  0  0  0
 14 15  2  0  0  0
 15 16  1  0  0  0
 15  1  1  0  0  0
 16 17  2  0  0  0
  1  2  1  0  0  0
  1  8  1  0  0  0
  2  3  2  0  0  0
  2  4  1  0  0  0
  4  5  1  0  0  0
  5  6  2  0  0  0
  5  7  1  0  0  0
  7  8  1  0  0  0
  7 18  1  0  0  0
  8  9  2  0  0  0
 18 19  2  0  0  0
 18 22  1  0  0  0
 19 20  1  0  0  0
 20 21  1  0  0  0
 20 25  1  0  0  0
 21 22  1  0  0  0
 25 26  2  0  0  0
 25 30  1  0  0  0
 26 27  1  0  0  0
 27 28  2  0  0  0
 27 31  1  0  0  0
 28 29  1  0  0  0
 29 30  2  0  0  0
  4 10  1  0  0  0
 21 23  1  0  0  0
 22 24  1  0  0  0
 31 32  1  0  0  0
M  END
> <minimizedAffinity>
-9.95478

$$$$
2361


 30 33  0  0  0  0  0  0  0  0999 V2000
   16.7726  -57.0863   33.9950 N   0  0  0  0  0  0  0  0  0  0  0  0
   16.2145  -56.3696   32.9090 C   0  0  0  0  0  0  0  0  0  0  0  0
   14.9684  -56.2499   32.8037 O   0  0  0  0  0  0  0  0  0  0  0  0
   17.0972  -55.7839   31.9362 N   0  0  0  0  0  0  0  0  0  0  0  0
   18.5070  -55.9177   32.0532 C   0  0  0  0  0  0  0  0  0  0  0  0
   19.2331  -55.7062   31.0500 O   0  0  0  0  0  0  0  0  0  0  0  0
   19.0917  -56.3020   33.3480 C   0  0  0  0  0  0  0  0  0  0  0  0
   18.1824  -57.2005   34.0801 C   0  0  0  0  0  0  0  0  0  0  0  0
   18.6668  -58.1213   34.8251 O   0  0  0  0  0  0  0  0  0  0  0  0
   16.7296  -55.2479   31.1209 H   0  0  0  0  0  0  0  0  0  0  0  0
   13.2443  -59.5768   38.1915 Cl  0  0  0  0  0  0  0  0  0  0  0  0
   14.2703  -58.8560   36.9632 C   0  0  0  0  0  0  0  0  0  0  0  0
   14.3981  -59.4251   35.7139 C   0  0  0  0  0  0  0  0  0  0  0  0
   15.2128  -58.8518   34.7445 C   0  0  0  0  0  0  0  0  0  0  0  0
   15.9209  -57.6962   34.9944 C   0  0  0  0  0  0  0  0  0  0  0  0
   15.7902  -57.1304   36.2433 C   0  0  0  0  0  0  0  0  0  0  0  0
   14.9797  -57.6998   37.2084 C   0  0  0  0  0  0  0  0  0  0  0  0
   19.3965  -55.0889   34.1785 C   0  0  0  0  0  0  0  0  0  0  0  0
   19.8038  -55.0356   35.4199 C   0  0  0  0  0  0  0  0  0  0  0  0
   19.9691  -53.6282   35.8154 C   0  0  0  0  0  0  0  0  0  0  0  0
   19.9573  -52.9137   34.5702 N   0  0  0  0  0  0  0  0  0  0  0  0
   19.2785  -53.7651   33.6843 N   0  0  0  0  0  0  0  0  0  0  0  0
   20.8986  -52.6881   34.2352 H   0  0  0  0  0  0  0  0  0  0  0  0
   18.7945  -53.4087   32.8288 H   0  0  0  0  0  0  0  0  0  0  0  0
   18.7803  -53.2619   36.6275 C   0  0  0  0  0  0  0  0  0  0  0  0
   17.8264  -54.2059   36.9233 C   0  0  0  0  0  0  0  0  0  0  0  0
   16.7340  -53.8765   37.6667 N   0  0  0  0  0  0  0  0  0  0  0  0
   16.5317  -52.6372   38.1420 C   0  0  0  0  0  0  0  0  0  0  0  0
   17.4676  -51.6669   37.8640 C   0  0  0  0  0  0  0  0  0  0  0  0
   18.5985  -51.9894   37.0999 C   0  0  0  0  0  0  0  0  0  0  0  0
 11 12  1  0  0  0
 12 13  2  0  0  0
 12 17  1  0  0  0
 13 14  1  0  0  0
 14 15  2  0  0  0
 15 16  1  0  0  0
 15  1  1  0  0  0
 16 17  2  0  0  0
  1  2  1  0  0  0
  1  8  1  0  0  0
  2  3  2  0  0  0
  2  4  1  0  0  0
  4  5  1  0  0  0
  5  6  2  0  0  0
  5  7  1  0  0  0
  7  8  1  0  0  0
  7 18  1  0  0  0
  8  9  2  0  0  0
 18 19  2  0  0  0
 18 22  1  0  0  0
 19 20  1  0  0  0
 20 21  1  0  0  0
 20 25  1  0  0  0
 21 22  1  0  0  0
 25 26  2  0  0  0
 25 30  1  0  0  0
 26 27  1  0  0  0
 27 28  2  0  0  0
 28 29  1  0  0  0
 29 30  2  0  0  0
  4 10  1  0  0  0
 21 23  1  0  0  0
 22 24  1  0  0  0
M  END
> <minimizedAffinity>
-9.40028

$$$$
2363


 33 36  0  0  0  0  0  0  0  0999 V2000
   19.0428  -54.8184   33.3906 N   0  0  0  0  0  0  0  0  0  0  0  0
   18.2547  -55.8077   32.7465 C   0  0  0  0  0  0  0  0  0  0  0  0
   18.7135  -56.1793   31.4163 C   0  0  0  0  0  0  0  0  0  0  0  0
   19.7563  -55.5602   30.7961 C   0  0  0  0  0  0  0  0  0  0  0  0
   20.1314  -55.9570   29.4986 C   0  0  0  0  0  0  0  0  0  0  0  0
   19.4894  -56.9559   28.8113 C   0  0  0  0  0  0  0  0  0  0  0  0
   18.4318  -57.5746   29.4576 C   0  0  0  0  0  0  0  0  0  0  0  0
   18.0646  -57.1967   30.7084 C   0  0  0  0  0  0  0  0  0  0  0  0
   20.5150  -54.5197   31.4333 N   0  0  0  0  0  0  0  0  0  0  0  0
   20.1129  -54.1804   32.7453 C   0  0  0  0  0  0  0  0  0  0  0  0
   20.7336  -53.2656   33.3783 O   0  0  0  0  0  0  0  0  0  0  0  0
   16.9672  -55.1840   32.5844 O   0  0  0  0  0  0  0  0  0  0  0  0
   21.2996  -54.0697   30.9296 H   0  0  0  0  0  0  0  0  0  0  0  0
   16.2591  -55.8792   32.6051 H   0  0  0  0  0  0  0  0  0  0  0  0
   17.8694  -53.3137   39.0875 Cl  0  0  0  0  0  0  0  0  0  0  0  0
   18.2227  -53.7593   37.4137 C   0  0  0  0  0  0  0  0  0  0  0  0
   17.2701  -53.5347   36.4458 C   0  0  0  0  0  0  0  0  0  0  0  0
   17.5418  -53.8833   35.1264 C   0  0  0  0  0  0  0  0  0  0  0  0
   18.7416  -54.4449   34.7790 C   0  0  0  0  0  0  0  0  0  0  0  0
   19.6750  -54.6579   35.7697 C   0  0  0  0  0  0  0  0  0  0  0  0
   19.4379  -54.3232   37.0912 C   0  0  0  0  0  0  0  0  0  0  0  0
   18.0076  -56.9881   33.6137 C   0  0  0  0  0  0  0  0  0  0  0  0
   18.9316  -57.7536   33.8950 O   0  0  0  0  0  0  0  0  0  0  0  0
   16.7000  -57.1923   34.0925 N   0  0  0  0  0  0  0  0  0  0  0  0
   15.9010  -56.5407   33.8564 H   0  0  0  0  0  0  0  0  0  0  0  0
   16.3444  -58.3209   34.9536 C   0  0  0  0  0  0  0  0  0  0  0  0
   16.6382  -58.0634   36.3816 C   0  0  0  0  0  0  0  0  0  0  0  0
   15.5549  -57.7201   37.2187 N   0  0  0  0  0  0  0  0  0  0  0  0
   15.5603  -56.4686   37.8566 C   0  0  0  0  0  0  0  0  0  0  0  0
   14.1777  -56.2272   38.4691 C   0  0  0  0  0  0  0  0  0  0  0  0
   13.6242  -57.4407   38.9156 O   0  0  0  0  0  0  0  0  0  0  0  0
   13.2459  -58.2477   37.8452 C   0  0  0  0  0  0  0  0  0  0  0  0
   14.2625  -58.0871   36.7477 C   0  0  0  0  0  0  0  0  0  0  0  0
 15 16  1  0  0  0
 16 17  2  0  0  0
 16 21  1  0  0  0
 17 18  1  0  0  0
 18 19  2  0  0  0
 19 20  1  0  0  0
 19  1  1  0  0  0
 20 21  2  0  0  0
  1  2  1  0  0  0
  1 10  1  0  0  0
  2  3  1  0  0  0
  2 12  1  0  0  0
  2 22  1  0  0  0
  3  4  1  0  0  0
  3  8  2  0  0  0
  4  5  2  0  0  0
  4  9  1  0  0  0
  5  6  1  0  0  0
  6  7  2  0  0  0
  7  8  1  0  0  0
  9 10  1  0  0  0
 10 11  2  0  0  0
 22 23  2  0  0  0
 22 24  1  0  0  0
 24 26  1  0  0  0
 26 27  1  0  0  0
 27 28  1  0  0  0
 28 29  1  0  0  0
 28 33  1  0  0  0
 29 30  1  0  0  0
 30 31  1  0  0  0
 31 32  1  0  0  0
 32 33  1  0  0  0
  9 13  1  0  0  0
 12 14  1  0  0  0
 24 25  1  0  0  0
M  END
> <minimizedAffinity>
-9.63255

$$$$
2364


 33 37  0  0  0  0  0  0  0  0999 V2000
   17.6149  -58.6703   32.6973 N   0  0  0  0  0  0  0  0  0  0  0  0
   17.3024  -57.9793   31.4942 C   0  0  0  0  0  0  0  0  0  0  0  0
   16.8323  -58.6286   30.5053 O   0  0  0  0  0  0  0  0  0  0  0  0
   17.4915  -56.5355   31.3209 C   0  0  0  0  0  0  0  0  0  0  0  0
   18.2308  -55.8963   32.3585 N   0  0  0  0  0  0  0  0  0  0  0  0
   18.0836  -56.4364   33.6709 C   0  0  0  0  0  0  0  0  0  0  0  0
   16.9387  -55.8874   34.4867 C   0  0  0  0  0  0  0  0  0  0  0  0
   17.8719  -55.2472   35.3564 N   0  0  0  0  0  0  0  0  0  0  0  0
   18.9956  -55.6917   34.6314 C   0  0  0  0  0  0  0  0  0  0  0  0
   18.2281  -57.9140   33.7345 C   0  0  0  0  0  0  0  0  0  0  0  0
   18.8560  -58.5067   34.6483 O   0  0  0  0  0  0  0  0  0  0  0  0
   19.6175  -55.9012   31.9908 C   0  0  0  0  0  0  0  0  0  0  0  0
   19.7350  -56.5163   30.6248 C   0  0  0  0  0  0  0  0  0  0  0  0
   18.3519  -56.3520   30.0627 C   0  0  0  0  0  0  0  0  0  0  0  0
   20.7056  -55.9094   29.8395 O   0  0  0  0  0  0  0  0  0  0  0  0
   21.5557  -56.3853   30.0034 H   0  0  0  0  0  0  0  0  0  0  0  0
   17.3305  -60.0833   32.8742 C   0  0  0  0  0  0  0  0  0  0  0  0
   13.7150  -58.6177   36.3510 Cl  0  0  0  0  0  0  0  0  0  0  0  0
   14.2420  -59.6243   35.0202 C   0  0  0  0  0  0  0  0  0  0  0  0
   15.5058  -59.4820   34.4847 C   0  0  0  0  0  0  0  0  0  0  0  0
   15.9473  -60.2592   33.4377 C   0  0  0  0  0  0  0  0  0  0  0  0
   15.0848  -61.2026   32.9247 C   0  0  0  0  0  0  0  0  0  0  0  0
   13.8428  -61.3324   33.4617 C   0  0  0  0  0  0  0  0  0  0  0  0
   13.3818  -60.5659   34.5078 C   0  0  0  0  0  0  0  0  0  0  0  0
   17.7005  -53.8762   35.6731 C   0  0  0  0  0  0  0  0  0  0  0  0
   17.0731  -53.5849   36.9672 C   0  0  0  0  0  0  0  0  0  0  0  0
   16.2046  -54.4878   37.5291 C   0  0  0  0  0  0  0  0  0  0  0  0
   15.5932  -54.2359   38.7604 C   0  0  0  0  0  0  0  0  0  0  0  0
   15.8709  -53.0586   39.4163 C   0  0  0  0  0  0  0  0  0  0  0  0
   16.7368  -52.1378   38.8770 C   0  0  0  0  0  0  0  0  0  0  0  0
   17.3293  -52.4205   37.6479 C   0  0  0  0  0  0  0  0  0  0  0  0
   14.7190  -55.1413   39.3284 O   0  0  0  0  0  0  0  0  0  0  0  0
   14.9437  -56.5225   39.1154 C   0  0  0  0  0  0  0  0  0  0  0  0
 18 19  1  0  0  0
 19 20  2  0  0  0
 19 24  1  0  0  0
 20 21  1  0  0  0
 21 22  2  0  0  0
 21 17  1  0  0  0
 22 23  1  0  0  0
 23 24  2  0  0  0
 17  1  1  0  0  0
  1  2  1  0  0  0
  1 10  1  0  0  0
  2  3  2  0  0  0
  2  4  1  0  0  0
  4  5  1  0  0  0
  4 14  1  0  0  0
  5  6  1  0  0  0
  5 12  1  0  0  0
  6  7  1  0  0  0
  6  9  1  0  0  0
  6 10  1  0  0  0
  7  8  1  0  0  0
  8  9  1  0  0  0
  8 25  1  0  0  0
 25 26  1  0  0  0
 26 27  2  0  0  0
 26 31  1  0  0  0
 27 28  1  0  0  0
 28 29  2  0  0  0
 28 32  1  0  0  0
 29 30  1  0  0  0
 30 31  2  0  0  0
 32 33  1  0  0  0
 10 11  2  0  0  0
 12 13  1  0  0  0
 13 14  1  0  0  0
 13 15  1  0  0  0
 15 16  1  0  0  0
M  END
> <minimizedAffinity>
-9.69348

$$$$
2365


 32 36  0  0  0  0  0  0  0  0999 V2000
   14.3663  -56.6775   38.1109 N   0  0  0  0  0  0  0  0  0  0  0  0
   14.9370  -55.5810   38.7745 C   0  0  0  0  0  0  0  0  0  0  0  0
   14.4458  -55.2321   39.8908 O   0  0  0  0  0  0  0  0  0  0  0  0
   14.7620  -56.9789   37.1875 H   0  0  0  0  0  0  0  0  0  0  0  0
   16.0818  -54.7946   38.2585 C   0  0  0  0  0  0  0  0  0  0  0  0
   16.6242  -55.4120   36.9854 C   0  0  0  0  0  0  0  0  0  0  0  0
   17.7935  -54.6250   36.4650 C   0  0  0  0  0  0  0  0  0  0  0  0
   17.2739  -53.2293   36.1138 C   0  0  0  0  0  0  0  0  0  0  0  0
   16.7119  -52.5815   37.3386 C   0  0  0  0  0  0  0  0  0  0  0  0
   15.5829  -53.4098   37.9070 C   0  0  0  0  0  0  0  0  0  0  0  0
   17.8058  -52.4475   38.3727 C   0  0  0  0  0  0  0  0  0  0  0  0
   18.2988  -53.8357   38.7087 C   0  0  0  0  0  0  0  0  0  0  0  0
   18.8887  -54.4654   37.4730 C   0  0  0  0  0  0  0  0  0  0  0  0
   17.1820  -54.6623   39.2883 C   0  0  0  0  0  0  0  0  0  0  0  0
   18.2470  -55.2788   35.2532 N   0  0  0  0  0  0  0  0  0  0  0  0
   18.9531  -54.8016   34.2434 N   0  0  0  0  0  0  0  0  0  0  0  0
   19.1649  -55.7004   33.3293 N   0  0  0  0  0  0  0  0  0  0  0  0
   18.5884  -56.8224   33.7222 C   0  0  0  0  0  0  0  0  0  0  0  0
   18.0124  -56.5611   34.9287 N   0  0  0  0  0  0  0  0  0  0  0  0
   12.6410  -58.4484   38.0170 C   0  0  0  0  0  0  0  0  0  0  0  0
   13.0032  -58.8615   36.8865 O   0  0  0  0  0  0  0  0  0  0  0  0
   13.3018  -57.3669   38.6468 N   0  0  0  0  0  0  0  0  0  0  0  0
   12.9384  -57.0775   39.5980 H   0  0  0  0  0  0  0  0  0  0  0  0
   11.4910  -59.1560   38.6507 C   0  0  0  0  0  0  0  0  0  0  0  0
   10.6677  -59.9069   37.6597 C   0  0  0  0  0  0  0  0  0  0  0  0
   12.0078  -60.0572   39.7486 C   0  0  0  0  0  0  0  0  0  0  0  0
    8.5136  -58.2661   43.5370 Br  0  0  0  0  0  0  0  0  0  0  0  0
    9.9273  -59.1285   42.5935 C   0  0  0  0  0  0  0  0  0  0  0  0
   10.2516  -59.0603   41.2534 C   0  0  0  0  0  0  0  0  0  0  0  0
   11.3370  -59.8386   41.0084 N   0  0  0  0  0  0  0  0  0  0  0  0
   11.6853  -60.3778   42.1446 N   0  0  0  0  0  0  0  0  0  0  0  0
   10.8757  -59.9916   43.1474 C   0  0  0  0  0  0  0  0  0  0  0  0
 27 28  1  0  0  0
 28 29  2  0  0  0
 28 32  1  0  0  0
 29 30  1  0  0  0
 30 31  1  0  0  0
 30 26  1  0  0  0
 31 32  2  0  0  0
 26 24  1  0  0  0
 24 25  1  0  0  0
 24 20  1  0  0  0
 20 21  2  0  0  0
 20 22  1  0  0  0
 22  1  1  0  0  0
  1  2  1  0  0  0
  2  3  2  0  0  0
  2  5  1  0  0  0
  5  6  1  0  0  0
  5 10  1  0  0  0
  5 14  1  0  0  0
  6  7  1  0  0  0
  7  8  1  0  0  0
  7 13  1  0  0  0
  7 15  1  0  0  0
  8  9  1  0  0  0
  9 10  1  0  0  0
  9 11  1  0  0  0
 11 12  1  0  0  0
 12 13  1  0  0  0
 12 14  1  0  0  0
 15 16  1  0  0  0
 15 19  1  0  0  0
 16 17  2  0  0  0
 17 18  1  0  0  0
 18 19  2  0  0  0
 22 23  1  0  0  0
  1  4  1  0  0  0
M  END
> <minimizedAffinity>
-9.34244

$$$$
2373


 28 31  0  0  0  0  0  0  0  0999 V2000
   18.3806  -54.5781   35.5636 N   0  0  0  0  0  0  0  0  0  0  0  0
   18.2906  -53.9237   36.7081 C   0  0  0  0  0  0  0  0  0  0  0  0
   17.4218  -54.5401   37.5539 N   0  0  0  0  0  0  0  0  0  0  0  0
   16.9470  -55.6001   36.9376 C   0  0  0  0  0  0  0  0  0  0  0  0
   17.5625  -55.6233   35.6683 C   0  0  0  0  0  0  0  0  0  0  0  0
   17.1542  -54.0892   38.8905 C   0  0  0  0  0  0  0  0  0  0  0  0
   16.2665  -52.8469   38.8654 C   0  0  0  0  0  0  0  0  0  0  0  0
   16.7255  -52.0651   37.6301 C   0  0  0  0  0  0  0  0  0  0  0  0
   18.1757  -51.7139   37.8170 C   0  0  0  0  0  0  0  0  0  0  0  0
   19.0469  -52.6621   36.9781 C   0  0  0  0  0  0  0  0  0  0  0  0
   16.0009  -56.6249   37.3888 C   0  0  0  0  0  0  0  0  0  0  0  0
   16.0814  -57.9563   37.1365 C   0  0  0  0  0  0  0  0  0  0  0  0
   15.1086  -58.8717   37.5362 C   0  0  0  0  0  0  0  0  0  0  0  0
   14.0020  -58.4513   38.2216 C   0  0  0  0  0  0  0  0  0  0  0  0
   13.8918  -57.1095   38.4951 C   0  0  0  0  0  0  0  0  0  0  0  0
   14.8614  -56.2176   38.0915 C   0  0  0  0  0  0  0  0  0  0  0  0
   13.0062  -59.3522   38.6366 O   0  0  0  0  0  0  0  0  0  0  0  0
   11.6682  -59.2422   38.2314 C   0  0  0  0  0  0  0  0  0  0  0  0
   19.1679  -54.3115   34.3556 C   0  0  0  0  0  0  0  0  0  0  0  0
   18.4896  -54.9582   33.2118 C   0  0  0  0  0  0  0  0  0  0  0  0
   17.2295  -54.7855   33.1101 O   0  0  0  0  0  0  0  0  0  0  0  0
   21.3662  -58.1585   29.0150 Cl  0  0  0  0  0  0  0  0  0  0  0  0
   20.5484  -57.1983   30.2205 C   0  0  0  0  0  0  0  0  0  0  0  0
   20.6714  -55.8355   30.3278 C   0  0  0  0  0  0  0  0  0  0  0  0
   20.0049  -55.1264   31.2956 C   0  0  0  0  0  0  0  0  0  0  0  0
   19.1678  -55.7629   32.2197 C   0  0  0  0  0  0  0  0  0  0  0  0
   19.0443  -57.1168   32.1140 C   0  0  0  0  0  0  0  0  0  0  0  0
   19.7175  -57.8190   31.1398 C   0  0  0  0  0  0  0  0  0  0  0  0
 22 23  1  0  0  0
 23 24  2  0  0  0
 23 28  1  0  0  0
 24 25  1  0  0  0
 25 26  2  0  0  0
 26 27  1  0  0  0
 26 20  1  0  0  0
 27 28  2  0  0  0
 20 21  2  0  0  0
 20 19  1  0  0  0
 19  1  1  0  0  0
  1  2  2  0  0  0
  1  5  1  0  0  0
  2  3  1  0  0  0
  2 10  1  0  0  0
  3  4  1  0  0  0
  3  6  1  0  0  0
  4  5  2  0  0  0
  4 11  1  0  0  0
 11 12  2  0  0  0
 11 16  1  0  0  0
 12 13  1  0  0  0
 13 14  2  0  0  0
 14 15  1  0  0  0
 14 17  1  0  0  0
 15 16  2  0  0  0
 17 18  1  0  0  0
  6  7  1  0  0  0
  7  8  1  0  0  0
  8  9  1  0  0  0
  9 10  1  0  0  0
M  END
> <minimizedAffinity>
-10.29821

$$$$
2375


 37 40  0  0  0  0  0  0  0  0999 V2000
   12.7254  -60.4330   34.9130 C   0  0  0  0  0  0  0  0  0  0  0  0
   11.4869  -60.9960   34.4612 C   0  0  0  0  0  0  0  0  0  0  0  0
   15.7652  -57.3132   37.0322 C   0  0  0  0  0  0  0  0  0  0  0  0
   15.3786  -58.0307   38.2561 C   0  0  0  0  0  0  0  0  0  0  0  0
   14.1544  -58.9093   38.1900 C   0  0  0  0  0  0  0  0  0  0  0  0
   13.5866  -59.0842   36.8934 N   0  0  0  0  0  0  0  0  0  0  0  0
   13.4405  -57.8302   36.1278 C   0  0  0  0  0  0  0  0  0  0  0  0
   14.6778  -57.0861   36.0113 C   0  0  0  0  0  0  0  0  0  0  0  0
   12.9240  -60.2376   36.4097 C   0  0  0  0  0  0  0  0  0  0  0  0
   12.4952  -61.0941   37.1788 O   0  0  0  0  0  0  0  0  0  0  0  0
   16.7821  -58.0897   36.3990 O   0  0  0  0  0  0  0  0  0  0  0  0
   17.6017  -57.5792   36.2871 H   0  0  0  0  0  0  0  0  0  0  0  0
   18.2899  -51.8178   37.6078 Cl  0  0  0  0  0  0  0  0  0  0  0  0
   17.5499  -53.4315   37.4783 C   0  0  0  0  0  0  0  0  0  0  0  0
   17.8718  -54.2655   36.4329 C   0  0  0  0  0  0  0  0  0  0  0  0
   17.2693  -55.5285   36.3355 C   0  0  0  0  0  0  0  0  0  0  0  0
   16.3490  -55.9737   37.2730 C   0  0  0  0  0  0  0  0  0  0  0  0
   16.0518  -55.1325   38.2957 C   0  0  0  0  0  0  0  0  0  0  0  0
   16.6308  -53.8752   38.4133 C   0  0  0  0  0  0  0  0  0  0  0  0
   13.9924  -60.7473   34.2961 N   0  0  0  0  0  0  0  0  0  0  0  0
   14.5760  -60.0316   33.2521 C   0  0  0  0  0  0  0  0  0  0  0  0
   13.7225  -59.0199   32.8585 O   0  0  0  0  0  0  0  0  0  0  0  0
   14.3969  -61.6531   34.7112 H   0  0  0  0  0  0  0  0  0  0  0  0
   15.7479  -60.0049   32.5117 C   0  0  0  0  0  0  0  0  0  0  0  0
   16.7910  -59.3591   32.0824 C   0  0  0  0  0  0  0  0  0  0  0  0
   17.7626  -60.0561   31.2290 N   0  0  0  0  0  0  0  0  0  0  0  0
   18.8497  -59.4306   30.6510 N   0  0  0  0  0  0  0  0  0  0  0  0
   19.1088  -58.0821   30.8363 C   0  0  0  0  0  0  0  0  0  0  0  0
   20.0883  -57.4737   30.3357 O   0  0  0  0  0  0  0  0  0  0  0  0
   18.1826  -57.2929   31.6834 C   0  0  0  0  0  0  0  0  0  0  0  0
   17.1117  -57.9537   32.2366 C   0  0  0  0  0  0  0  0  0  0  0  0
   16.2114  -57.1483   32.9431 C   0  0  0  0  0  0  0  0  0  0  0  0
   16.4154  -55.7820   33.0725 C   0  0  0  0  0  0  0  0  0  0  0  0
   17.5042  -55.1676   32.5113 C   0  0  0  0  0  0  0  0  0  0  0  0
   18.3984  -55.9415   31.8030 C   0  0  0  0  0  0  0  0  0  0  0  0
   17.5776  -61.0848   31.0762 H   0  0  0  0  0  0  0  0  0  0  0  0
   19.5088  -59.9959   30.0477 H   0  0  0  0  0  0  0  0  0  0  0  0
 13 14  1  0  0  0
 14 15  2  0  0  0
 14 19  1  0  0  0
 15 16  1  0  0  0
 16 17  2  0  0  0
 17 18  1  0  0  0
 17  3  1  0  0  0
 18 19  2  0  0  0
  3  4  1  0  0  0
  3  8  1  0  0  0
  3 11  1  0  0  0
  4  5  1  0  0  0
  5  6  1  0  0  0
  6  7  1  0  0  0
  6  9  1  0  0  0
  7  8  1  0  0  0
  9 10  2  0  0  0
  9  1  1  0  0  0
  1 20  1  0  0  0
  1  2  1  0  0  0
 20 21  1  0  0  0
 21 22  2  0  0  0
 21 24  1  0  0  0
 24 25  2  0  0  0
 25 26  1  0  0  0
 25 31  1  0  0  0
 26 27  1  0  0  0
 27 28  1  0  0  0
 28 29  2  0  0  0
 28 30  1  0  0  0
 30 31  2  0  0  0
 30 35  1  0  0  0
 31 32  1  0  0  0
 32 33  2  0  0  0
 33 34  1  0  0  0
 34 35  2  0  0  0
 20 23  1  0  0  0
 26 36  1  0  0  0
 27 37  1  0  0  0
 11 12  1  0  0  0
M  END
> <minimizedAffinity>
-10.12037

$$$$
2377


 33 36  0  0  0  0  0  0  0  0999 V2000
   14.5638  -58.6613   34.2625 N   0  0  0  0  0  0  0  0  0  0  0  0
   14.3221  -57.4797   33.4405 C   0  0  0  0  0  0  0  0  0  0  0  0
   15.5704  -56.6449   33.2657 C   0  0  0  0  0  0  0  0  0  0  0  0
   16.7062  -57.4715   33.5949 N   0  0  0  0  0  0  0  0  0  0  0  0
   16.6833  -58.8198   33.0571 C   0  0  0  0  0  0  0  0  0  0  0  0
   15.6226  -59.5899   33.8426 C   0  0  0  0  0  0  0  0  0  0  0  0
   17.7949  -57.0459   34.3836 C   0  0  0  0  0  0  0  0  0  0  0  0
   18.7308  -57.8440   34.6088 O   0  0  0  0  0  0  0  0  0  0  0  0
   15.4280  -57.1194   36.6927 Cl  0  0  0  0  0  0  0  0  0  0  0  0
   14.0710  -58.2157   36.6283 C   0  0  0  0  0  0  0  0  0  0  0  0
   13.8202  -58.8670   35.4398 C   0  0  0  0  0  0  0  0  0  0  0  0
   12.7241  -59.7404   35.4829 C   0  0  0  0  0  0  0  0  0  0  0  0
   11.9997  -59.9053   36.6053 N   0  0  0  0  0  0  0  0  0  0  0  0
   12.2331  -59.2868   37.7434 N   0  0  0  0  0  0  0  0  0  0  0  0
   13.2707  -58.4410   37.7518 C   0  0  0  0  0  0  0  0  0  0  0  0
   13.5611  -57.8106   38.7993 O   0  0  0  0  0  0  0  0  0  0  0  0
   11.4140  -59.5214   38.8851 C   0  0  0  0  0  0  0  0  0  0  0  0
   11.9273  -60.0308   40.0680 C   0  0  0  0  0  0  0  0  0  0  0  0
   11.1483  -60.2639   41.1830 C   0  0  0  0  0  0  0  0  0  0  0  0
    9.8015  -59.9747   41.1085 C   0  0  0  0  0  0  0  0  0  0  0  0
    9.2564  -59.4662   39.9438 C   0  0  0  0  0  0  0  0  0  0  0  0
   10.0731  -59.2407   38.8297 C   0  0  0  0  0  0  0  0  0  0  0  0
   17.8957  -55.6873   34.9694 C   0  0  0  0  0  0  0  0  0  0  0  0
   19.2731  -55.1072   34.7462 C   0  0  0  0  0  0  0  0  0  0  0  0
   19.9056  -54.6246   36.0176 C   0  0  0  0  0  0  0  0  0  0  0  0
   19.1903  -53.5411   36.6545 N   0  0  0  0  0  0  0  0  0  0  0  0
   18.1414  -53.6722   37.5968 C   0  0  0  0  0  0  0  0  0  0  0  0
   17.6509  -54.7649   38.0395 O   0  0  0  0  0  0  0  0  0  0  0  0
   17.6699  -52.4115   38.0195 N   0  0  0  0  0  0  0  0  0  0  0  0
   18.4220  -51.3905   37.3245 C   0  0  0  0  0  0  0  0  0  0  0  0
   19.3831  -52.1333   36.4793 C   0  0  0  0  0  0  0  0  0  0  0  0
   20.2365  -51.6217   35.7239 O   0  0  0  0  0  0  0  0  0  0  0  0
   16.6158  -52.1647   38.9821 C   0  0  0  0  0  0  0  0  0  0  0  0
  9 10  1  0  0  0
 10 11  2  0  0  0
 10 15  1  0  0  0
 11 12  1  0  0  0
 11  1  1  0  0  0
 12 13  2  0  0  0
 13 14  1  0  0  0
 14 15  1  0  0  0
 14 17  1  0  0  0
 15 16  2  0  0  0
 17 18  2  0  0  0
 17 22  1  0  0  0
 18 19  1  0  0  0
 19 20  2  0  0  0
 20 21  1  0  0  0
 21 22  2  0  0  0
  1  2  1  0  0  0
  1  6  1  0  0  0
  2  3  1  0  0  0
  3  4  1  0  0  0
  4  5  1  0  0  0
  4  7  1  0  0  0
  5  6  1  0  0  0
  7  8  2  0  0  0
  7 23  1  0  0  0
 23 24  1  0  0  0
 24 25  1  0  0  0
 25 26  1  0  0  0
 26 27  1  0  0  0
 26 31  1  0  0  0
 27 28  2  0  0  0
 27 29  1  0  0  0
 29 30  1  0  0  0
 29 33  1  0  0  0
 30 31  1  0  0  0
 31 32  2  0  0  0
M  END
> <minimizedAffinity>
-9.08880

$$$$
2380


 27 30  0  0  0  0  0  0  0  0999 V2000
   20.3905  -54.0917   32.4414 Cl  0  0  0  0  0  0  0  0  0  0  0  0
   19.2036  -54.8005   33.5316 C   0  0  0  0  0  0  0  0  0  0  0  0
   18.5707  -55.9516   33.1266 C   0  0  0  0  0  0  0  0  0  0  0  0
   17.6419  -56.4829   34.0070 C   0  0  0  0  0  0  0  0  0  0  0  0
   17.4022  -55.8758   35.1824 N   0  0  0  0  0  0  0  0  0  0  0  0
   18.0043  -54.7686   35.5842 N   0  0  0  0  0  0  0  0  0  0  0  0
   18.9114  -54.2261   34.7530 C   0  0  0  0  0  0  0  0  0  0  0  0
   19.5271  -53.1686   35.0698 O   0  0  0  0  0  0  0  0  0  0  0  0
   18.8827  -56.5222   31.8742 N   0  0  0  0  0  0  0  0  0  0  0  0
   18.2050  -56.1057   30.6518 C   0  0  0  0  0  0  0  0  0  0  0  0
   17.3714  -57.3298   30.2255 C   0  0  0  0  0  0  0  0  0  0  0  0
   18.1978  -58.4939   30.1546 N   0  0  0  0  0  0  0  0  0  0  0  0
   19.6453  -58.3045   30.3871 C   0  0  0  0  0  0  0  0  0  0  0  0
   19.8846  -57.5549   31.6823 C   0  0  0  0  0  0  0  0  0  0  0  0
   17.7028  -59.7942   29.8741 C   0  0  0  0  0  0  0  0  0  0  0  0
   18.4750  -60.7979   29.8216 O   0  0  0  0  0  0  0  0  0  0  0  0
   16.2765  -60.0693   29.6268 C   0  0  0  0  0  0  0  0  0  0  0  0
   15.8907  -59.6046   28.4071 O   0  0  0  0  0  0  0  0  0  0  0  0
   14.8918  -60.4368   27.9178 C   0  0  0  0  0  0  0  0  0  0  0  0
   15.4475  -61.8064   28.2812 C   0  0  0  0  0  0  0  0  0  0  0  0
   15.9594  -61.5468   29.6825 C   0  0  0  0  0  0  0  0  0  0  0  0
   17.7045  -54.1677   36.8529 C   0  0  0  0  0  0  0  0  0  0  0  0
   16.6701  -53.2618   36.9659 C   0  0  0  0  0  0  0  0  0  0  0  0
   16.3666  -52.6693   38.1950 C   0  0  0  0  0  0  0  0  0  0  0  0
   17.0974  -52.9814   39.3131 C   0  0  0  0  0  0  0  0  0  0  0  0
   18.1293  -53.8796   39.2154 C   0  0  0  0  0  0  0  0  0  0  0  0
   18.4143  -54.4538   38.0006 C   0  0  0  0  0  0  0  0  0  0  0  0
  1  2  1  0  0  0
  2  3  2  0  0  0
  2  7  1  0  0  0
  3  4  1  0  0  0
  3  9  1  0  0  0
  4  5  2  0  0  0
  5  6  1  0  0  0
  6  7  1  0  0  0
  6 22  1  0  0  0
  7  8  2  0  0  0
 22 23  2  0  0  0
 22 27  1  0  0  0
 23 24  1  0  0  0
 24 25  2  0  0  0
 25 26  1  0  0  0
 26 27  2  0  0  0
  9 10  1  0  0  0
  9 14  1  0  0  0
 10 11  1  0  0  0
 11 12  1  0  0  0
 12 13  1  0  0  0
 12 15  1  0  0  0
 13 14  1  0  0  0
 15 16  2  0  0  0
 15 17  1  0  0  0
 17 18  1  0  0  0
 17 21  1  0  0  0
 18 19  1  0  0  0
 19 20  1  0  0  0
 20 21  1  0  0  0
M  END
> <minimizedAffinity>
-8.39052

$$$$
2381


 30 33  0  0  0  0  0  0  0  0999 V2000
   18.7634  -54.3678   35.1136 N   0  0  0  0  0  0  0  0  0  0  0  0
   19.9686  -54.1660   35.8687 C   0  0  0  0  0  0  0  0  0  0  0  0
   19.6885  -54.1010   37.3536 C   0  0  0  0  0  0  0  0  0  0  0  0
   18.4136  -53.4899   37.6355 N   0  0  0  0  0  0  0  0  0  0  0  0
   17.7369  -52.7790   36.5780 C   0  0  0  0  0  0  0  0  0  0  0  0
   17.4960  -53.7521   35.4526 C   0  0  0  0  0  0  0  0  0  0  0  0
   17.8442  -53.5915   38.9302 C   0  0  0  0  0  0  0  0  0  0  0  0
   18.4359  -54.2181   39.8672 O   0  0  0  0  0  0  0  0  0  0  0  0
   17.6902  -57.1577   35.4830 Cl  0  0  0  0  0  0  0  0  0  0  0  0
   18.3580  -56.5236   33.9963 C   0  0  0  0  0  0  0  0  0  0  0  0
   18.8136  -55.2208   33.9688 C   0  0  0  0  0  0  0  0  0  0  0  0
   19.3274  -54.7813   32.7618 C   0  0  0  0  0  0  0  0  0  0  0  0
   19.3800  -55.5767   31.6772 N   0  0  0  0  0  0  0  0  0  0  0  0
   18.9483  -56.8276   31.6858 N   0  0  0  0  0  0  0  0  0  0  0  0
   18.4417  -57.2888   32.8436 C   0  0  0  0  0  0  0  0  0  0  0  0
   18.0328  -58.4687   32.8609 O   0  0  0  0  0  0  0  0  0  0  0  0
   19.0093  -57.6661   30.5284 C   0  0  0  0  0  0  0  0  0  0  0  0
   20.2058  -58.2159   30.1157 C   0  0  0  0  0  0  0  0  0  0  0  0
   20.2737  -59.0256   29.0001 C   0  0  0  0  0  0  0  0  0  0  0  0
   19.1560  -59.3229   28.2478 C   0  0  0  0  0  0  0  0  0  0  0  0
   17.9570  -58.7771   28.6556 C   0  0  0  0  0  0  0  0  0  0  0  0
   17.8951  -57.9697   29.7684 C   0  0  0  0  0  0  0  0  0  0  0  0
   16.5337  -52.9795   39.2737 C   0  0  0  0  0  0  0  0  0  0  0  0
   15.4806  -53.5542   38.5484 O   0  0  0  0  0  0  0  0  0  0  0  0
   15.1667  -54.8905   38.7047 C   0  0  0  0  0  0  0  0  0  0  0  0
   14.4056  -55.4901   39.6268 N   0  0  0  0  0  0  0  0  0  0  0  0
   14.3670  -56.7653   39.4175 O   0  0  0  0  0  0  0  0  0  0  0  0
   15.0828  -57.1014   38.3643 C   0  0  0  0  0  0  0  0  0  0  0  0
   15.6086  -55.9191   37.8845 C   0  0  0  0  0  0  0  0  0  0  0  0
   15.2263  -58.4864   37.8804 C   0  0  0  0  0  0  0  0  0  0  0  0
  9 10  1  0  0  0
 10 11  2  0  0  0
 10 15  1  0  0  0
 11 12  1  0  0  0
 11  1  1  0  0  0
 12 13  2  0  0  0
 13 14  1  0  0  0
 14 15  1  0  0  0
 14 17  1  0  0  0
 15 16  2  0  0  0
 17 18  2  0  0  0
 17 22  1  0  0  0
 18 19  1  0  0  0
 19 20  2  0  0  0
 20 21  1  0  0  0
 21 22  2  0  0  0
  1  2  1  0  0  0
  1  6  1  0  0  0
  2  3  1  0  0  0
  3  4  1  0  0  0
  4  5  1  0  0  0
  4  7  1  0  0  0
  5  6  1  0  0  0
  7  8  2  0  0  0
  7 23  1  0  0  0
 23 24  1  0  0  0
 24 25  1  0  0  0
 25 26  2  0  0  0
 25 29  1  0  0  0
 26 27  1  0  0  0
 27 28  1  0  0  0
 28 29  2  0  0  0
 28 30  1  0  0  0
M  END
> <minimizedAffinity>
-8.82732

$$$$
2386


 30 33  0  0  0  0  0  0  0  0999 V2000
   15.2315  -57.7851   36.4580 Cl  0  0  0  0  0  0  0  0  0  0  0  0
   16.4443  -57.6140   35.1933 C   0  0  0  0  0  0  0  0  0  0  0  0
   16.6789  -56.3293   34.7083 C   0  0  0  0  0  0  0  0  0  0  0  0
   17.6241  -56.1789   33.7187 C   0  0  0  0  0  0  0  0  0  0  0  0
   18.3119  -57.2827   33.2323 C   0  0  0  0  0  0  0  0  0  0  0  0
   18.0719  -58.5610   33.7215 C   0  0  0  0  0  0  0  0  0  0  0  0
   17.1213  -58.7112   34.7152 C   0  0  0  0  0  0  0  0  0  0  0  0
   19.2752  -57.2130   32.2400 O   0  0  0  0  0  0  0  0  0  0  0  0
   19.4166  -56.3002   31.1871 C   0  0  0  0  0  0  0  0  0  0  0  0
   19.5925  -54.8771   31.5741 C   0  0  0  0  0  0  0  0  0  0  0  0
   19.1013  -54.4949   32.8583 N   0  0  0  0  0  0  0  0  0  0  0  0
   17.7345  -54.7464   33.3344 C   0  0  0  0  0  0  0  0  0  0  0  0
   19.9732  -53.8157   33.7530 C   0  0  0  0  0  0  0  0  0  0  0  0
   21.1353  -53.5866   33.3464 O   0  0  0  0  0  0  0  0  0  0  0  0
   20.6294  -56.7346   30.3425 C   0  0  0  0  0  0  0  0  0  0  0  0
   20.4364  -58.1967   30.0431 C   0  0  0  0  0  0  0  0  0  0  0  0
   19.2088  -58.6709   30.4704 O   0  0  0  0  0  0  0  0  0  0  0  0
   18.1463  -57.9661   29.9327 C   0  0  0  0  0  0  0  0  0  0  0  0
   18.2341  -56.4835   30.2225 C   0  0  0  0  0  0  0  0  0  0  0  0
   19.5565  -53.3924   35.0809 C   0  0  0  0  0  0  0  0  0  0  0  0
   19.8644  -54.2706   36.2239 C   0  0  0  0  0  0  0  0  0  0  0  0
   19.4753  -53.8666   37.5846 C   0  0  0  0  0  0  0  0  0  0  0  0
   18.1597  -53.4181   37.8515 N   0  0  0  0  0  0  0  0  0  0  0  0
   17.0315  -54.2485   38.0598 C   0  0  0  0  0  0  0  0  0  0  0  0
   16.9718  -55.5139   38.0586 O   0  0  0  0  0  0  0  0  0  0  0  0
   15.9223  -53.3961   38.2841 N   0  0  0  0  0  0  0  0  0  0  0  0
   16.4160  -52.0547   38.5872 C   0  0  0  0  0  0  0  0  0  0  0  0
   17.7476  -52.0687   37.9455 C   0  0  0  0  0  0  0  0  0  0  0  0
   18.3890  -51.0279   37.5546 O   0  0  0  0  0  0  0  0  0  0  0  0
   14.9133  -53.6416   38.2485 H   0  0  0  0  0  0  0  0  0  0  0  0
  1  2  1  0  0  0
  2  3  2  0  0  0
  2  7  1  0  0  0
  3  4  1  0  0  0
  4  5  2  0  0  0
  4 12  1  0  0  0
  5  6  1  0  0  0
  5  8  1  0  0  0
  6  7  2  0  0  0
  8  9  1  0  0  0
  9 10  1  0  0  0
  9 15  1  0  0  0
  9 19  1  0  0  0
 10 11  1  0  0  0
 11 12  1  0  0  0
 11 13  1  0  0  0
 13 14  2  0  0  0
 13 20  1  0  0  0
 20 21  1  0  0  0
 21 22  1  0  0  0
 22 23  1  0  0  0
 23 24  1  0  0  0
 23 28  1  0  0  0
 24 25  2  0  0  0
 24 26  1  0  0  0
 26 27  1  0  0  0
 27 28  1  0  0  0
 28 29  2  0  0  0
 15 16  1  0  0  0
 16 17  1  0  0  0
 17 18  1  0  0  0
 18 19  1  0  0  0
 26 30  1  0  0  0
M  END
> <minimizedAffinity>
-9.47677

$$$$
2402


 33 36  0  0  0  0  0  0  0  0999 V2000
   16.4034  -59.5985   33.1310 C   0  0  0  0  0  0  0  0  0  0  0  0
   14.9994  -59.8748   33.0652 N   0  0  0  0  0  0  0  0  0  0  0  0
   14.2465  -58.7400   33.4645 C   0  0  0  0  0  0  0  0  0  0  0  0
   13.0166  -58.5059   33.3815 O   0  0  0  0  0  0  0  0  0  0  0  0
   15.1788  -57.7527   34.0568 C   0  0  0  0  0  0  0  0  0  0  0  0
   14.8851  -56.6240   34.5241 O   0  0  0  0  0  0  0  0  0  0  0  0
   16.4870  -58.3749   33.9749 C   0  0  0  0  0  0  0  0  0  0  0  0
   17.5722  -57.8653   34.5712 C   0  0  0  0  0  0  0  0  0  0  0  0
   18.7479  -58.5933   34.3485 O   0  0  0  0  0  0  0  0  0  0  0  0
   17.5484  -56.6591   35.3905 C   0  0  0  0  0  0  0  0  0  0  0  0
   17.0154  -56.4306   36.5410 O   0  0  0  0  0  0  0  0  0  0  0  0
   17.1857  -55.2221   36.9880 C   0  0  0  0  0  0  0  0  0  0  0  0
   17.9222  -54.5248   36.0424 C   0  0  0  0  0  0  0  0  0  0  0  0
   18.1409  -55.4643   35.0331 C   0  0  0  0  0  0  0  0  0  0  0  0
   18.2469  -53.2079   36.2660 C   0  0  0  0  0  0  0  0  0  0  0  0
   17.8501  -52.5698   37.4184 C   0  0  0  0  0  0  0  0  0  0  0  0
   17.1121  -53.2606   38.3712 C   0  0  0  0  0  0  0  0  0  0  0  0
   16.7978  -54.5625   38.1408 C   0  0  0  0  0  0  0  0  0  0  0  0
   16.0667  -55.2767   39.0671 O   0  0  0  0  0  0  0  0  0  0  0  0
   14.6914  -55.6068   38.9285 C   0  0  0  0  0  0  0  0  0  0  0  0
   19.2598  -59.6011   27.6625 Br  0  0  0  0  0  0  0  0  0  0  0  0
   18.3773  -59.5149   29.3565 C   0  0  0  0  0  0  0  0  0  0  0  0
   18.0601  -60.6906   29.9730 C   0  0  0  0  0  0  0  0  0  0  0  0
   17.4295  -60.6681   31.1817 C   0  0  0  0  0  0  0  0  0  0  0  0
   17.0784  -59.5090   31.8472 C   0  0  0  0  0  0  0  0  0  0  0  0
   17.4107  -58.3365   31.2032 C   0  0  0  0  0  0  0  0  0  0  0  0
   18.0546  -58.3264   29.9671 C   0  0  0  0  0  0  0  0  0  0  0  0
   14.3996  -61.1152   32.6556 C   0  0  0  0  0  0  0  0  0  0  0  0
   13.6287  -61.7635   33.7911 C   0  0  0  0  0  0  0  0  0  0  0  0
   12.2173  -61.7211   33.6194 N   0  0  0  0  0  0  0  0  0  0  0  0
   11.6228  -62.8835   33.0335 C   0  0  0  0  0  0  0  0  0  0  0  0
   11.5505  -61.3781   34.8683 C   0  0  0  0  0  0  0  0  0  0  0  0
   12.0058  -60.9167   32.9563 H   0  0  0  0  0  0  0  0  0  0  0  0
 21 22  1  0  0  0
 22 23  2  0  0  0
 22 27  1  0  0  0
 23 24  1  0  0  0
 24 25  2  0  0  0
 25 26  1  0  0  0
 25  1  1  0  0  0
 26 27  2  0  0  0
  1  2  1  0  0  0
  1  7  1  0  0  0
  2  3  1  0  0  0
  2 28  1  0  0  0
  3  4  2  0  0  0
  3  5  1  0  0  0
  5  6  2  0  0  0
  5  7  1  0  0  0
  7  8  2  0  0  0
  8  9  1  0  0  0
  8 10  1  0  0  0
 10 11  1  0  0  0
 10 14  2  0  0  0
 11 12  1  0  0  0
 12 13  2  0  0  0
 12 18  1  0  0  0
 13 14  1  0  0  0
 13 15  1  0  0  0
 15 16  2  0  0  0
 16 17  1  0  0  0
 17 18  2  0  0  0
 18 19  1  0  0  0
 19 20  1  0  0  0
 28 29  1  0  0  0
 29 30  1  0  0  0
 30 31  1  0  0  0
 30 32  1  0  0  0
 30 33  1  0  0  0
M  CHG 1   9  -1
M  CHG 1  30   1
M  END
> <minimizedAffinity>
-8.54613

$$$$
2403


 26 29  0  0  0  0  0  0  0  0999 V2000
   17.1806  -57.2746   35.2147 C   0  0  0  0  0  0  0  0  0  0  0  0
   17.3919  -55.9786   35.8288 N   0  0  0  0  0  0  0  0  0  0  0  0
   18.2129  -54.9772   35.4809 C   0  0  0  0  0  0  0  0  0  0  0  0
   18.1088  -53.9173   36.3753 C   0  0  0  0  0  0  0  0  0  0  0  0
   17.1883  -54.3149   37.2853 N   0  0  0  0  0  0  0  0  0  0  0  0
   16.7599  -55.5381   36.9639 C   0  0  0  0  0  0  0  0  0  0  0  0
   18.8189  -52.7760   36.2643 N   0  0  0  0  0  0  0  0  0  0  0  0
   19.6611  -52.6973   35.2171 C   0  0  0  0  0  0  0  0  0  0  0  0
   20.3340  -51.6369   35.0974 O   0  0  0  0  0  0  0  0  0  0  0  0
   19.7986  -53.6901   34.3252 N   0  0  0  0  0  0  0  0  0  0  0  0
   19.0900  -54.8332   34.4343 C   0  0  0  0  0  0  0  0  0  0  0  0
   19.2021  -55.7655   33.6147 O   0  0  0  0  0  0  0  0  0  0  0  0
   20.7083  -53.6010   33.1965 C   0  0  0  0  0  0  0  0  0  0  0  0
   18.6649  -51.7075   37.2329 C   0  0  0  0  0  0  0  0  0  0  0  0
   10.0470  -60.3082   38.0151 Br  0  0  0  0  0  0  0  0  0  0  0  0
   11.7893  -59.6341   37.6398 C   0  0  0  0  0  0  0  0  0  0  0  0
   12.0761  -59.2689   36.3527 C   0  0  0  0  0  0  0  0  0  0  0  0
   13.3040  -58.7889   36.0649 N   0  0  0  0  0  0  0  0  0  0  0  0
   14.2373  -58.6671   37.0208 C   0  0  0  0  0  0  0  0  0  0  0  0
   15.4793  -58.1811   36.7290 N   0  0  0  0  0  0  0  0  0  0  0  0
   15.8031  -57.8111   35.4771 C   0  0  0  0  0  0  0  0  0  0  0  0
   14.8334  -57.9437   34.5144 C   0  0  0  0  0  0  0  0  0  0  0  0
   13.5713  -58.4301   34.7757 C   0  0  0  0  0  0  0  0  0  0  0  0
   12.6798  -58.5585   33.9228 O   0  0  0  0  0  0  0  0  0  0  0  0
   13.9556  -59.0339   38.3270 C   0  0  0  0  0  0  0  0  0  0  0  0
   12.7160  -59.5263   38.6511 C   0  0  0  0  0  0  0  0  0  0  0  0
 15 16  1  0  0  0
 16 17  2  0  0  0
 16 26  1  0  0  0
 17 18  1  0  0  0
 18 19  1  0  0  0
 18 23  1  0  0  0
 19 20  2  0  0  0
 19 25  1  0  0  0
 20 21  1  0  0  0
 21 22  2  0  0  0
 21  1  1  0  0  0
 22 23  1  0  0  0
 23 24  2  0  0  0
  1  2  1  0  0  0
  2  3  1  0  0  0
  2  6  1  0  0  0
  3  4  2  0  0  0
  3 11  1  0  0  0
  4  5  1  0  0  0
  4  7  1  0  0  0
  5  6  2  0  0  0
  7  8  1  0  0  0
  7 14  1  0  0  0
  8  9  2  0  0  0
  8 10  1  0  0  0
 10 11  1  0  0  0
 10 13  1  0  0  0
 11 12  2  0  0  0
 25 26  2  0  0  0
M  END
> <minimizedAffinity>
-9.16738

$$$$
2416


 34 37  0  0  0  0  0  0  0  0999 V2000
   18.4714  -57.0036   32.2298 N   0  0  0  0  0  0  0  0  0  0  0  0
   17.9304  -57.5431   31.0669 C   0  0  0  0  0  0  0  0  0  0  0  0
   17.6489  -59.0346   31.2936 C   0  0  0  0  0  0  0  0  0  0  0  0
   17.0988  -59.2285   32.6362 N   0  0  0  0  0  0  0  0  0  0  0  0
   17.9191  -58.7599   33.7358 C   0  0  0  0  0  0  0  0  0  0  0  0
   19.0506  -57.9340   33.1067 C   0  0  0  0  0  0  0  0  0  0  0  0
   15.8202  -59.8282   32.8096 C   0  0  0  0  0  0  0  0  0  0  0  0
   15.1987  -60.1726   31.7773 O   0  0  0  0  0  0  0  0  0  0  0  0
   18.7076  -55.3745   32.4244 S   0  0  0  0  0  0  0  0  0  0  0  0
   20.0523  -54.9997   31.8291 O   0  0  0  0  0  0  0  0  0  0  0  0
   17.6924  -54.5114   31.7046 O   0  0  0  0  0  0  0  0  0  0  0  0
   18.7502  -54.8525   34.1122 C   0  0  0  0  0  0  0  0  0  0  0  0
   19.8796  -54.2951   34.6656 C   0  0  0  0  0  0  0  0  0  0  0  0
   19.8662  -53.9079   35.9878 C   0  0  0  0  0  0  0  0  0  0  0  0
   18.7618  -54.0485   36.8075 C   0  0  0  0  0  0  0  0  0  0  0  0
   17.6223  -54.6116   36.2458 C   0  0  0  0  0  0  0  0  0  0  0  0
   17.6411  -54.9972   34.9247 C   0  0  0  0  0  0  0  0  0  0  0  0
   18.7355  -53.5625   38.4705 Cl  0  0  0  0  0  0  0  0  0  0  0  0
   15.2625  -60.0276   34.1469 C   0  0  0  0  0  0  0  0  0  0  0  0
   14.7301  -58.7576   34.7944 C   0  0  0  0  0  0  0  0  0  0  0  0
   15.0784  -58.6315   36.1850 N   0  0  0  0  0  0  0  0  0  0  0  0
   14.3059  -58.6964   37.3753 C   0  0  0  0  0  0  0  0  0  0  0  0
   14.7366  -58.1724   38.4365 O   0  0  0  0  0  0  0  0  0  0  0  0
   12.9822  -59.3340   37.5443 C   0  0  0  0  0  0  0  0  0  0  0  0
   12.0280  -59.5618   36.5465 C   0  0  0  0  0  0  0  0  0  0  0  0
   10.8505  -60.1745   36.8690 C   0  0  0  0  0  0  0  0  0  0  0  0
   10.5500  -60.5928   38.1667 C   0  0  0  0  0  0  0  0  0  0  0  0
   11.5219  -60.3535   39.1388 C   0  0  0  0  0  0  0  0  0  0  0  0
   12.7131  -59.7354   38.8277 C   0  0  0  0  0  0  0  0  0  0  0  0
   12.1558  -59.2108   35.1769 N   0  0  0  0  0  0  0  0  0  0  0  0
   13.2840  -58.6342   34.5118 C   0  0  0  0  0  0  0  0  0  0  0  0
   12.9404  -57.9013   33.5183 O   0  0  0  0  0  0  0  0  0  0  0  0
   16.1064  -58.4538   36.4147 H   0  0  0  0  0  0  0  0  0  0  0  0
   11.3333  -59.4009   34.6050 H   0  0  0  0  0  0  0  0  0  0  0  0
  9 10  2  0  0  0
  9 11  2  0  0  0
  9  1  1  0  0  0
  9 12  1  0  0  0
  1  2  1  0  0  0
  1  6  1  0  0  0
  2  3  1  0  0  0
  3  4  1  0  0  0
  4  5  1  0  0  0
  4  7  1  0  0  0
  5  6  1  0  0  0
  7  8  2  0  0  0
  7 19  1  0  0  0
 19 20  1  0  0  0
 20 21  1  0  0  0
 20 31  1  0  0  0
 21 22  1  0  0  0
 22 23  2  0  0  0
 22 24  1  0  0  0
 24 25  2  0  0  0
 24 29  1  0  0  0
 25 26  1  0  0  0
 25 30  1  0  0  0
 26 27  2  0  0  0
 27 28  1  0  0  0
 28 29  2  0  0  0
 30 31  1  0  0  0
 31 32  2  0  0  0
 12 13  2  0  0  0
 12 17  1  0  0  0
 13 14  1  0  0  0
 14 15  2  0  0  0
 15 16  1  0  0  0
 15 18  1  0  0  0
 16 17  2  0  0  0
 21 33  1  0  0  0
 30 34  1  0  0  0
M  END
> <minimizedAffinity>
-10.33625

$$$$
2417


 27 30  0  0  0  0  0  0  0  0999 V2000
   18.5633  -55.4001   33.5667 N   0  0  0  0  0  0  0  0  0  0  0  0
   17.1691  -55.8941   33.6456 C   0  0  0  0  0  0  0  0  0  0  0  0
   17.3198  -57.3220   33.3824 C   0  0  0  0  0  0  0  0  0  0  0  0
   18.1386  -57.2885   32.1018 C   0  0  0  0  0  0  0  0  0  0  0  0
   19.1879  -56.2119   32.6123 C   0  0  0  0  0  0  0  0  0  0  0  0
   17.4090  -56.5747   31.0006 C   0  0  0  0  0  0  0  0  0  0  0  0
   18.2484  -55.5624   30.4654 O   0  0  0  0  0  0  0  0  0  0  0  0
   19.0599  -56.0656   30.0706 H   0  0  0  0  0  0  0  0  0  0  0  0
   19.0744  -55.4078   34.9458 C   0  0  0  0  0  0  0  0  0  0  0  0
   16.7316  -55.7881   36.8585 Cl  0  0  0  0  0  0  0  0  0  0  0  0
   17.2488  -54.1655   37.3042 C   0  0  0  0  0  0  0  0  0  0  0  0
   18.2686  -53.6000   36.5768 C   0  0  0  0  0  0  0  0  0  0  0  0
   18.6033  -52.2966   36.8619 C   0  0  0  0  0  0  0  0  0  0  0  0
   19.6633  -52.0282   36.0683 N   0  0  0  0  0  0  0  0  0  0  0  0
   19.9663  -53.0877   35.3668 N   0  0  0  0  0  0  0  0  0  0  0  0
   19.1143  -54.1429   35.6355 C   0  0  0  0  0  0  0  0  0  0  0  0
   20.2838  -50.6979   35.9423 C   0  0  0  0  0  0  0  0  0  0  0  0
   17.9783  -51.5693   37.8286 C   0  0  0  0  0  0  0  0  0  0  0  0
   16.9468  -52.1625   38.5626 C   0  0  0  0  0  0  0  0  0  0  0  0
   16.5903  -53.4790   38.2885 C   0  0  0  0  0  0  0  0  0  0  0  0
   16.0399  -58.0905   33.1652 C   0  0  0  0  0  0  0  0  0  0  0  0
   15.2040  -57.9094   34.3102 N   0  0  0  0  0  0  0  0  0  0  0  0
   13.7987  -57.8136   33.9756 C   0  0  0  0  0  0  0  0  0  0  0  0
   12.9437  -58.8639   34.6460 C   0  0  0  0  0  0  0  0  0  0  0  0
   13.0900  -58.9162   36.0132 O   0  0  0  0  0  0  0  0  0  0  0  0
   14.3941  -58.6609   36.4273 C   0  0  0  0  0  0  0  0  0  0  0  0
   15.3383  -58.9519   35.3011 C   0  0  0  0  0  0  0  0  0  0  0  0
 10 11  1  0  0  0
 11 12  2  0  0  0
 11 20  1  0  0  0
 12 13  1  0  0  0
 12 16  1  0  0  0
 13 14  1  0  0  0
 13 18  2  0  0  0
 14 15  1  0  0  0
 14 17  1  0  0  0
 15 16  2  0  0  0
 16  9  1  0  0  0
  9  1  1  0  0  0
  1  2  1  0  0  0
  1  5  1  0  0  0
  2  3  1  0  0  0
  3  4  1  0  0  0
  3 21  1  0  0  0
  4  5  1  0  0  0
  4  6  1  0  0  0
  6  7  1  0  0  0
 21 22  1  0  0  0
 22 23  1  0  0  0
 22 27  1  0  0  0
 23 24  1  0  0  0
 24 25  1  0  0  0
 25 26  1  0  0  0
 26 27  1  0  0  0
 18 19  1  0  0  0
 19 20  2  0  0  0
  7  8  1  0  0  0
M  END
> <minimizedAffinity>
-9.05752

$$$$
2419


 32 36  0  0  0  0  0  0  0  0999 V2000
   15.5640  -56.9809   36.2517 C   0  0  0  0  0  0  0  0  0  0  0  0
   14.7135  -57.9355   35.6700 C   0  0  0  0  0  0  0  0  0  0  0  0
   13.8308  -58.2768   36.6001 N   0  0  0  0  0  0  0  0  0  0  0  0
   12.7597  -59.1141   36.7540 C   0  0  0  0  0  0  0  0  0  0  0  0
   12.3371  -58.9270   38.0459 C   0  0  0  0  0  0  0  0  0  0  0  0
   13.1350  -58.0246   38.5960 N   0  0  0  0  0  0  0  0  0  0  0  0
   14.0760  -57.6073   37.7013 C   0  0  0  0  0  0  0  0  0  0  0  0
   15.1534  -56.7895   37.5103 N   0  0  0  0  0  0  0  0  0  0  0  0
   11.2454  -59.6298   38.5641 C   0  0  0  0  0  0  0  0  0  0  0  0
   10.5731  -60.5300   37.7659 C   0  0  0  0  0  0  0  0  0  0  0  0
   11.0164  -60.6990   36.4739 C   0  0  0  0  0  0  0  0  0  0  0  0
   12.1016  -60.0050   35.9516 C   0  0  0  0  0  0  0  0  0  0  0  0
   13.0359  -57.7103   39.5799 H   0  0  0  0  0  0  0  0  0  0  0  0
   20.1748  -54.1621   33.2580 Br  0  0  0  0  0  0  0  0  0  0  0  0
   18.7454  -55.0583   34.1870 C   0  0  0  0  0  0  0  0  0  0  0  0
   17.6364  -54.3894   34.6056 C   0  0  0  0  0  0  0  0  0  0  0  0
   16.6257  -55.0295   35.2635 C   0  0  0  0  0  0  0  0  0  0  0  0
   16.6716  -56.3810   35.5402 C   0  0  0  0  0  0  0  0  0  0  0  0
   17.7738  -57.0477   35.1248 C   0  0  0  0  0  0  0  0  0  0  0  0
   18.8305  -56.3984   34.4412 C   0  0  0  0  0  0  0  0  0  0  0  0
   15.6488  -55.9541   38.5611 C   0  0  0  0  0  0  0  0  0  0  0  0
   15.0243  -54.6278   38.7264 C   0  0  0  0  0  0  0  0  0  0  0  0
   15.7413  -53.5902   39.5123 C   0  0  0  0  0  0  0  0  0  0  0  0
   16.1401  -52.4680   38.6918 N   0  0  0  0  0  0  0  0  0  0  0  0
   15.4259  -52.0723   38.0856 H   0  0  0  0  0  0  0  0  0  0  0  0
   16.3475  -51.6672   39.3937 H   0  0  0  0  0  0  0  0  0  0  0  0
   17.3804  -52.6802   38.0062 C   0  0  0  0  0  0  0  0  0  0  0  0
   18.1240  -51.4286   37.6342 C   0  0  0  0  0  0  0  0  0  0  0  0
   19.1090  -51.8315   36.5267 C   0  0  0  0  0  0  0  0  0  0  0  0
   20.0632  -52.8312   37.0821 C   0  0  0  0  0  0  0  0  0  0  0  0
   19.3923  -54.0134   37.7422 C   0  0  0  0  0  0  0  0  0  0  0  0
   18.3698  -53.5404   38.7818 C   0  0  0  0  0  0  0  0  0  0  0  0
 14 15  1  0  0  0
 15 16  2  0  0  0
 15 20  1  0  0  0
 16 17  1  0  0  0
 17 18  2  0  0  0
 18 19  1  0  0  0
 18  1  1  0  0  0
 19 20  2  0  0  0
  1  2  2  0  0  0
  1  8  1  0  0  0
  2  3  1  0  0  0
  3  4  1  0  0  0
  3  7  1  0  0  0
  4  5  2  0  0  0
  4 12  1  0  0  0
  5  6  1  0  0  0
  5  9  1  0  0  0
  6  7  2  0  0  0
  7  8  1  0  0  0
  8 21  1  0  0  0
 21 22  1  0  0  0
 22 23  1  0  0  0
 23 24  1  0  0  0
 24 27  1  0  0  0
 27 28  1  0  0  0
 27 32  1  0  0  0
 28 29  1  0  0  0
 29 30  1  0  0  0
 30 31  1  0  0  0
 31 32  1  0  0  0
  9 10  2  0  0  0
 10 11  1  0  0  0
 11 12  2  0  0  0
  6 13  1  0  0  0
 24 25  1  0  0  0
 24 26  1  0  0  0
M  CHG 1  24   1
M  END
> <minimizedAffinity>
-9.71798

$$$$
2420


 29 32  0  0  0  0  0  0  0  0999 V2000
   17.8530  -54.1862   37.2058 N   0  0  0  0  0  0  0  0  0  0  0  0
   19.2429  -54.0618   37.6407 C   0  0  0  0  0  0  0  0  0  0  0  0
   19.6561  -52.7211   37.0758 C   0  0  0  0  0  0  0  0  0  0  0  0
   18.4351  -51.8581   37.3711 C   0  0  0  0  0  0  0  0  0  0  0  0
   17.3184  -52.8675   37.3533 C   0  0  0  0  0  0  0  0  0  0  0  0
   16.0840  -52.5999   37.4528 O   0  0  0  0  0  0  0  0  0  0  0  0
   12.7291  -58.6929   39.0427 Br  0  0  0  0  0  0  0  0  0  0  0  0
   14.1339  -57.5871   38.3899 C   0  0  0  0  0  0  0  0  0  0  0  0
   14.7564  -57.8689   37.1945 C   0  0  0  0  0  0  0  0  0  0  0  0
   15.7639  -57.0877   36.7119 C   0  0  0  0  0  0  0  0  0  0  0  0
   16.5506  -57.1045   35.5988 N   0  0  0  0  0  0  0  0  0  0  0  0
   17.3892  -56.0802   35.6350 N   0  0  0  0  0  0  0  0  0  0  0  0
   17.1991  -55.3582   36.7472 C   0  0  0  0  0  0  0  0  0  0  0  0
   16.1704  -55.9923   37.4334 C   0  0  0  0  0  0  0  0  0  0  0  0
   15.5596  -55.6849   38.6429 C   0  0  0  0  0  0  0  0  0  0  0  0
   14.5421  -56.4748   39.1285 C   0  0  0  0  0  0  0  0  0  0  0  0
   16.4277  -57.8611   34.8807 H   0  0  0  0  0  0  0  0  0  0  0  0
   19.8978  -52.7875   35.6147 C   0  0  0  0  0  0  0  0  0  0  0  0
   20.1960  -51.7252   35.0143 O   0  0  0  0  0  0  0  0  0  0  0  0
   19.8042  -53.9920   34.8812 N   0  0  0  0  0  0  0  0  0  0  0  0
   19.5504  -54.8606   35.4174 H   0  0  0  0  0  0  0  0  0  0  0  0
   20.0383  -54.0638   33.4619 C   0  0  0  0  0  0  0  0  0  0  0  0
   18.8582  -54.7313   32.7880 C   0  0  0  0  0  0  0  0  0  0  0  0
   19.2431  -55.8394   31.9489 N   0  0  0  0  0  0  0  0  0  0  0  0
   18.6330  -57.0411   32.5068 C   0  0  0  0  0  0  0  0  0  0  0  0
   17.1972  -57.1859   32.0097 C   0  0  0  0  0  0  0  0  0  0  0  0
   17.1273  -57.4519   30.6623 O   0  0  0  0  0  0  0  0  0  0  0  0
   18.2825  -57.0254   30.0494 C   0  0  0  0  0  0  0  0  0  0  0  0
   18.7627  -55.6954   30.5934 C   0  0  0  0  0  0  0  0  0  0  0  0
  7  8  1  0  0  0
  8  9  2  0  0  0
  8 16  1  0  0  0
  9 10  1  0  0  0
 10 11  1  0  0  0
 10 14  2  0  0  0
 11 12  1  0  0  0
 12 13  2  0  0  0
 13 14  1  0  0  0
 13  1  1  0  0  0
 14 15  1  0  0  0
 15 16  2  0  0  0
  1  2  1  0  0  0
  1  5  1  0  0  0
  2  3  1  0  0  0
  3  4  1  0  0  0
  3 18  1  0  0  0
  4  5  1  0  0  0
  5  6  2  0  0  0
 18 19  2  0  0  0
 18 20  1  0  0  0
 20 22  1  0  0  0
 22 23  1  0  0  0
 23 24  1  0  0  0
 24 25  1  0  0  0
 24 29  1  0  0  0
 25 26  1  0  0  0
 26 27  1  0  0  0
 27 28  1  0  0  0
 28 29  1  0  0  0
 11 17  1  0  0  0
 20 21  1  0  0  0
M  END
> <minimizedAffinity>
-9.57567

$$$$
2432


 26 29  0  0  0  0  0  0  0  0999 V2000
   16.4754  -56.9266   32.9149 C   0  0  0  0  0  0  0  0  0  0  0  0
   15.4460  -56.4224   32.2600 O   0  0  0  0  0  0  0  0  0  0  0  0
   16.2137  -57.9685   33.7904 N   0  0  0  0  0  0  0  0  0  0  0  0
   14.8035  -58.3979   33.9522 C   0  0  0  0  0  0  0  0  0  0  0  0
   14.4655  -58.1731   35.4018 C   0  0  0  0  0  0  0  0  0  0  0  0
   15.5688  -57.7769   36.2183 N   0  0  0  0  0  0  0  0  0  0  0  0
   16.9443  -58.1978   35.9968 C   0  0  0  0  0  0  0  0  0  0  0  0
   17.1090  -58.7287   34.5809 C   0  0  0  0  0  0  0  0  0  0  0  0
   15.3529  -56.9147   37.3278 C   0  0  0  0  0  0  0  0  0  0  0  0
   14.4975  -57.2484   38.3123 N   0  0  0  0  0  0  0  0  0  0  0  0
   14.2781  -56.4385   39.3750 C   0  0  0  0  0  0  0  0  0  0  0  0
   14.9194  -55.2616   39.4766 N   0  0  0  0  0  0  0  0  0  0  0  0
   15.7885  -54.8562   38.5368 C   0  0  0  0  0  0  0  0  0  0  0  0
   16.5442  -53.7503   38.4042 N   0  0  0  0  0  0  0  0  0  0  0  0
   17.2184  -53.8743   37.2787 N   0  0  0  0  0  0  0  0  0  0  0  0
   16.9189  -55.0449   36.6687 C   0  0  0  0  0  0  0  0  0  0  0  0
   16.0035  -55.7051   37.4454 C   0  0  0  0  0  0  0  0  0  0  0  0
   16.6275  -52.6075   39.3143 C   0  0  0  0  0  0  0  0  0  0  0  0
   20.9086  -55.3939   30.4563 Cl  0  0  0  0  0  0  0  0  0  0  0  0
   19.5900  -55.5686   31.5941 C   0  0  0  0  0  0  0  0  0  0  0  0
   18.5223  -56.4118   31.5279 N   0  0  0  0  0  0  0  0  0  0  0  0
   17.7113  -56.2695   32.5774 C   0  0  0  0  0  0  0  0  0  0  0  0
   18.3244  -55.2687   33.3423 C   0  0  0  0  0  0  0  0  0  0  0  0
   19.4819  -54.8322   32.7424 C   0  0  0  0  0  0  0  0  0  0  0  0
   20.5937  -53.6027   33.3052 Cl  0  0  0  0  0  0  0  0  0  0  0  0
   18.4505  -57.0583   30.7170 H   0  0  0  0  0  0  0  0  0  0  0  0
 19 20  1  0  0  0
 20 21  1  0  0  0
 20 24  2  0  0  0
 21 22  1  0  0  0
 22 23  2  0  0  0
 22  1  1  0  0  0
 23 24  1  0  0  0
 24 25  1  0  0  0
  1  2  2  0  0  0
  1  3  1  0  0  0
  3  4  1  0  0  0
  3  8  1  0  0  0
  4  5  1  0  0  0
  5  6  1  0  0  0
  6  7  1  0  0  0
  6  9  1  0  0  0
  7  8  1  0  0  0
  9 10  2  0  0  0
  9 17  1  0  0  0
 10 11  1  0  0  0
 11 12  2  0  0  0
 12 13  1  0  0  0
 13 14  1  0  0  0
 13 17  2  0  0  0
 14 15  1  0  0  0
 14 18  1  0  0  0
 15 16  2  0  0  0
 16 17  1  0  0  0
 21 26  1  0  0  0
M  END
> <minimizedAffinity>
-8.55402

$$$$
2439


 30 34  0  0  0  0  0  0  0  0999 V2000
   15.2120  -57.2160   36.3430 C   0  0  0  0  0  0  0  0  0  0  0  0
   14.2291  -58.1415   35.9490 C   0  0  0  0  0  0  0  0  0  0  0  0
   13.4578  -58.4270   36.9957 N   0  0  0  0  0  0  0  0  0  0  0  0
   12.3913  -59.1775   37.3763 C   0  0  0  0  0  0  0  0  0  0  0  0
   12.1861  -58.9236   38.6892 C   0  0  0  0  0  0  0  0  0  0  0  0
   13.1177  -58.0380   39.0716 N   0  0  0  0  0  0  0  0  0  0  0  0
   13.9164  -57.7181   38.0289 C   0  0  0  0  0  0  0  0  0  0  0  0
   14.9981  -56.9652   37.6423 N   0  0  0  0  0  0  0  0  0  0  0  0
   11.1570  -59.5450   39.3742 C   0  0  0  0  0  0  0  0  0  0  0  0
   10.3178  -60.4398   38.7304 C   0  0  0  0  0  0  0  0  0  0  0  0
   10.5285  -60.6999   37.3829 C   0  0  0  0  0  0  0  0  0  0  0  0
   11.5616  -60.0629   36.7330 C   0  0  0  0  0  0  0  0  0  0  0  0
   13.2277  -57.6487   40.0439 H   0  0  0  0  0  0  0  0  0  0  0  0
   19.2476  -55.1556   32.1085 Br  0  0  0  0  0  0  0  0  0  0  0  0
   18.0229  -55.7873   33.4117 C   0  0  0  0  0  0  0  0  0  0  0  0
   16.7724  -56.2166   33.0746 C   0  0  0  0  0  0  0  0  0  0  0  0
   15.9066  -56.6702   34.0504 C   0  0  0  0  0  0  0  0  0  0  0  0
   16.2285  -56.7246   35.4060 C   0  0  0  0  0  0  0  0  0  0  0  0
   17.4779  -56.2947   35.7297 C   0  0  0  0  0  0  0  0  0  0  0  0
   18.3697  -55.8274   34.7341 C   0  0  0  0  0  0  0  0  0  0  0  0
   15.7296  -56.1157   38.5226 C   0  0  0  0  0  0  0  0  0  0  0  0
   15.2277  -54.6984   38.6266 C   0  0  0  0  0  0  0  0  0  0  0  0
   15.9986  -53.6666   37.9321 C   0  0  0  0  0  0  0  0  0  0  0  0
   16.9840  -52.9126   38.6497 N   0  0  0  0  0  0  0  0  0  0  0  0
   18.0914  -53.7348   39.1030 C   0  0  0  0  0  0  0  0  0  0  0  0
   19.2078  -53.9006   38.1619 C   0  0  0  0  0  0  0  0  0  0  0  0
   19.2192  -53.0121   36.9740 C   0  0  0  0  0  0  0  0  0  0  0  0
   18.6477  -51.6765   37.2941 C   0  0  0  0  0  0  0  0  0  0  0  0
   17.3687  -51.6872   38.0445 C   0  0  0  0  0  0  0  0  0  0  0  0
   16.5163  -52.6653   39.5506 H   0  0  0  0  0  0  0  0  0  0  0  0
 14 15  1  0  0  0
 15 16  2  0  0  0
 15 20  1  0  0  0
 16 17  1  0  0  0
 17 18  2  0  0  0
 18 19  1  0  0  0
 18  1  1  0  0  0
 19 20  2  0  0  0
  1  2  2  0  0  0
  1  8  1  0  0  0
  2  3  1  0  0  0
  3  4  1  0  0  0
  3  7  1  0  0  0
  4  5  2  0  0  0
  4 12  1  0  0  0
  5  6  1  0  0  0
  5  9  1  0  0  0
  6  7  2  0  0  0
  7  8  1  0  0  0
  8 21  1  0  0  0
 21 22  1  0  0  0
 22 23  1  0  0  0
 23 24  1  0  0  0
 24 25  1  0  0  0
 24 29  1  0  0  0
 25 26  1  0  0  0
 26 27  1  0  0  0
 27 28  1  0  0  0
 28 29  1  0  0  0
  9 10  2  0  0  0
 10 11  1  0  0  0
 11 12  2  0  0  0
  6 13  1  0  0  0
 24 30  1  0  0  0
M  CHG 1  24   1
M  END
> <minimizedAffinity>
-9.77719

$$$$
2440


 33 36  0  0  0  0  0  0  0  0999 V2000
   15.3609  -61.6452   33.2574 Cl  0  0  0  0  0  0  0  0  0  0  0  0
   14.8652  -60.1408   34.0267 C   0  0  0  0  0  0  0  0  0  0  0  0
   15.8588  -59.1749   34.2453 C   0  0  0  0  0  0  0  0  0  0  0  0
   15.4692  -58.0076   34.8430 C   0  0  0  0  0  0  0  0  0  0  0  0
   14.1285  -57.7867   35.2225 C   0  0  0  0  0  0  0  0  0  0  0  0
   13.1656  -58.7390   35.0039 C   0  0  0  0  0  0  0  0  0  0  0  0
   13.5633  -59.9125   34.4012 C   0  0  0  0  0  0  0  0  0  0  0  0
   16.6531  -57.1456   34.9616 C   0  0  0  0  0  0  0  0  0  0  0  0
   16.8904  -56.6421   36.2669 N   0  0  0  0  0  0  0  0  0  0  0  0
   17.5422  -55.4074   36.2326 C   0  0  0  0  0  0  0  0  0  0  0  0
   17.3418  -54.8970   34.8222 C   0  0  0  0  0  0  0  0  0  0  0  0
   16.4951  -55.8939   34.1005 C   0  0  0  0  0  0  0  0  0  0  0  0
   17.0695  -56.0712   32.7410 C   0  0  0  0  0  0  0  0  0  0  0  0
   16.5382  -56.7625   31.8409 O   0  0  0  0  0  0  0  0  0  0  0  0
   18.2883  -55.3292   32.6795 N   0  0  0  0  0  0  0  0  0  0  0  0
   18.5851  -54.9121   34.0206 C   0  0  0  0  0  0  0  0  0  0  0  0
   19.7193  -54.6134   34.4265 O   0  0  0  0  0  0  0  0  0  0  0  0
   17.7637  -57.9325   34.4177 C   0  0  0  0  0  0  0  0  0  0  0  0
   18.9931  -57.6241   34.3315 O   0  0  0  0  0  0  0  0  0  0  0  0
   17.2536  -59.1725   33.9666 N   0  0  0  0  0  0  0  0  0  0  0  0
   17.1985  -57.3327   36.9712 H   0  0  0  0  0  0  0  0  0  0  0  0
   17.7632  -59.9650   33.5095 H   0  0  0  0  0  0  0  0  0  0  0  0
   19.0829  -55.0316   31.5276 C   0  0  0  0  0  0  0  0  0  0  0  0
   19.8798  -56.1581   30.9748 C   0  0  0  0  0  0  0  0  0  0  0  0
   21.0833  -55.7952   30.1795 C   0  0  0  0  0  0  0  0  0  0  0  0
   21.8846  -57.0258   29.7699 C   0  0  0  0  0  0  0  0  0  0  0  0
   17.2368  -54.3975   37.2694 C   0  0  0  0  0  0  0  0  0  0  0  0
   18.3571  -53.6464   37.8693 C   0  0  0  0  0  0  0  0  0  0  0  0
   18.6720  -52.3306   37.3033 C   0  0  0  0  0  0  0  0  0  0  0  0
   18.0896  -51.3092   37.7128 O   0  0  0  0  0  0  0  0  0  0  0  0
   19.6419  -52.1425   36.2760 N   0  0  0  0  0  0  0  0  0  0  0  0
   20.6583  -52.2801   36.4170 H   0  0  0  0  0  0  0  0  0  0  0  0
   19.3182  -51.8542   35.3373 H   0  0  0  0  0  0  0  0  0  0  0  0
  1  2  1  0  0  0
  2  3  2  0  0  0
  2  7  1  0  0  0
  3  4  1  0  0  0
  3 20  1  0  0  0
  4  5  2  0  0  0
  4  8  1  0  0  0
  5  6  1  0  0  0
  6  7  2  0  0  0
  8  9  1  0  0  0
  8 12  1  0  0  0
  8 18  1  0  0  0
  9 10  1  0  0  0
 10 11  1  0  0  0
 10 27  1  0  0  0
 11 12  1  0  0  0
 11 16  1  0  0  0
 12 13  1  0  0  0
 13 14  2  0  0  0
 13 15  1  0  0  0
 15 16  1  0  0  0
 15 23  1  0  0  0
 16 17  2  0  0  0
 23 24  1  0  0  0
 24 25  1  0  0  0
 25 26  1  0  0  0
 27 28  1  0  0  0
 28 29  1  0  0  0
 29 30  2  0  0  0
 29 31  1  0  0  0
 18 19  2  0  0  0
 18 20  1  0  0  0
  9 21  1  0  0  0
 31 32  1  0  0  0
 31 33  1  0  0  0
 20 22  1  0  0  0
M  END
> <minimizedAffinity>
-8.61194

$$$$
2447


 33 36  0  0  0  0  0  0  0  0999 V2000
   17.2688  -56.2221   33.8194 C   0  0  0  0  0  0  0  0  0  0  0  0
   17.3711  -56.5546   32.3689 C   0  0  0  0  0  0  0  0  0  0  0  0
   16.4350  -57.0932   31.7314 O   0  0  0  0  0  0  0  0  0  0  0  0
   18.5947  -56.2124   31.7992 O   0  0  0  0  0  0  0  0  0  0  0  0
   19.4017  -55.1813   32.2327 C   0  0  0  0  0  0  0  0  0  0  0  0
   18.9768  -54.4483   33.2849 C   0  0  0  0  0  0  0  0  0  0  0  0
   17.7066  -54.7820   33.8924 C   0  0  0  0  0  0  0  0  0  0  0  0
   16.9905  -53.9351   34.4523 O   0  0  0  0  0  0  0  0  0  0  0  0
   15.8993  -56.4076   34.3698 C   0  0  0  0  0  0  0  0  0  0  0  0
   13.9833  -60.0003   35.0310 N   0  0  0  0  0  0  0  0  0  0  0  0
   13.5110  -58.6584   35.1001 C   0  0  0  0  0  0  0  0  0  0  0  0
   14.0481  -57.8924   33.9070 C   0  0  0  0  0  0  0  0  0  0  0  0
   15.4679  -57.7348   34.1037 N   0  0  0  0  0  0  0  0  0  0  0  0
   16.1040  -58.7875   34.8047 C   0  0  0  0  0  0  0  0  0  0  0  0
   15.3208  -60.0738   34.5383 C   0  0  0  0  0  0  0  0  0  0  0  0
   12.8963  -61.1020   34.3297 S   0  0  0  0  0  0  0  0  0  0  0  0
   11.4940  -60.5506   34.1850 O   0  0  0  0  0  0  0  0  0  0  0  0
   13.3741  -61.3976   32.9141 O   0  0  0  0  0  0  0  0  0  0  0  0
   12.7974  -62.6359   35.1733 C   0  0  0  0  0  0  0  0  0  0  0  0
   19.7715  -53.3226   33.7947 C   0  0  0  0  0  0  0  0  0  0  0  0
   20.0418  -53.3486   35.1730 N   0  0  0  0  0  0  0  0  0  0  0  0
   20.1187  -54.5587   35.8730 C   0  0  0  0  0  0  0  0  0  0  0  0
   19.8851  -54.3236   37.3826 C   0  0  0  0  0  0  0  0  0  0  0  0
   18.7048  -53.5005   37.4503 N   0  0  0  0  0  0  0  0  0  0  0  0
   18.8953  -52.1386   36.9724 C   0  0  0  0  0  0  0  0  0  0  0  0
   19.9754  -52.1330   35.8992 C   0  0  0  0  0  0  0  0  0  0  0  0
   17.4682  -53.9780   37.9267 C   0  0  0  0  0  0  0  0  0  0  0  0
   17.0060  -55.2563   37.7109 C   0  0  0  0  0  0  0  0  0  0  0  0
   15.7905  -55.6712   38.2029 C   0  0  0  0  0  0  0  0  0  0  0  0
   14.9722  -54.8414   38.9330 C   0  0  0  0  0  0  0  0  0  0  0  0
   15.4052  -53.5615   39.1646 C   0  0  0  0  0  0  0  0  0  0  0  0
   16.6303  -53.1393   38.6696 C   0  0  0  0  0  0  0  0  0  0  0  0
   15.2594  -57.3025   37.8952 Cl  0  0  0  0  0  0  0  0  0  0  0  0
 16 17  2  0  0  0
 16 18  2  0  0  0
 16 10  1  0  0  0
 16 19  1  0  0  0
 10 11  1  0  0  0
 10 15  1  0  0  0
 11 12  1  0  0  0
 12 13  1  0  0  0
 13 14  1  0  0  0
 13  9  1  0  0  0
 14 15  1  0  0  0
  9  1  1  0  0  0
  1  2  1  0  0  0
  1  7  1  0  0  0
  2  3  2  0  0  0
  2  4  1  0  0  0
  4  5  1  0  0  0
  5  6  2  0  0  0
  6  7  1  0  0  0
  6 20  1  0  0  0
  7  8  2  0  0  0
 20 21  1  0  0  0
 21 22  1  0  0  0
 21 26  1  0  0  0
 22 23  1  0  0  0
 23 24  1  0  0  0
 24 25  1  0  0  0
 24 27  1  0  0  0
 25 26  1  0  0  0
 27 28  2  0  0  0
 27 32  1  0  0  0
 28 29  1  0  0  0
 29 30  2  0  0  0
 29 33  1  0  0  0
 30 31  1  0  0  0
 31 32  2  0  0  0
M  END
> <minimizedAffinity>
-9.52725

$$$$
