@<TRIPOS>MOLECULE
2jam.A
57 59 1 0 0 
SMALL
USER_CHARGES


@<TRIPOS>ATOM
  1 CAA     10.3470     0.1250     8.9960 C.2   1 J   0.1400 
  2 CAB     10.7220    -0.8790     8.0850 C.2   1 J  -0.1500 
  3 HAB      9.9817    -1.5536     7.6809 H     1 J   0.1500 
  4 CAC     12.0610    -0.9940     7.7090 C.2   1 J  -0.1356 
  5 HAC     12.3669    -1.7663     7.0188 H     1 J   0.1500 
  6 CAD     11.2900     1.0090     9.5230 C.2   1 J  -0.1500 
  7 HAD     10.9866     1.7743    10.2220 H     1 J   0.1500 
  8 CAE     12.6190     0.8980     9.1430 C.2   1 J   0.0144 
  9 CAF     13.0060    -0.1020     8.2320 C.2   1 J   0.4212 
 10 CAG     13.7750     1.6180     9.4950 C.2   1 J  -0.1238 
 11 CAI     14.8110     1.0150     8.7620 C.2   1 J   0.7666 
 12 CAK     13.7630     2.7290    10.3820 C.3   1 J   0.1582 
 13 HAK1    13.1741     2.3999    11.2382 H     1 J   0.0800 
 14 HAK2    13.2223     3.5103     9.8479 H     1 J   0.0800 
 15 CAL     14.8780     3.3730    10.9350 C.2   1 J  -0.3316 
 16 CAM     14.7760     4.4150    11.8750 C.2   1 J  -0.1810 
 17 CAN     16.0640     4.8130    12.2050 C.2   1 J  -0.0860 
 18 CAO     16.9080     3.9930    11.4620 C.2   1 J  -0.3316 
 19 CAQ     13.4740     5.0090    12.4300 C.3   1 J  -0.0590 
 20 HAQ1    12.6218     4.4937    11.9870 H     1 J   0.0800 
 21 HAQ2    13.4250     6.0698    12.1845 H     1 J   0.0800 
 22 HAQ3    13.4507     4.8852    13.5127 H     1 J   0.0800 
 23 CAR     18.4360     3.9750    11.4520 C.3   1 J  -0.0600 
 24 HAR1    18.8128     4.7379    12.1332 H     1 J   0.0800 
 25 HAR2    18.7952     4.1791    10.4433 H     1 J   0.0800 
 26 HAR3    18.7899     2.9951    11.7723 H     1 J   0.0800 
 27 CAS     16.5290     5.9020    13.2400 C.2   1 J   0.7160 
 28 CAV     15.9080     7.7930    14.7330 C.3   1 J   0.1401 
 29 HAV1    16.9839     7.9538    14.8020 H     1 J   0.0800 
 30 HAV2    15.4179     8.7271    14.4586 H     1 J   0.0800 
 31 CAW     15.3570     7.2790    16.0880 C.3   1 J   0.3430 
 32 HAW1    16.1593     6.7413    16.5933 H     1 J   0.0800 
 33 HAW2    14.5365     6.5931    15.8772 H     1 J   0.0800 
 34 CAY     13.4020     8.5900    16.8300 C.3   1 J   0.3430 
 35 HAY1    13.0698     9.2886    17.5979 H     1 J   0.0800 
 36 HAY2    12.8593     7.6505    16.9343 H     1 J   0.0800 
 37 CAZ     15.6390     9.5850    17.0030 C.3   1 J   0.3430 
 38 HAZ1    15.1756    10.2947    16.3177 H     1 J   0.0800 
 39 HAZ2    16.6554     9.3713    16.6723 H     1 J   0.0800 
 40 NAH     14.3310     0.0130     8.0380 N.2   1 J  -0.6610 
 41 NAP     16.1860     3.1600    10.7170 N.pl3 1 J   0.0332 
 42 HAP     16.5646     2.4711    10.0829 H     1 J   0.2700 
 43 NAU     15.6110     6.7430    13.7230 N.am  1 J  -0.7301 
 44 HAU     14.6632     6.6614    13.3837 H     1 J   0.3700 
 45 NAX     14.8500     8.3270    17.0200 N.4   1 J  -0.9590 
 46 HAX     14.9763     7.9384    17.9437 H     1 J   0.4500 
 47 OAJ     16.0140     1.3060     8.7530 O.2   1 J  -0.5700 
 48 OAT     17.6950     5.9150    13.6200 O.2   1 J  -0.5700 
 49 CBA     15.6770    10.1890    18.4170 C.3   1 J  -0.2400 
 50 HBA1    16.2565    11.1121    18.4023 H     1 J   0.0800 
 51 HBA2    16.1406     9.4798    19.1027 H     1 J   0.0800 
 52 HBA3    14.6608    10.4031    18.7481 H     1 J   0.0800 
 53 CBB     13.0890     9.1900    15.4480 C.3   1 J  -0.2400 
 54 HBB1    12.0163     9.3629    15.3615 H     1 J   0.0800 
 55 HBB2    13.4093     8.4970    14.6700 H     1 J   0.0800 
 56 HBB3    13.6197    10.1352    15.3336 H     1 J   0.0800 
 57 CL       8.7050     0.2710     9.5060 Cl    1 J  -0.1400 
@<TRIPOS>BOND
  1   1   2  1   
  2   1   6  2   
  3   1  57  1   
  4   2   3  1   
  5   2   4  2   
  6   4   5  1   
  7   4   9  1   
  8   6   7  1   
  9   6   8  1   
 10   8   9  1   
 11   8  10  2   
 12   9  40  2   
 13  10  11  1   
 14  10  12  1   
 15  11  40  1   
 16  11  47  2   
 17  12  13  1   
 18  12  14  1   
 19  12  15  1   
 20  15  16  2   
 21  15  41  1   
 22  16  17  1   
 23  16  19  1   
 24  17  18  2   
 25  17  27  1   
 26  18  23  1   
 27  18  41  1   
 28  19  20  1   
 29  19  21  1   
 30  19  22  1   
 31  23  24  1   
 32  23  25  1   
 33  23  26  1   
 34  27  43  am  
 35  27  48  2   
 36  28  29  1   
 37  28  30  1   
 38  28  31  1   
 39  28  43  1   
 40  31  32  1   
 41  31  33  1   
 42  31  45  1   
 43  34  35  1   
 44  34  36  1   
 45  34  45  1   
 46  34  53  1   
 47  37  38  1   
 48  37  39  1   
 49  37  45  1   
 50  37  49  1   
 51  41  42  1   
 52  43  44  1   
 53  45  46  1   
 54  49  50  1   
 55  49  51  1   
 56  49  52  1   
 57  53  54  1   
 58  53  55  1   
 59  53  56  1   
@<TRIPOS>SUBSTRUCTURE
  1 J  16 GROUP 4 A **** 0

# MOE 2018.01 (io_trps.svl 2018.01)
