@<TRIPOS>MOLECULE
3e7o.B
42 46 1 0 0 
SMALL
USER_CHARGES


@<TRIPOS>ATOM
  1 C1     -39.2030   -68.4120    51.6970 C.ar  1 Q35F2   0.0862 
  2 C2     -38.5470   -69.4680    52.3340 C.ar  1 Q35F2  -0.1500 
  3 H2     -37.6579   -69.8936    51.8926 H     1 Q35F2   0.1500 
  4 C3     -39.0380   -69.9770    53.5430 C.ar  1 Q35F2  -0.1500 
  5 H3     -38.5331   -70.7908    54.0422 H     1 Q35F2   0.1500 
  6 C4     -40.3510   -67.8540    52.2560 C.ar  1 Q35F2  -0.1500 
  7 H4     -40.8561   -67.0340    51.7672 H     1 Q35F2   0.1500 
  8 C5     -40.8350   -68.3680    53.4500 C.ar  1 Q35F2   0.0000 
  9 C6     -40.1890   -69.4150    54.0900 C.ar  1 Q35F2  -0.1516 
 10 N7     -40.8820   -69.6860    55.2030 N.pl3 1 Q35F2   0.2996 
 11 H7     -40.6603   -70.4044    55.8774 H     1 Q35F2   0.2700 
 12 N8     -41.9620   -68.8070    55.2720 N.2   1 Q35F2  -0.7068 
 13 C9     -41.9350   -67.9890    54.2110 C.2   1 Q35F2   0.2348 
 14 C10    -42.9750   -66.9510    53.9390 C.ar  1 Q35F2   0.0540 
 15 C11    -44.2700   -67.2800    54.3290 C.ar  1 Q35F2  -0.1500 
 16 H11    -44.4489   -68.2294    54.8118 H     1 Q35F2   0.1500 
 17 C12    -45.3390   -66.4180    54.1130 C.ar  1 Q35F2   0.1170 
 18 C13    -45.1180   -65.1880    53.4890 C.ar  1 Q35F2  -0.1500 
 19 H13    -45.9370   -64.5046    53.3200 H     1 Q35F2   0.1500 
 20 C14    -43.8200   -64.8540    53.0860 C.ar  1 Q35F2  -0.1500 
 21 H14    -43.6411   -63.9054    52.6016 H     1 Q35F2   0.1500 
 22 C15    -42.7510   -65.7300    53.3010 C.ar  1 Q35F2  -0.1500 
 23 H15    -41.7567   -65.4628    52.9748 H     1 Q35F2   0.1500 
 24 N16    -46.5560   -66.8340    54.5610 N.am  1 Q35F2  -0.5470 
 25 H16    -46.5720   -67.3386    55.4357 H     1 Q35F2   0.3700 
 26 C17    -38.6750   -67.8660    50.4160 C.2   1 Q35F2   0.5748 
 27 N18    -37.5650   -68.2840    49.7710 N.2   1 Q35F2  -0.2110 
 28 N19    -37.4410   -67.5130    48.6080 N.2   1 Q35F2  -0.2460 
 29 C20    -38.4770   -66.6500    48.5890 C.3   1 Q35F2   0.3320 
 30 H201   -39.0813   -66.8172    47.6974 H     1 Q35F2   0.0800 
 31 H202   -38.1049   -65.6255    48.5889 H     1 Q35F2   0.0800 
 32 N21    -39.2220   -66.8670    49.6950 N.2   1 Q35F2  -0.6960 
 33 C22    -47.7310   -66.6390    53.9550 C.2   1 Q35F2   0.7150 
 34 O23    -47.8110   -66.0480    52.8970 O.2   1 Q35F2  -0.5700 
 35 C24    -48.8420   -67.1010    54.5430 C.2   1 Q35F2   0.0550 
 36 C25    -48.9160   -67.8190    55.6720 C.2   1 Q35F2  -0.1500 
 37 H25    -48.0668   -68.1193    56.2679 H     1 Q35F2   0.1500 
 38 C26    -50.1270   -68.0970    55.9430 C.2   1 Q35F2  -0.1500 
 39 H26    -50.4215   -68.6673    56.8116 H     1 Q35F2   0.1500 
 40 C27    -50.9590   -67.6410    55.0960 C.2   1 Q35F2  -0.0100 
 41 H27    -52.0324   -67.7561    55.1277 H     1 Q35F2   0.1500 
 42 O28    -50.1980   -66.9360    54.0770 O.3   1 Q35F2  -0.2800 
@<TRIPOS>BOND
  1   1   2  ar  
  2   1   6  ar  
  3   1  26  1   
  4   2   3  1   
  5   2   4  ar  
  6   4   5  1   
  7   4   9  ar  
  8   6   7  1   
  9   6   8  ar  
 10   8   9  ar  
 11   8  13  1   
 12   9  10  1   
 13  10  11  1   
 14  10  12  1   
 15  12  13  2   
 16  13  14  1   
 17  14  15  ar  
 18  14  22  ar  
 19  15  16  1   
 20  15  17  ar  
 21  17  18  ar  
 22  17  24  1   
 23  18  19  1   
 24  18  20  ar  
 25  20  21  1   
 26  20  22  ar  
 27  22  23  1   
 28  24  25  1   
 29  24  33  am  
 30  26  27  1   
 31  26  32  2   
 32  27  28  2   
 33  28  29  1   
 34  29  30  1   
 35  29  31  1   
 36  29  32  1   
 37  33  34  2   
 38  33  35  1   
 39  35  36  2   
 40  35  42  1   
 41  36  37  1   
 42  36  38  1   
 43  38  39  1   
 44  38  40  2   
 45  40  41  1   
 46  40  42  1   
@<TRIPOS>SUBSTRUCTURE
  1 Q35F2  14 GROUP 4 B **** 0

# MOE 2018.01 (io_trps.svl 2018.01)
