@<TRIPOS>MOLECULE
3ELJ.A
55 58 1 0 0 
SMALL
USER_CHARGES


@<TRIPOS>ATOM
  1 C11     20.7730     8.5190    32.3400 C.ar  1 GS7   0.4100 
  2 N2      21.3920     7.3760    31.9960 N.ar  1 GS7  -0.6200 
  3 C19     19.5210     8.3970    32.9060 C.ar  1 GS7   0.0000 
  4 C22     19.0130     7.1340    33.0720 C.ar  1 GS7   0.1054 
  5 N5      17.7770     7.2490    33.6400 N.pl3 1 GS7   0.0332 
  6 H5      17.1713     6.4749    33.8726 H     1 GS7   0.2700 
  7 C21     17.4810     8.5660    33.8470 C.2   1 GS7  -0.3016 
  8 H21     16.5728     8.9547    34.2835 H     1 GS7   0.1500 
  9 C20     18.5510     9.3090    33.3980 C.2   1 GS7  -0.1500 
 10 H20     18.6359    10.3855    33.4169 H     1 GS7   0.1500 
 11 N6      19.6100     5.9950    32.7410 N.ar  1 GS7  -0.5670 
 12 C10     20.8160     6.1850    32.2010 C.ar  1 GS7   0.7200 
 13 N1      21.4930     5.0070    31.8270 N.pl3 1 GS7  -0.6000 
 14 H1      21.0361     4.1248    32.0088 H     1 GS7   0.4000 
 15 C9      22.7630     4.9740    31.2170 C.ar  1 GS7   0.1000 
 16 C2      23.6990     4.0630    31.6580 C.ar  1 GS7   0.0825 
 17 O1      23.2950     3.2430    32.7030 O.3   1 GS7  -0.3625 
 18 C1      24.1830     2.1400    32.8230 C.3   1 GS7   0.0400 
 19 H11     23.8598     1.5011    33.6448 H     1 GS7   0.0800 
 20 H12     25.1908     2.5048    33.0211 H     1 GS7   0.0800 
 21 H13     24.1795     1.5681    31.8951 H     1 GS7   0.0800 
 22 C8      23.0940     5.8190    30.1790 C.ar  1 GS7  -0.1500 
 23 H8      22.3690     6.5316    29.8143 H     1 GS7   0.1500 
 24 C7      24.3440     5.7590    29.6050 C.ar  1 GS7  -0.1500 
 25 H7      24.5953     6.4356    28.8016 H     1 GS7   0.1500 
 26 C4      25.2790     4.8450    30.0440 C.ar  1 GS7  -0.1435 
 27 C3      24.9550     3.9930    31.0800 C.ar  1 GS7  -0.1500 
 28 H3      25.6778     3.2750    31.4382 H     1 GS7   0.1500 
 29 C5      26.6290     4.8080    29.4040 C.3   1 GS7   0.0887 
 30 H51     27.3543     4.3879    30.1008 H     1 GS7   0.0800 
 31 H52     26.9326     5.8180    29.1286 H     1 GS7   0.0800 
 32 S       26.5390     3.7910    27.9470 S.o2  1 GS7   1.0896 
 33 O2      25.6290     4.4050    26.9980 O.2   1 GS7  -0.6500 
 34 O3      26.3330     2.4240    28.3880 O.2   1 GS7  -0.6500 
 35 C6      28.1780     3.9200    27.2980 C.3   1 GS7  -0.1348 
 36 H61     28.3555     4.9409    26.9598 H     1 GS7   0.0800 
 37 H62     28.2914     3.2342    26.4584 H     1 GS7   0.0800 
 38 H63     28.8979     3.6645    28.0756 H     1 GS7   0.0800 
 39 O4      20.8260    12.3130    32.6810 O.2   1 GS7  -0.5700 
 40 C18     21.7270    12.5310    31.8800 C.2   1 GS7   0.5438 
 41 N4      21.8210    13.6440    31.0860 N.am  1 GS7  -0.8000 
 42 H41     21.1122    14.3618    31.1366 H     1 GS7   0.3700 
 43 H42     22.5990    13.7465    30.4502 H     1 GS7   0.3700 
 44 C17     22.8270    11.5640    31.7060 C.ar  1 GS7   0.0862 
 45 C16     24.0940    12.0080    31.3940 C.ar  1 GS7   0.1900 
 46 F       24.3470    13.3170    31.2440 F     1 GS7  -0.1900 
 47 C15     25.1190    11.1050    31.2310 C.ar  1 GS7  -0.1500 
 48 H15     26.1126    11.4497    30.9852 H     1 GS7   0.1500 
 49 C14     24.8710     9.7600    31.3830 C.ar  1 GS7  -0.1500 
 50 H14     25.6723     9.0471    31.2557 H     1 GS7   0.1500 
 51 C13     23.6040     9.3200    31.6970 C.ar  1 GS7  -0.1500 
 52 H13     23.4198     8.2625    31.8159 H     1 GS7   0.1500 
 53 C12     22.5690    10.2150    31.8610 C.ar  1 GS7   0.1000 
 54 N3      21.2650     9.8190    32.1790 N.pl3 1 GS7  -0.6000 
 55 H3      20.5957    10.5643    32.3084 H     1 GS7   0.4000 
@<TRIPOS>BOND
  1   1   2  ar  
  2   1   3  ar  
  3   1  54  1   
  4   2  12  ar  
  5   3   4  ar  
  6   3   9  1   
  7   4   5  1   
  8   4  11  ar  
  9   5   6  1   
 10   5   7  1   
 11   7   8  1   
 12   7   9  2   
 13   9  10  1   
 14  11  12  ar  
 15  12  13  1   
 16  13  14  1   
 17  13  15  1   
 18  15  16  ar  
 19  15  22  ar  
 20  16  17  1   
 21  16  27  ar  
 22  17  18  1   
 23  18  19  1   
 24  18  20  1   
 25  18  21  1   
 26  22  23  1   
 27  22  24  ar  
 28  24  25  1   
 29  24  26  ar  
 30  26  27  ar  
 31  26  29  1   
 32  27  28  1   
 33  29  30  1   
 34  29  31  1   
 35  29  32  1   
 36  32  33  2   
 37  32  34  2   
 38  32  35  1   
 39  35  36  1   
 40  35  37  1   
 41  35  38  1   
 42  39  40  2   
 43  40  41  am  
 44  40  44  1   
 45  41  42  1   
 46  41  43  1   
 47  44  45  ar  
 48  44  53  ar  
 49  45  46  1   
 50  45  47  ar  
 51  47  48  1   
 52  47  49  ar  
 53  49  50  1   
 54  49  51  ar  
 55  51  52  1   
 56  51  53  ar  
 57  53  54  1   
 58  54  55  1   
@<TRIPOS>SUBSTRUCTURE
  1 GS7   2 GROUP 4 A **** 0

# MOE 2018.01 (io_trps.svl 2018.01)
