@<TRIPOS>MOLECULE
3npc.B
77 81 1 0 0 
SMALL
USER_CHARGES


@<TRIPOS>ATOM
  1 C1      55.1140    93.0950    23.2000 C.2   1 B   0.6900 
  2 O1      53.9950    93.5140    22.9440 O.2   1 B  -0.5700 
  3 N2      55.8580    93.6470    24.2000 N.am  1 B  -0.5470 
  4 H2      56.7959    93.3006    24.3426 H     1 B   0.3700 
  5 C3      55.3940    94.6710    25.0440 C.ar  1 B   0.1170 
  6 C4      56.1220    95.8730    25.2630 C.ar  1 B  -0.0000 
  7 C5      55.5760    96.8530    26.1510 C.ar  1 B  -0.0000 
  8 C6      54.3240    96.6080    26.8010 C.ar  1 B   0.0825 
  9 C7      53.6560    95.4390    26.5610 C.ar  1 B  -0.1500 
 10 H7      52.7043    95.2612    27.0395 H     1 B   0.1500 
 11 C8      54.1880    94.4730    25.7060 C.ar  1 B  -0.1500 
 12 H8      53.6496    93.5490    25.5550 H     1 B   0.1500 
 13 N9      55.6620    92.0790    22.4960 N.am  1 B  -0.5390 
 14 H9      56.6069    91.8076    22.7274 H     1 B   0.3700 
 15 C10     55.0210    91.3760    21.4730 C.2   1 B   0.3980 
 16 N11     55.0520    90.0210    21.3470 N.2   1 B   0.2960 
 17 N12     54.3200    89.6620    20.2300 N.2   1 B  -0.1280 
 18 C13     53.8390    90.7450    19.6850 C.3   1 B   0.3042 
 19 H13     54.7343    90.8307    19.0693 H     1 B   0.0800 
 20 C14     54.2570    91.8500    20.4430 C.2   1 B  -0.2882 
 21 H14     54.0187    92.8852    20.2482 H     1 B   0.1500 
 22 C15     55.7180    89.1010    22.1610 C.ar  1 B   0.2970 
 23 C16     52.9850    90.7630    18.4420 C.3   1 B  -0.0000 
 24 C17     53.8880    91.1630    17.2750 C.3   1 B  -0.2400 
 25 H171    54.6998    90.4419    17.1800 H     1 B   0.0800 
 26 H172    54.3022    92.1542    17.4593 H     1 B   0.0800 
 27 H173    53.3058    91.1781    16.3537 H     1 B   0.0800 
 28 C18     52.3950    89.3780    18.1480 C.3   1 B  -0.2400 
 29 H181    53.2036    88.6583    18.0200 H     1 B   0.0800 
 30 H182    51.8005    89.4226    17.2355 H     1 B   0.0800 
 31 H183    51.7617    89.0689    18.9795 H     1 B   0.0800 
 32 C19     51.8270    91.7480    18.6160 C.3   1 B  -0.2400 
 33 H191    52.2234    92.7413    18.8263 H     1 B   0.0800 
 34 H192    51.1969    91.4253    19.4449 H     1 B   0.0800 
 35 H193    51.2357    91.7790    17.7008 H     1 B   0.0800 
 36 C20     56.4310    88.0790    21.5430 C.ar  1 B  -0.1500 
 37 H20     56.4690    88.0091    20.4659 H     1 B   0.1500 
 38 C21     57.0890    87.1560    22.3300 C.ar  1 B  -0.1500 
 39 H21     57.6423    86.3513    21.8687 H     1 B   0.1500 
 40 C22     57.0410    87.2600    23.7160 C.ar  1 B  -0.1435 
 41 C23     56.3280    88.2760    24.3250 C.ar  1 B  -0.1500 
 42 H23     56.2964    88.3465    25.4022 H     1 B   0.1500 
 43 C24     55.6580    89.1980    23.5510 C.ar  1 B  -0.1500 
 44 H24     55.0906    89.9899    24.0171 H     1 B   0.1500 
 45 C25     57.7700    86.2530    24.5580 C.3   1 B  -0.0965 
 46 H251    58.2716    85.5334    23.9110 H     1 B   0.0800 
 47 H252    57.0585    85.7316    25.1983 H     1 B   0.0800 
 48 H253    58.5090    86.7630    25.1759 H     1 B   0.0800 
 49 C31     57.3590    96.1310    24.6260 C.ar  1 B  -0.1500 
 50 H31     57.7816    95.3985    23.9542 H     1 B   0.1500 
 51 C32     58.0200    97.3030    24.8580 C.ar  1 B  -0.1500 
 52 H32     58.9613    97.4894    24.3625 H     1 B   0.1500 
 53 C33     57.4950    98.2700    25.7310 C.ar  1 B  -0.1500 
 54 H33     58.0372    99.1878    25.9042 H     1 B   0.1500 
 55 C34     56.3010    98.0560    26.3630 C.ar  1 B  -0.1500 
 56 H34     55.9058    98.8085    27.0293 H     1 B   0.1500 
 57 O41     53.8230    97.5580    27.6520 O.3   1 B  -0.3625 
 58 C42     52.5530    97.2350    28.2240 C.3   1 B   0.1200 
 59 H421    52.6605    96.4033    28.9203 H     1 B   0.0800 
 60 H422    51.8504    96.9613    27.4369 H     1 B   0.0800 
 61 C43     52.0450    98.4780    28.9690 C.3   1 B   0.1100 
 62 H431    52.8995    99.0416    29.3435 H     1 B   0.0800 
 63 H432    51.4236    98.1609    29.8065 H     1 B   0.0800 
 64 N44     51.2430    99.3520    28.0750 N.3   1 B  -0.8100 
 65 C45     52.0860    99.8740    26.9750 C.3   1 B   0.1100 
 66 H451    52.5057    99.0445    26.4059 H     1 B   0.0800 
 67 H452    52.8946   100.4793    27.3848 H     1 B   0.0800 
 68 C46     51.2060   100.7320    26.0670 C.3   1 B   0.1200 
 69 H461    50.3549   100.1478    25.7172 H     1 B   0.0800 
 70 H462    51.7850   101.0789    25.2111 H     1 B   0.0800 
 71 O47     50.7460   101.8520    26.8280 O.3   1 B  -0.5600 
 72 C48     49.9490   101.4070    27.9280 C.3   1 B   0.1200 
 73 H481    49.0998   100.8362    27.5523 H     1 B   0.0800 
 74 H482    49.5878   102.2707    28.4862 H     1 B   0.0800 
 75 C49     50.7890   100.5210    28.8500 C.3   1 B   0.1100 
 76 H491    51.6510   101.0798    29.2144 H     1 B   0.0800 
 77 H492    50.1856   100.1915    29.6959 H     1 B   0.0800 
@<TRIPOS>BOND
  1   1   2  2   
  2   1   3  am  
  3   1  13  am  
  4   3   4  1   
  5   3   5  1   
  6   5   6  ar  
  7   5  11  ar  
  8   6   7  ar  
  9   6  49  ar  
 10   7   8  ar  
 11   7  55  ar  
 12   8   9  ar  
 13   8  57  1   
 14   9  10  1   
 15   9  11  ar  
 16  11  12  1   
 17  13  14  1   
 18  13  15  1   
 19  15  16  1   
 20  15  20  2   
 21  16  17  2   
 22  16  22  1   
 23  17  18  1   
 24  18  19  1   
 25  18  20  1   
 26  18  23  1   
 27  20  21  1   
 28  22  36  ar  
 29  22  43  ar  
 30  23  24  1   
 31  23  28  1   
 32  23  32  1   
 33  24  25  1   
 34  24  26  1   
 35  24  27  1   
 36  28  29  1   
 37  28  30  1   
 38  28  31  1   
 39  32  33  1   
 40  32  34  1   
 41  32  35  1   
 42  36  37  1   
 43  36  38  ar  
 44  38  39  1   
 45  38  40  ar  
 46  40  41  ar  
 47  40  45  1   
 48  41  42  1   
 49  41  43  ar  
 50  43  44  1   
 51  45  46  1   
 52  45  47  1   
 53  45  48  1   
 54  49  50  1   
 55  49  51  ar  
 56  51  52  1   
 57  51  53  ar  
 58  53  54  1   
 59  53  55  ar  
 60  55  56  1   
 61  57  58  1   
 62  58  59  1   
 63  58  60  1   
 64  58  61  1   
 65  61  62  1   
 66  61  63  1   
 67  61  64  1   
 68  64  65  1   
 69  64  75  1   
 70  65  66  1   
 71  65  67  1   
 72  65  68  1   
 73  68  69  1   
 74  68  70  1   
 75  68  71  1   
 76  71  72  1   
 77  72  73  1   
 78  72  74  1   
 79  72  75  1   
 80  75  76  1   
 81  75  77  1   
@<TRIPOS>SUBSTRUCTURE
  1 B   2 GROUP 4 B **** 0

# MOE 2018.01 (io_trps.svl 2018.01)
