@<TRIPOS>MOLECULE
6e43.C
70 73 1 0 0 
SMALL
USER_CHARGES


@<TRIPOS>ATOM
  1 C01     22.0440    79.7500    12.0790 C.ar  1 HQM  -0.0320 
  2 C02     21.6270    78.4830    12.4840 C.ar  1 HQM  -0.1500 
  3 H02     21.2453    77.7776    11.7607 H     1 HQM   0.1500 
  4 C03     21.7070    78.1370    13.8250 C.ar  1 HQM   0.1170 
  5 C04     22.2870    79.0060    14.7270 C.ar  1 HQM   0.1000 
  6 C05     22.6820    80.2800    14.3320 C.ar  1 HQM  -0.1500 
  7 H05     23.0752    80.9748    15.0593 H     1 HQM   0.1500 
  8 C06     22.5690    80.6570    12.9960 C.ar  1 HQM  -0.1500 
  9 H06     22.8841    81.6391    12.6757 H     1 HQM   0.1500 
 10 N07     22.3820    78.6370    16.1770 N.pl3 1 HQM  -0.8382 
 11 C08     23.6800    78.6790    16.9460 C.3   1 HQM   0.2091 
 12 H081    23.6747    77.8833    17.6909 H     1 HQM   0.0800 
 13 H082    23.7629    79.6441    17.4458 H     1 HQM   0.0800 
 14 C09     24.9200    78.4860    16.0060 C.3   1 HQM  -0.0800 
 15 H09     24.8181    78.9857    15.0427 H     1 HQM   0.0800 
 16 C10     26.1610    79.0940    16.7380 C.3   1 HQM  -0.2400 
 17 H101    26.2848    78.6097    17.7066 H     1 HQM   0.0800 
 18 H102    26.0091    80.1635    16.8833 H     1 HQM   0.0800 
 19 H103    27.0541    78.9326    16.1343 H     1 HQM   0.0800 
 20 C11     25.0630    76.9800    15.7610 C.3   1 HQM  -0.2400 
 21 H111    25.1661    76.4647    16.7160 H     1 HQM   0.0800 
 22 H112    25.9464    76.7935    15.1503 H     1 HQM   0.0800 
 23 H113    24.1782    76.6106    15.2425 H     1 HQM   0.0800 
 24 C12     21.0500    78.5080    16.8980 C.3   1 HQM   0.2891 
 25 H12     20.2729    78.0358    16.2970 H     1 HQM   0.0800 
 26 C13     21.1400    77.6010    18.1210 C.3   1 HQM  -0.1600 
 27 H131    21.9519    77.9352    18.7669 H     1 HQM   0.0800 
 28 H132    21.3268    76.5749    17.8041 H     1 HQM   0.0800 
 29 C14     19.7990    77.6730    18.8900 C.3   1 HQM  -0.1600 
 30 H141    19.8818    77.0861    19.8048 H     1 HQM   0.0800 
 31 H142    19.0076    77.2606    18.2641 H     1 HQM   0.0800 
 32 C15     19.4450    79.1230    19.2550 C.3   1 HQM  -0.1600 
 33 H151    20.1917    79.4952    19.9564 H     1 HQM   0.0800 
 34 H152    18.4643    79.1303    19.7306 H     1 HQM   0.0800 
 35 C16     19.4050    80.0630    18.0420 C.3   1 HQM  -0.1600 
 36 H161    19.2647    81.0882    18.3846 H     1 HQM   0.0800 
 37 H162    18.5759    79.7800    17.3935 H     1 HQM   0.0800 
 38 C17     20.7250    79.9650    17.2540 C.3   1 HQM  -0.1600 
 39 H171    20.6347    80.5442    16.3351 H     1 HQM   0.0800 
 40 H172    21.5333    80.3716    17.8618 H     1 HQM   0.0800 
 41 N18     21.3600    76.7960    14.2680 N.am  1 HQM  -0.5470 
 42 H18     21.8537    76.4005    15.0554 H     1 HQM   0.3700 
 43 C19     20.3320    76.0070    13.6210 C.2   1 HQM   0.6900 
 44 N20     20.2250    74.6690    14.1770 N.am  1 HQM  -0.5470 
 45 H20     20.8334    74.3722    14.9266 H     1 HQM   0.3700 
 46 C21     19.2220    73.7640    13.6310 C.ar  1 HQM   0.1170 
 47 C22     19.6290    72.4600    13.3560 C.ar  1 HQM  -0.1500 
 48 H22     20.6433    72.1516    13.5619 H     1 HQM   0.1500 
 49 C23     18.7200    71.5600    12.8150 C.ar  1 HQM  -0.1500 
 50 H23     19.0071    70.5426    12.5941 H     1 HQM   0.1500 
 51 C24     17.4230    72.0130    12.5660 C.ar  1 HQM  -0.1435 
 52 C25     17.0350    73.3190    12.8350 C.ar  1 HQM  -0.1500 
 53 H25     16.0248    73.6347    12.6201 H     1 HQM   0.1500 
 54 C26     17.9350    74.2160    13.3760 C.ar  1 HQM  -0.1500 
 55 H26     17.6471    75.2340    13.5931 H     1 HQM   0.1500 
 56 C27     16.3930    71.0350    11.9640 C.3   1 HQM  -0.0965 
 57 H271    16.8596    70.0609    11.8171 H     1 HQM   0.0800 
 58 H272    16.0444    71.4191    11.0054 H     1 HQM   0.0800 
 59 H273    15.5473    70.9339    12.6442 H     1 HQM   0.0800 
 60 O28     19.6340    76.4590    12.7650 O.2   1 HQM  -0.5700 
 61 C29     21.9140    80.1590    10.5850 C.3   1 HQM  -0.0680 
 62 H29     22.8853    80.5635    10.8698 H     1 HQM   0.1000 
 63 C30     21.4030    79.4050     9.3530 C.3   1 HQM  -0.2000 
 64 H301    20.9671    78.4121     9.4639 H     1 HQM   0.1000 
 65 H302    21.9555    79.4565     8.4148 H     1 HQM   0.1000 
 66 C31     20.6500    80.6290     9.8620 C.3   1 HQM  -0.2470 
 67 H31     20.3139    81.5618     9.4092 H     1 HQM   0.1000 
 68 C32     19.3300    80.3630    10.6070 C.2   1 HQM   0.9470 
 69 O33     18.6980    79.2730    10.4720 O.co2 1 HQM  -0.9000 
 70 O34     18.8690    81.2560    11.3620 O.co2 1 HQM  -0.9000 
@<TRIPOS>BOND
  1   1   2  ar  
  2   1   8  ar  
  3   1  61  1   
  4   2   3  1   
  5   2   4  ar  
  6   4   5  ar  
  7   4  41  1   
  8   5   6  ar  
  9   5  10  1   
 10   6   7  1   
 11   6   8  ar  
 12   8   9  1   
 13  10  11  1   
 14  10  24  1   
 15  11  12  1   
 16  11  13  1   
 17  11  14  1   
 18  14  15  1   
 19  14  16  1   
 20  14  20  1   
 21  16  17  1   
 22  16  18  1   
 23  16  19  1   
 24  20  21  1   
 25  20  22  1   
 26  20  23  1   
 27  24  25  1   
 28  24  26  1   
 29  24  38  1   
 30  26  27  1   
 31  26  28  1   
 32  26  29  1   
 33  29  30  1   
 34  29  31  1   
 35  29  32  1   
 36  32  33  1   
 37  32  34  1   
 38  32  35  1   
 39  35  36  1   
 40  35  37  1   
 41  35  38  1   
 42  38  39  1   
 43  38  40  1   
 44  41  42  1   
 45  41  43  am  
 46  43  44  am  
 47  43  60  2   
 48  44  45  1   
 49  44  46  1   
 50  46  47  ar  
 51  46  54  ar  
 52  47  48  1   
 53  47  49  ar  
 54  49  50  1   
 55  49  51  ar  
 56  51  52  ar  
 57  51  56  1   
 58  52  53  1   
 59  52  54  ar  
 60  54  55  1   
 61  56  57  1   
 62  56  58  1   
 63  56  59  1   
 64  61  62  1   
 65  61  63  1   
 66  61  66  1   
 67  63  64  1   
 68  63  65  1   
 69  63  66  1   
 70  66  67  1   
 71  66  68  1   
 72  68  69  ar  
 73  68  70  ar  
@<TRIPOS>SUBSTRUCTURE
  1 HQM  41 GROUP 4 C **** 0

# MOE 2018.01 (io_trps.svl 2018.01)
