@<TRIPOS>MOLECULE
6y4q.D
78 82 1 0 0 
SMALL
USER_CHARGES


@<TRIPOS>ATOM
  1 N        2.6270   -20.9120   -46.5890 N.am  1 O9E  -0.6602 
  2 C        3.4650   -20.3660   -47.6270 C.2   1 O9E   0.7150 
  3 O        3.4400   -20.8200   -48.7740 O.2   1 O9E  -0.5700 
  4 C1       2.6380   -20.4190   -45.2180 C.3   1 O9E   0.3211 
  5 H11      1.6255   -20.4748   -44.8183 H     1 O9E   0.0800 
  6 H12      2.9701   -19.3808   -45.2225 H     1 O9E   0.0800 
  7 N1       5.0800   -22.4560   -43.4870 N.pl3 1 O9E   0.3140 
  8 O1       2.0240   -18.8910   -40.7430 O.2   1 O9E  -0.5700 
  9 S1       4.1580   -17.9570   -48.5590 S.3   1 O9E  -0.0800 
 10 C2       3.5490   -21.2110   -44.3310 C.2   1 O9E   0.0462 
 11 N2       4.1060   -22.3510   -42.5660 N.2   1 O9E  -0.4180 
 12 C3       4.7750   -21.7520   -44.5860 C.2   1 O9E  -0.3016 
 13 H3       5.3707   -21.6378   -45.4796 H     1 O9E   0.1500 
 14 N3       3.1740   -21.5890   -43.0830 N.2   1 O9E  -0.2272 
 15 C4       6.2640   -23.2770   -43.2390 C.3   1 O9E   0.0956 
 16 H41      7.0327   -22.6638   -42.7687 H     1 O9E   0.0800 
 17 H42      6.6371   -23.6630   -44.1877 H     1 O9E   0.0800 
 18 N4       4.0340   -19.9590   -40.2930 N.am  1 O9E  -0.6602 
 19 C5       5.9260   -24.4440   -42.3230 C.3   1 O9E  -0.1600 
 20 H51      5.8537   -25.3541   -42.9184 H     1 O9E   0.0800 
 21 H52      4.9692   -24.2501   -41.8382 H     1 O9E   0.0800 
 22 N5       2.6900   -18.7160   -36.4210 N.pl3 1 O9E   0.3140 
 23 C6       6.9750   -24.6290   -41.2750 C.3   1 O9E  -0.2400 
 24 H61      7.9353   -24.8235   -41.7525 H     1 O9E   0.0800 
 25 H62      6.7081   -25.4728   -40.6387 H     1 O9E   0.0800 
 26 H63      7.0468   -23.7256   -40.6693 H     1 O9E   0.0800 
 27 N6       4.0070   -18.9410   -36.2940 N.2   1 O9E  -0.4180 
 28 C7       1.7130   -22.0110   -46.8790 C.3   1 O9E   0.0601 
 29 H71      1.7983   -22.2867   -47.9301 H     1 O9E   0.0800 
 30 H72      0.6904   -21.6987   -46.6671 H     1 O9E   0.0800 
 31 H73      1.9672   -22.8689   -46.2565 H     1 O9E   0.0800 
 32 N7       4.3640   -19.7010   -37.2970 N.2   1 O9E  -0.2272 
 33 C8       4.3300   -19.1880   -47.3640 C.2   1 O9E  -0.0450 
 34 C9       5.2480   -18.8330   -46.4180 C.2   1 O9E  -0.1500 
 35 H9       5.5232   -19.4666   -45.5878 H     1 O9E   0.1500 
 36 C10      5.8090   -17.5330   -46.6400 C.2   1 O9E  -0.0460 
 37 C11      6.6440   -16.8760   -45.6210 C.2   1 O9E   0.0460 
 38 C12      6.3320   -16.6700   -44.3300 C.2   1 O9E   0.0460 
 39 C13      5.0820   -17.0260   -43.6440 C.2   1 O9E  -0.0460 
 40 C14      3.8200   -16.6290   -44.0240 C.2   1 O9E  -0.1400 
 41 C15      3.3840   -15.7350   -45.1480 C.3   1 O9E  -0.0600 
 42 H151     4.2594   -15.3896   -45.6979 H     1 O9E   0.0800 
 43 H152     2.8476   -14.8770   -44.7427 H     1 O9E   0.0800 
 44 H153     2.7283   -16.2892   -45.8196 H     1 O9E   0.0800 
 45 C16      3.8030   -18.1470   -42.0440 C.2   1 O9E  -0.0450 
 46 C17      3.2230   -19.0060   -40.9870 C.2   1 O9E   0.7150 
 47 C18      3.3790   -20.8000   -39.3030 C.3   1 O9E   0.3211 
 48 H181     3.9730   -21.6939   -39.1126 H     1 O9E   0.0800 
 49 H182     2.3869   -21.0900   -39.6490 H     1 O9E   0.0800 
 50 C19      3.2750   -19.9700   -38.0610 C.2   1 O9E   0.0462 
 51 C20      2.2050   -19.3290   -37.5120 C.2   1 O9E  -0.3016 
 52 H20      1.1881   -19.3169   -37.8757 H     1 O9E   0.1500 
 53 C21      1.9350   -17.9340   -35.4380 C.3   1 O9E   0.0956 
 54 H211     1.0259   -17.5612   -35.9098 H     1 O9E   0.0800 
 55 H212     2.5475   -17.0926   -35.1139 H     1 O9E   0.0800 
 56 C22      1.5540   -18.7520   -34.2280 C.3   1 O9E  -0.2400 
 57 H221     0.9964   -18.1287   -33.5290 H     1 O9E   0.0800 
 58 H222     2.4560   -19.1247   -33.7427 H     1 O9E   0.0800 
 59 H223     0.9344   -19.5933   -34.5386 H     1 O9E   0.0800 
 60 C23      5.4810   -20.0970   -40.4170 C.3   1 O9E   0.0601 
 61 H231     5.8461   -19.4173   -41.1869 H     1 O9E   0.0800 
 62 H232     5.7259   -21.1229   -40.6922 H     1 O9E   0.0800 
 63 H233     5.9521   -19.8540   -39.4646 H     1 O9E   0.0800 
 64 C24      5.0660   -17.8960   -42.5100 C.2   1 O9E  -0.1500 
 65 H24      5.9582   -18.3126   -42.0663 H     1 O9E   0.1500 
 66 C25      7.4710   -16.0220   -43.5820 C.2   1 O9E  -0.2882 
 67 H25      7.4670   -15.6224   -42.5787 H     1 O9E   0.1500 
 68 C26      8.6300   -16.0630   -44.5740 C.3   1 O9E   0.1164 
 69 H261     9.3427   -16.8357   -44.2858 H     1 O9E   0.0800 
 70 H262     9.1335   -15.0967   -44.6022 H     1 O9E   0.0800 
 71 C27      8.0340   -16.3830   -45.9390 C.2   1 O9E  -0.2882 
 72 H27      8.4984   -16.2807   -46.9087 H     1 O9E   0.1500 
 73 C28      5.3250   -16.9390   -47.7810 C.2   1 O9E  -0.1400 
 74 C29      5.6320   -15.6000   -48.3800 C.3   1 O9E  -0.0600 
 75 H291     5.0543   -15.4703   -49.2952 H     1 O9E   0.0800 
 76 H292     6.6957   -15.5402   -48.6102 H     1 O9E   0.0800 
 77 H293     5.3692   -14.8156   -47.6703 H     1 O9E   0.0800 
 78 S        2.6140   -17.3210   -42.9830 S.3   1 O9E  -0.0800 
@<TRIPOS>BOND
  1   1   2  am  
  2   1   4  1   
  3   1  28  1   
  4   2   3  2   
  5   2  33  1   
  6   4   5  1   
  7   4   6  1   
  8   4  10  1   
  9   7  11  1   
 10   7  12  1   
 11   7  15  1   
 12   8  46  2   
 13   9  33  1   
 14   9  73  1   
 15  10  12  2   
 16  10  14  1   
 17  11  14  2   
 18  12  13  1   
 19  15  16  1   
 20  15  17  1   
 21  15  19  1   
 22  18  46  am  
 23  18  47  1   
 24  18  60  1   
 25  19  20  1   
 26  19  21  1   
 27  19  23  1   
 28  22  27  1   
 29  22  51  1   
 30  22  53  1   
 31  23  24  1   
 32  23  25  1   
 33  23  26  1   
 34  27  32  2   
 35  28  29  1   
 36  28  30  1   
 37  28  31  1   
 38  32  50  1   
 39  33  34  2   
 40  34  35  1   
 41  34  36  1   
 42  36  37  1   
 43  36  73  2   
 44  37  38  1   
 45  37  71  2   
 46  38  39  1   
 47  38  66  2   
 48  39  40  2   
 49  39  64  1   
 50  40  41  1   
 51  40  78  1   
 52  41  42  1   
 53  41  43  1   
 54  41  44  1   
 55  45  46  1   
 56  45  64  2   
 57  45  78  1   
 58  47  48  1   
 59  47  49  1   
 60  47  50  1   
 61  50  51  2   
 62  51  52  1   
 63  53  54  1   
 64  53  55  1   
 65  53  56  1   
 66  56  57  1   
 67  56  58  1   
 68  56  59  1   
 69  60  61  1   
 70  60  62  1   
 71  60  63  1   
 72  64  65  1   
 73  66  67  1   
 74  66  68  1   
 75  68  69  1   
 76  68  70  1   
 77  68  71  1   
 78  71  72  1   
 79  73  74  1   
 80  74  75  1   
 81  74  76  1   
 82  74  77  1   
@<TRIPOS>SUBSTRUCTURE
  1 O9E  45 GROUP 4 D **** 0

# MOE 2018.01 (io_trps.svl 2018.01)
