MODEL 1
REMARK VINA RESULT:    -8.525      0.000      0.000
REMARK INTER + INTRA:         -13.766
REMARK INTER:                 -12.014
REMARK INTRA:                  -1.753
REMARK UNBOUND:                -1.753
REMARK  8 active torsions:
REMARK  status: ('A' for Active; 'I' for Inactive)
REMARK    1  A    between atoms: C_6  and  C_9 
REMARK    2  A    between atoms: C_7  and  O_8 
REMARK    3  A    between atoms: N_10  and  N_11 
REMARK       I    between atoms: N_11  and  C_12 
REMARK    4  A    between atoms: C_12  and  C_14 
REMARK    5  A    between atoms: N_17  and  C_26 
REMARK    6  A    between atoms: C_18  and  C_19 
REMARK    7  A    between atoms: C_19  and  N_20 
REMARK    8  A    between atoms: C_30  and  N_31 
ROOT
ATOM      1  C   UNK d   1      21.996  37.980  66.758  0.00  0.00     0.162 A 
ATOM      2  N   UNK d   1      21.974  39.337  66.517  0.00  0.00    -0.125 NA
ATOM      3  N   UNK d   1      23.043  39.638  65.853  0.00  0.00    -0.058 NA
ATOM      4  N   UNK d   1      23.779  38.512  65.647  0.00  0.00    -0.191 N 
ATOM      5  C   UNK d   1      23.158  37.469  66.194  0.00  0.00     0.101 A 
ENDROOT
BRANCH   1   6
ATOM      6  C   UNK d   1      20.943  37.300  67.473  0.00  0.00     0.228 C 
ATOM      7  N   UNK d   1      20.795  37.046  68.841  0.00  0.00    -0.253 N 
ATOM      8  H   UNK d   1      21.439  37.323  69.563  0.00  0.00     0.191 HD
ATOM      9  O   UNK d   1      19.978  36.860  66.712  0.00  0.00    -0.168 OA
BRANCH   7  10
ATOM     10  N   UNK d   1      19.610  36.331  69.234  0.00  0.00    -0.184 NA
ATOM     11  C   UNK d   1      18.679  36.926  69.879  0.00  0.00     0.153 C 
BRANCH  11  12
ATOM     12  C   UNK d   1      17.450  36.240  70.302  0.00  0.00     0.019 A 
ATOM     13  C   UNK d   1      16.196  36.656  69.906  0.00  0.00     0.038 A 
ATOM     14  C   UNK d   1      15.043  36.003  70.308  0.00  0.00     0.049 A 
ATOM     15  C   UNK d   1      15.113  34.899  71.130  0.00  0.00     0.144 A 
ATOM     16 Br   UNK d   1      13.305  36.581  69.758  0.00  0.00    -0.048 Br
ATOM     17  C   UNK d   1      16.367  34.479  71.529  0.00  0.00     0.082 A 
ATOM     18  O   UNK d   1      13.971  34.216  71.555  0.00  0.00    -0.189 OA
ATOM     19 Br   UNK d   1      16.496  32.943  72.675  0.00  0.00    -0.045 Br
ATOM     20  C   UNK d   1      17.512  35.134  71.124  0.00  0.00     0.097 A 
BRANCH  20  21
ATOM     21  O   UNK d   1      18.793  34.712  71.526  0.00  0.00    -0.358 OA
ATOM     22  H   UNK d   1      19.552  34.737  70.863  0.00  0.00     0.217 HD
ENDBRANCH  20  21
ENDBRANCH  11  12
ENDBRANCH   7  10
ENDBRANCH   1   6
BRANCH   5  23
ATOM     23  C   UNK d   1      23.563  36.064  66.220  0.00  0.00     0.296 C 
BRANCH  23  24
ATOM     24  N   UNK d   1      24.615  35.652  67.071  0.00  0.00    -0.062 N 
ATOM     25  C   UNK d   1      25.434  34.590  66.506  0.00  0.00     0.261 C 
ATOM     26  C   UNK d   1      24.604  33.462  66.039  0.00  0.00     0.195 C 
ATOM     27  O   UNK d   1      23.471  33.145  66.668  0.00  0.00    -0.388 OA
ATOM     28  C   UNK d   1      23.046  33.901  67.712  0.00  0.00     0.195 C 
ATOM     29  C   UNK d   1      23.970  34.933  68.218  0.00  0.00     0.261 C 
ATOM     30  H   UNK d   1      25.156  36.419  67.442  0.00  0.00     0.280 HD
ENDBRANCH  23  24
ENDBRANCH   5  23
BRANCH   4  31
ATOM     31  C   UNK d   1      25.018  38.600  64.938  0.00  0.00     0.229 A 
ATOM     32  N   UNK d   1      26.199  38.031  65.143  0.00  0.00    -0.081 NA
ATOM     33  O   UNK d   1      26.987  38.412  64.192  0.00  0.00    -0.103 OA
ATOM     34  N   UNK d   1      26.389  39.207  63.361  0.00  0.00    -0.083 NA
ATOM     35  C   UNK d   1      25.138  39.370  63.770  0.00  0.00     0.201 A 
BRANCH  35  36
ATOM     36  N   UNK d   1      24.095  40.144  63.199  0.00  0.00    -0.379 N 
ATOM     37  H   UNK d   1      24.320  41.061  62.759  0.00  0.00     0.158 HD
ATOM     38  H   UNK d   1      23.083  39.827  63.200  0.00  0.00     0.158 HD
ENDBRANCH  35  36
ENDBRANCH   4  31
TORSDOF 8
ENDMDL
