MODEL 1
REMARK VINA RESULT:    -8.354      0.000      0.000
REMARK INTER + INTRA:         -13.510
REMARK INTER:                 -12.016
REMARK INTRA:                  -1.493
REMARK UNBOUND:                -1.493
REMARK  9 active torsions:
REMARK  status: ('A' for Active; 'I' for Inactive)
REMARK    1  A    between atoms: C_3  and  O_33 
REMARK    2  A    between atoms: C_6  and  C_9 
REMARK    3  A    between atoms: C_7  and  O_8 
REMARK    4  A    between atoms: N_10  and  N_11 
REMARK       I    between atoms: N_11  and  C_12 
REMARK    5  A    between atoms: C_12  and  C_14 
REMARK    6  A    between atoms: N_17  and  C_26 
REMARK    7  A    between atoms: C_18  and  C_19 
REMARK    8  A    between atoms: C_19  and  N_20 
REMARK    9  A    between atoms: C_30  and  N_31 
ROOT
ATOM      1  C   UNK d   1      21.970  38.363  66.463  0.00  0.00     0.176 A 
ATOM      2  N   UNK d   1      21.976  39.726  66.302  0.00  0.00    -0.124 NA
ATOM      3  N   UNK d   1      23.037  40.078  65.630  0.00  0.00    -0.058 NA
ATOM      4  N   UNK d   1      23.776  39.030  65.310  0.00  0.00    -0.191 N 
ATOM      5  C   UNK d   1      23.141  37.958  65.813  0.00  0.00     0.104 A 
ENDROOT
BRANCH   1   6
ATOM      6  C   UNK d   1      20.949  37.607  67.163  0.00  0.00     0.294 C 
ATOM      7  N   UNK d   1      20.908  37.220  68.496  0.00  0.00    -0.242 N 
ATOM      8  H   UNK d   1      21.626  37.410  69.235  0.00  0.00     0.192 HD
ATOM      9  O   UNK d   1      19.950  37.254  66.430  0.00  0.00    -0.264 OA
BRANCH   7  10
ATOM     10  N   UNK d   1      19.761  36.470  68.925  0.00  0.00    -0.183 NA
ATOM     11  C   UNK d   1      18.885  37.039  69.674  0.00  0.00     0.153 C 
BRANCH  11  12
ATOM     12  C   UNK d   1      17.688  36.372  70.163  0.00  0.00     0.019 A 
ATOM     13  C   UNK d   1      16.440  36.780  69.775  0.00  0.00     0.038 A 
ATOM     14  C   UNK d   1      15.284  36.155  70.232  0.00  0.00     0.046 A 
ATOM     15  C   UNK d   1      15.384  35.079  71.110  0.00  0.00     0.103 A 
ATOM     16 Br   UNK d   1      13.575  36.754  69.669  0.00  0.00    -0.048 Br
ATOM     17  C   UNK d   1      16.624  34.667  71.502  0.00  0.00     0.079 A 
ATOM     18 Br   UNK d   1      16.804  33.206  72.695  0.00  0.00    -0.045 Br
ATOM     19  C   UNK d   1      17.772  35.307  71.032  0.00  0.00     0.097 A 
BRANCH  15  20
ATOM     20  O   UNK d   1      14.219  34.470  71.554  0.00  0.00    -0.358 OA
ATOM     21  H   UNK d   1      14.104  34.210  72.519  0.00  0.00     0.217 HD
ENDBRANCH  15  20
BRANCH  19  22
ATOM     22  O   UNK d   1      19.040  34.903  71.419  0.00  0.00    -0.358 OA
ATOM     23  H   UNK d   1      19.365  33.969  71.202  0.00  0.00     0.217 HD
ENDBRANCH  19  22
ENDBRANCH  11  12
ENDBRANCH   7  10
ENDBRANCH   1   6
BRANCH   5  24
ATOM     24  C   UNK d   1      23.550  36.555  65.692  0.00  0.00     0.334 C 
BRANCH  24  25
ATOM     25  N   UNK d   1      24.336  36.056  66.823  0.00  0.00     0.098 N 
ATOM     26  C   UNK d   1      25.646  35.599  66.317  0.00  0.00     0.299 C 
ATOM     27  C   UNK d   1      25.453  34.751  65.109  0.00  0.00     0.198 C 
ATOM     28  O   UNK d   1      24.578  33.731  65.396  0.00  0.00    -0.388 OA
ATOM     29  C   UNK d   1      24.264  33.611  66.724  0.00  0.00     0.198 C 
ATOM     30  C   UNK d   1      23.663  34.844  67.349  0.00  0.00     0.299 C 
ENDBRANCH  24  25
ENDBRANCH   5  24
BRANCH   4  31
ATOM     31  C   UNK d   1      24.970  39.104  64.552  0.00  0.00     0.229 A 
ATOM     32  N   UNK d   1      25.515  38.192  63.718  0.00  0.00    -0.081 NA
ATOM     33  O   UNK d   1      26.622  38.664  63.209  0.00  0.00    -0.103 OA
ATOM     34  N   UNK d   1      26.857  39.868  63.665  0.00  0.00    -0.083 NA
ATOM     35  C   UNK d   1      25.851  40.173  64.501  0.00  0.00     0.201 A 
BRANCH  35  36
ATOM     36  N   UNK d   1      25.742  41.396  65.198  0.00  0.00    -0.379 N 
ATOM     37  H   UNK d   1      25.208  41.420  66.086  0.00  0.00     0.158 HD
ATOM     38  H   UNK d   1      26.175  42.273  64.858  0.00  0.00     0.158 HD
ENDBRANCH  35  36
ENDBRANCH   4  31
TORSDOF 9
ENDMDL
