/Users/jonathanwahrer/Desktop/Msc/3_Semester/Drug_Design_Praktikum/waehrer_HTS_screening/HTS_experiment/out/docking_results/vina_output/4x21/0004_docked.pdbqt
 OpenBabel03212201143D

 34 37  0  0  0  0  0  0  0  0999 V2000
   18.0020   36.5200   69.9490 C   0  0  0  0  0  0  0  0  0  0  0  0
   16.6860   36.3570   70.0640 N   0  0  0  0  0  4  0  0  0  0  0  0
   16.1310   35.3280   70.7660 C   0  0  0  0  0  0  0  0  0  0  0  0
   16.9840   34.4820   71.3390 N   0  0  0  0  0  0  0  0  0  0  0  0
   18.3310   34.5740   71.2740 C   0  0  0  0  0  0  0  0  0  0  0  0
   18.8030   35.6330   70.5510 N   0  0  0  0  0  2  0  0  0  0  0  0
   18.5420   37.6070   69.2080 N   0  0  0  0  0  0  0  0  0  0  0  0
   18.0440   38.4840   69.0210 H   0  0  0  0  0  0  0  0  0  0  0  0
   19.8460   37.5010   68.6870 N   0  0  0  0  0  0  0  0  0  0  0  0
   20.0940   37.0790   67.5100 C   0  0  0  0  0  3  0  0  0  0  0  0
   21.4300   36.9600   66.9490 C   0  0  0  0  0  0  0  0  0  0  0  0
   22.0600   35.7380   66.9320 C   0  0  0  0  0  3  0  0  0  0  0  0
   23.3310   35.5980   66.4040 C   0  0  0  0  0  0  0  0  0  0  0  0
   24.0130   36.6730   65.8770 C   0  0  0  0  0  0  0  0  0  0  0  0
   24.1860   33.8850   66.3920 Br  0  0  0  0  0  0  0  0  0  0  0  0
   23.3880   37.9040   65.8900 C   0  0  0  0  0  0  0  0  0  0  0  0
   24.3410   39.3900   65.1580 Br  0  0  0  0  0  0  0  0  0  0  0  0
   22.1140   38.0350   66.4210 C   0  0  0  0  0  0  0  0  0  0  0  0
   25.2930   36.5500   65.3410 O   0  0  0  0  0  0  0  0  0  0  0  0
   26.0810   36.9170   65.8490 H   0  0  0  0  0  0  0  0  0  0  0  0
   21.5040   39.2670   66.4290 O   0  0  0  0  0  0  0  0  0  0  0  0
   20.6230   39.4180   65.9290 H   0  0  0  0  0  0  0  0  0  0  0  0
   14.7330   35.1730   70.8760 N   0  0  0  0  0  0  0  0  0  0  0  0
   14.1750   34.2970   71.8680 C   0  0  0  0  0  2  0  0  0  0  0  0
   13.1210   33.4460   71.1780 C   0  0  0  0  0  2  0  0  0  0  0  0
   12.2760   34.2080   70.3820 O   0  0  0  0  0  0  0  0  0  0  0  0
   12.9250   34.8590   69.3580 C   0  0  0  0  0  2  0  0  0  0  0  0
   13.8620   35.8950   69.9920 C   0  0  0  0  0  2  0  0  0  0  0  0
   19.1950   33.6540   71.8970 N   0  0  0  0  0  0  0  0  0  0  0  0
   20.5470   33.5060   71.4570 C   0  0  0  0  0  2  0  0  0  0  0  0
   20.7850   32.0120   71.2230 C   0  0  0  0  0  2  0  0  0  0  0  0
   19.6400   31.2700   71.4170 O   0  0  0  0  0  0  0  0  0  0  0  0
   19.0800   31.4040   72.6640 C   0  0  0  0  0  2  0  0  0  0  0  0
   18.7270   32.8510   72.9840 C   0  0  0  0  0  2  0  0  0  0  0  0
  1  2  2  0  0  0  0
  1  6  1  0  0  0  0
  2  3  2  0  0  0  0
  3 23  1  0  0  0  0
  3  4  1  0  0  0  0
  5  4  2  0  0  0  0
  5 29  1  0  0  0  0
  6  5  1  0  0  0  0
  7  1  1  0  0  0  0
  8  7  1  0  0  0  0
  9  7  1  0  0  0  0
 10  9  2  0  0  0  0
 11 10  1  0  0  0  0
 12 11  1  0  0  0  0
 13 12  2  0  0  0  0
 14 16  2  0  0  0  0
 14 13  1  0  0  0  0
 15 13  1  0  0  0  0
 16 18  1  0  0  0  0
 17 16  1  0  0  0  0
 18 21  1  0  0  0  0
 18 11  2  0  0  0  0
 19 20  1  0  0  0  0
 19 14  1  0  0  0  0
 22 21  1  0  0  0  0
 23 24  1  0  0  0  0
 25 24  1  0  0  0  0
 26 25  1  0  0  0  0
 27 28  1  0  0  0  0
 27 26  1  0  0  0  0
 28 23  1  0  0  0  0
 29 34  1  0  0  0  0
 30 29  1  0  0  0  0
 31 32  1  0  0  0  0
 31 30  1  0  0  0  0
 32 33  1  0  0  0  0
 33 34  1  0  0  0  0
M  END
>  <Pose>
1

>  <Score>
-8.846

$$$$
