MODEL 1
REMARK VINA RESULT:    -8.846      0.000      0.000
REMARK INTER + INTRA:         -13.055
REMARK INTER:                 -11.948
REMARK INTRA:                  -1.107
REMARK UNBOUND:                -1.107
REMARK  7 active torsions:
REMARK  status: ('A' for Active; 'I' for Inactive)
REMARK    1  A    between atoms: C_3  and  O_31 
REMARK    2  A    between atoms: C_6  and  C_9 
REMARK    3  A    between atoms: C_7  and  O_8 
REMARK    4  A    between atoms: N_10  and  N_11 
REMARK    5  A    between atoms: N_11  and  C_12 
REMARK    6  A    between atoms: C_14  and  N_24 
REMARK    7  A    between atoms: C_16  and  N_18 
ROOT
ATOM      1  C   UNK d   1      18.002  36.520  69.949  0.00  0.00     0.774 A 
ATOM      2  N   UNK d   1      16.686  36.357  70.064  0.00  0.00     0.133 NA
ATOM      3  C   UNK d   1      16.131  35.328  70.766  0.00  0.00     0.756 A 
ATOM      4  N   UNK d   1      16.984  34.482  71.339  0.00  0.00     0.131 NA
ATOM      5  C   UNK d   1      18.331  34.574  71.274  0.00  0.00     0.756 A 
ATOM      6  N   UNK d   1      18.803  35.633  70.551  0.00  0.00     0.133 NA
ENDROOT
BRANCH   1   7
ATOM      7  N   UNK d   1      18.542  37.607  69.208  0.00  0.00    -0.105 N 
ATOM      8  H   UNK d   1      18.044  38.484  69.021  0.00  0.00     0.208 HD
BRANCH   7   9
ATOM      9  N   UNK d   1      19.846  37.501  68.687  0.00  0.00    -0.171 NA
ATOM     10  C   UNK d   1      20.094  37.079  67.510  0.00  0.00     0.153 C 
BRANCH  10  11
ATOM     11  C   UNK d   1      21.430  36.960  66.949  0.00  0.00     0.019 A 
ATOM     12  C   UNK d   1      22.060  35.738  66.932  0.00  0.00     0.038 A 
ATOM     13  C   UNK d   1      23.331  35.598  66.404  0.00  0.00     0.046 A 
ATOM     14  C   UNK d   1      24.013  36.673  65.877  0.00  0.00     0.103 A 
ATOM     15 Br   UNK d   1      24.186  33.885  66.392  0.00  0.00    -0.048 Br
ATOM     16  C   UNK d   1      23.388  37.904  65.890  0.00  0.00     0.079 A 
ATOM     17 Br   UNK d   1      24.341  39.390  65.158  0.00  0.00    -0.045 Br
ATOM     18  C   UNK d   1      22.114  38.035  66.421  0.00  0.00     0.097 A 
BRANCH  14  19
ATOM     19  O   UNK d   1      25.293  36.550  65.341  0.00  0.00    -0.358 OA
ATOM     20  H   UNK d   1      26.081  36.917  65.849  0.00  0.00     0.217 HD
ENDBRANCH  14  19
BRANCH  18  21
ATOM     21  O   UNK d   1      21.504  39.267  66.429  0.00  0.00    -0.358 OA
ATOM     22  H   UNK d   1      20.623  39.418  65.929  0.00  0.00     0.217 HD
ENDBRANCH  18  21
ENDBRANCH  10  11
ENDBRANCH   7   9
ENDBRANCH   1   7
BRANCH   3  23
ATOM     23  N   UNK d   1      14.733  35.173  70.876  0.00  0.00    -0.209 N 
ATOM     24  C   UNK d   1      14.175  34.297  71.868  0.00  0.00     0.167 C 
ATOM     25  C   UNK d   1      13.121  33.446  71.178  0.00  0.00     0.188 C 
ATOM     26  O   UNK d   1      12.276  34.208  70.382  0.00  0.00    -0.388 OA
ATOM     27  C   UNK d   1      12.925  34.859  69.358  0.00  0.00     0.188 C 
ATOM     28  C   UNK d   1      13.862  35.895  69.992  0.00  0.00     0.167 C 
ENDBRANCH   3  23
BRANCH   5  29
ATOM     29  N   UNK d   1      19.195  33.654  71.897  0.00  0.00    -0.209 N 
ATOM     30  C   UNK d   1      20.547  33.506  71.457  0.00  0.00     0.167 C 
ATOM     31  C   UNK d   1      20.785  32.012  71.223  0.00  0.00     0.188 C 
ATOM     32  O   UNK d   1      19.640  31.270  71.417  0.00  0.00    -0.388 OA
ATOM     33  C   UNK d   1      19.080  31.404  72.664  0.00  0.00     0.188 C 
ATOM     34  C   UNK d   1      18.727  32.851  72.984  0.00  0.00     0.167 C 
ENDBRANCH   5  29
TORSDOF 7
ENDMDL
