MODEL 1
REMARK VINA RESULT:    -9.356      0.000      0.000
REMARK INTER + INTRA:         -13.560
REMARK INTER:                 -12.365
REMARK INTRA:                  -1.195
REMARK UNBOUND:                -1.195
REMARK  6 active torsions:
REMARK  status: ('A' for Active; 'I' for Inactive)
REMARK    1  A    between atoms: C_4  and  C_9 
REMARK    2  A    between atoms: N_10  and  N_11 
REMARK       I    between atoms: N_11  and  C_12 
REMARK    3  A    between atoms: C_12  and  C_14 
REMARK    4  A    between atoms: C_14  and  N_15 
REMARK    5  A    between atoms: C_19  and  C_20 
REMARK    6  A    between atoms: C_24  and  N_25 
ROOT
ATOM      1  N   UNK d   1      16.604  35.811  70.600  0.00  0.00    -0.319 N 
ATOM      2  C   UNK d   1      15.334  35.616  70.155  0.00  0.00     0.065 A 
ATOM      3  C   UNK d   1      15.011  34.289  70.226  0.00  0.00     0.086 A 
ATOM      4  N   UNK d   1      16.102  33.684  70.720  0.00  0.00    -0.226 NA
ATOM      5  C   UNK d   1      17.081  34.615  70.950  0.00  0.00     0.167 A 
ATOM      6  C   UNK d   1      13.756  33.890  69.816  0.00  0.00     0.034 A 
ATOM      7  C   UNK d   1      12.819  34.791  69.337  0.00  0.00     0.002 A 
ATOM      8  C   UNK d   1      13.175  36.126  69.276  0.00  0.00     0.002 A 
ATOM      9  C   UNK d   1      14.430  36.529  69.686  0.00  0.00     0.032 A 
ENDROOT
BRANCH   1  10
ATOM     10  C   UNK d   1      17.316  37.047  70.689  0.00  0.00     0.235 C 
BRANCH  10  11
ATOM     11  C   UNK d   1      18.297  37.296  69.660  0.00  0.00     0.256 C 
ATOM     12  N   UNK d   1      19.688  37.114  69.851  0.00  0.00    -0.246 N 
ATOM     13  H   UNK d   1      20.005  36.784  70.787  0.00  0.00     0.192 HD
ATOM     14  O   UNK d   1      17.930  37.694  68.530  0.00  0.00    -0.270 OA
BRANCH  12  15
ATOM     15  N   UNK d   1      20.652  37.344  68.883  0.00  0.00    -0.184 NA
ATOM     16  C   UNK d   1      21.116  36.439  68.109  0.00  0.00     0.153 C 
BRANCH  16  17
ATOM     17  C   UNK d   1      22.125  36.795  67.130  0.00  0.00     0.022 A 
ATOM     18  C   UNK d   1      23.009  35.858  66.692  0.00  0.00     0.136 A 
ATOM     19  C   UNK d   1      23.965  36.208  65.762  0.00  0.00     0.049 A 
ATOM     20  O   UNK d   1      22.959  34.561  67.171  0.00  0.00    -0.190 OA
ATOM     21 Br   UNK d   1      25.188  34.886  65.165  0.00  0.00    -0.048 Br
ATOM     22  C   UNK d   1      24.025  37.502  65.276  0.00  0.00     0.041 A 
ATOM     23  C   UNK d   1      23.123  38.432  65.730  0.00  0.00     0.013 A 
ATOM     24  C   UNK d   1      22.161  38.112  66.657  0.00  0.00     0.035 A 
ATOM     25 Br   UNK d   1      23.218  40.217  65.049  0.00  0.00    -0.051 Br
ENDBRANCH  16  17
ENDBRANCH  12  15
ENDBRANCH  10  11
ENDBRANCH   1  10
BRANCH   5  26
ATOM     26  C   UNK d   1      18.397  34.291  71.489  0.00  0.00     0.187 A 
ATOM     27  N   UNK d   1      19.548  34.325  70.806  0.00  0.00    -0.097 NA
ATOM     28  O   UNK d   1      20.533  33.973  71.613  0.00  0.00    -0.104 OA
ATOM     29  N   UNK d   1      20.071  33.710  72.795  0.00  0.00    -0.077 NA
ATOM     30  C   UNK d   1      18.733  33.897  72.764  0.00  0.00     0.285 A 
BRANCH  30  31
ATOM     31  N   UNK d   1      17.835  33.721  73.844  0.00  0.00    -0.028 N 
ATOM     32  H   UNK d   1      18.206  33.100  74.575  0.00  0.00     0.283 HD
ATOM     33  H   UNK d   1      16.986  33.236  73.442  0.00  0.00     0.283 HD
ATOM     34  H   UNK d   1      17.499  34.635  74.247  0.00  0.00     0.283 HD
ENDBRANCH  30  31
ENDBRANCH   5  26
TORSDOF 6
ENDMDL
