MODEL 1
REMARK VINA RESULT:    -9.044      0.000      0.000
REMARK INTER + INTRA:         -15.224
REMARK INTER:                 -13.537
REMARK INTRA:                  -1.686
REMARK UNBOUND:                -1.686
REMARK  9 active torsions:
REMARK  status: ('A' for Active; 'I' for Inactive)
REMARK    1  A    between atoms: C_4  and  O_29 
REMARK    2  A    between atoms: C_6  and  C_8 
REMARK    3  A    between atoms: C_8  and  N_9 
REMARK    4  A    between atoms: N_9  and  N_10 
REMARK       I    between atoms: N_10  and  C_11 
REMARK    5  A    between atoms: C_11  and  C_13 
REMARK    6  A    between atoms: C_13  and  N_14 
REMARK    7  A    between atoms: C_18  and  C_19 
REMARK    8  A    between atoms: C_23  and  N_24 
REMARK    9  A    between atoms: O_29  and  C_30 
ROOT
ATOM      1  N   UNK d   1      20.943  36.931  69.654  0.00  0.00    -0.319 N 
ATOM      2  C   UNK d   1      19.656  37.230  69.234  0.00  0.00     0.065 A 
ATOM      3  C   UNK d   1      19.734  37.580  67.938  0.00  0.00     0.086 A 
ATOM      4  N   UNK d   1      21.008  37.495  67.590  0.00  0.00    -0.226 NA
ATOM      5  C   UNK d   1      21.783  37.087  68.666  0.00  0.00     0.167 A 
ATOM      6  C   UNK d   1      18.623  37.941  67.192  0.00  0.00     0.034 A 
ATOM      7  C   UNK d   1      17.415  37.926  67.846  0.00  0.00     0.002 A 
ATOM      8  C   UNK d   1      17.278  37.578  69.176  0.00  0.00     0.002 A 
ATOM      9  C   UNK d   1      18.428  37.223  69.878  0.00  0.00     0.032 A 
ENDROOT
BRANCH   1  10
ATOM     10  C   UNK d   1      21.165  36.505  70.974  0.00  0.00     0.236 C 
BRANCH  10  11
ATOM     11  C   UNK d   1      21.067  34.970  71.115  0.00  0.00     0.264 C 
ATOM     12  N   UNK d   1      19.880  34.607  71.660  0.00  0.00    -0.202 N 
ATOM     13  H   UNK d   1      20.285  33.267  71.536  0.00  0.00     0.205 HD
ATOM     14  O   UNK d   1      22.073  34.391  70.711  0.00  0.00    -0.269 OA
BRANCH  12  15
ATOM     15  N   UNK d   1      18.801  34.273  72.155  0.00  0.00    -0.335 NA
BRANCH  15  16
ATOM     16  C   UNK d   1      17.731  34.025  72.590  0.00  0.00     0.220 C 
BRANCH  16  17
ATOM     17  C   UNK d   1      16.416  33.988  72.049  0.00  0.00    -0.001 A 
ATOM     18  C   UNK d   1      15.616  32.849  72.219  0.00  0.00     0.053 A 
ATOM     19  C   UNK d   1      14.339  32.710  71.759  0.00  0.00     0.107 A 
ATOM     20  C   UNK d   1      13.775  33.801  71.055  0.00  0.00     0.157 A 
ATOM     21  C   UNK d   1      14.527  34.939  70.864  0.00  0.00     0.051 A 
ATOM     22  O   UNK d   1      12.496  33.658  70.602  0.00  0.00    -0.188 OA
ATOM     23 Br   UNK d   1      13.790  36.430  69.949  0.00  0.00    -0.048 Br
ATOM     24  C   UNK d   1      15.815  35.015  71.356  0.00  0.00     0.036 A 
BRANCH  19  25
ATOM     25  O   UNK d   1      13.561  31.581  71.939  0.00  0.00    -0.348 OA
BRANCH  25  26
ATOM     26  C   UNK d   1      13.882  30.577  72.838  0.00  0.00     0.171 C 
ATOM     27  C   UNK d   1      13.197  30.639  74.174  0.00  0.00     0.034 C 
ENDBRANCH  25  26
ENDBRANCH  19  25
ENDBRANCH  16  17
ENDBRANCH  15  16
ENDBRANCH  12  15
ENDBRANCH  10  11
ENDBRANCH   1  10
BRANCH   5  28
ATOM     28  C   UNK d   1      23.204  36.936  68.412  0.00  0.00     0.187 A 
ATOM     29  N   UNK d   1      24.163  37.131  69.405  0.00  0.00    -0.097 NA
ATOM     30  O   UNK d   1      25.329  36.917  68.946  0.00  0.00    -0.104 OA
ATOM     31  N   UNK d   1      25.272  36.591  67.718  0.00  0.00    -0.077 NA
ATOM     32  C   UNK d   1      23.947  36.590  67.343  0.00  0.00     0.285 A 
BRANCH  32  33
ATOM     33  N   UNK d   1      23.543  36.244  66.036  0.00  0.00    -0.028 N 
ATOM     34  H   UNK d   1      24.305  36.595  65.343  0.00  0.00     0.283 HD
ATOM     35  H   UNK d   1      22.713  36.786  65.768  0.00  0.00     0.283 HD
ATOM     36  H   UNK d   1      23.560  35.238  65.888  0.00  0.00     0.283 HD
ENDBRANCH  32  33
ENDBRANCH   5  28
TORSDOF 9
ENDMDL
