MODEL 1
REMARK VINA RESULT:    -8.604      0.000      0.000
REMARK INTER + INTRA:         -14.601
REMARK INTER:                 -13.132
REMARK INTRA:                  -1.470
REMARK UNBOUND:                -1.470
REMARK  10 active torsions:
REMARK  status: ('A' for Active; 'I' for Inactive)
REMARK    1  A    between atoms: C_3  and  O_34 
REMARK    2  A    between atoms: C_4  and  O_31 
REMARK    3  A    between atoms: C_6  and  C_8 
REMARK    4  A    between atoms: N_9  and  N_10 
REMARK       I    between atoms: N_10  and  C_11 
REMARK    5  A    between atoms: C_11  and  C_13 
REMARK    6  A    between atoms: N_16  and  C_25 
REMARK    7  A    between atoms: C_17  and  C_18 
REMARK    8  A    between atoms: C_18  and  N_19 
REMARK    9  A    between atoms: C_29  and  N_30 
REMARK   10  A    between atoms: O_31  and  C_32 
ROOT
ATOM      1  C   UNK d   1      17.105  36.818  70.006  0.00  0.00     0.176 A 
ATOM      2  N   UNK d   1      16.092  37.668  70.217  0.00  0.00    -0.124 NA
ATOM      3  N   UNK d   1      15.036  37.002  70.615  0.00  0.00    -0.058 NA
ATOM      4  N   UNK d   1      15.303  35.686  70.685  0.00  0.00    -0.191 N 
ATOM      5  C   UNK d   1      16.579  35.548  70.312  0.00  0.00     0.104 A 
ENDROOT
BRANCH   1   6
ATOM      6  C   UNK d   1      18.462  37.105  69.559  0.00  0.00     0.294 C 
ATOM      7  N   UNK d   1      18.772  37.295  68.193  0.00  0.00    -0.242 N 
ATOM      8  H   UNK d   1      17.984  37.222  67.486  0.00  0.00     0.192 HD
ATOM      9  O   UNK d   1      19.374  37.186  70.404  0.00  0.00    -0.264 OA
BRANCH   7  10
ATOM     10  N   UNK d   1      20.025  37.568  67.705  0.00  0.00    -0.183 NA
ATOM     11  C   UNK d   1      20.581  36.991  66.704  0.00  0.00     0.150 C 
BRANCH  11  12
ATOM     12  C   UNK d   1      21.918  37.348  66.258  0.00  0.00    -0.013 A 
ATOM     13  C   UNK d   1      22.358  38.657  66.141  0.00  0.00     0.052 A 
ATOM     14  C   UNK d   1      23.628  38.966  65.716  0.00  0.00     0.104 A 
ATOM     15  C   UNK d   1      24.466  37.920  65.404  0.00  0.00     0.116 A 
ATOM     16  C   UNK d   1      24.058  36.595  65.508  0.00  0.00     0.047 A 
ATOM     17 Br   UNK d   1      25.226  35.153  65.074  0.00  0.00    -0.048 Br
ATOM     18  C   UNK d   1      22.790  36.332  65.934  0.00  0.00     0.035 A 
BRANCH  14  19
ATOM     19  O   UNK d   1      24.098  40.251  65.589  0.00  0.00    -0.349 OA
BRANCH  19  20
ATOM     20  C   UNK d   1      23.366  41.426  65.711  0.00  0.00     0.171 C 
ATOM     21  C   UNK d   1      22.977  42.067  64.418  0.00  0.00     0.034 C 
ENDBRANCH  19  20
ENDBRANCH  14  19
BRANCH  15  22
ATOM     22  O   UNK d   1      25.763  38.172  64.969  0.00  0.00    -0.357 OA
ATOM     23  H   UNK d   1      25.956  38.249  63.977  0.00  0.00     0.218 HD
ENDBRANCH  15  22
ENDBRANCH  11  12
ENDBRANCH   7  10
ENDBRANCH   1   6
BRANCH   5  24
ATOM     24  C   UNK d   1      17.375  34.327  70.179  0.00  0.00     0.334 C 
BRANCH  24  25
ATOM     25  N   UNK d   1      18.294  34.026  71.247  0.00  0.00     0.098 N 
ATOM     26  C   UNK d   1      17.720  32.847  71.906  0.00  0.00     0.299 C 
ATOM     27  C   UNK d   1      17.593  31.652  71.048  0.00  0.00     0.198 C 
ATOM     28  O   UNK d   1      18.609  31.592  70.107  0.00  0.00    -0.388 OA
ATOM     29  C   UNK d   1      19.745  32.143  70.659  0.00  0.00     0.198 C 
ATOM     30  C   UNK d   1      19.592  33.651  70.681  0.00  0.00     0.299 C 
ENDBRANCH  24  25
ENDBRANCH   5  24
BRANCH   4  31
ATOM     31  C   UNK d   1      14.330  34.709  71.070  0.00  0.00     0.229 A 
ATOM     32  N   UNK d   1      14.450  33.695  71.941  0.00  0.00    -0.081 NA
ATOM     33  O   UNK d   1      13.313  33.044  72.004  0.00  0.00    -0.103 OA
ATOM     34  N   UNK d   1      12.430  33.588  71.202  0.00  0.00    -0.083 NA
ATOM     35  C   UNK d   1      13.039  34.630  70.607  0.00  0.00     0.201 A 
BRANCH  35  36
ATOM     36  N   UNK d   1      12.398  35.476  69.665  0.00  0.00    -0.379 N 
ATOM     37  H   UNK d   1      11.488  35.256  69.211  0.00  0.00     0.158 HD
ATOM     38  H   UNK d   1      12.833  36.391  69.381  0.00  0.00     0.158 HD
ENDBRANCH  35  36
ENDBRANCH   4  31
TORSDOF 10
ENDMDL
