MODEL 1
REMARK VINA RESULT:    -8.570      0.000      0.000
REMARK INTER + INTRA:         -13.972
REMARK INTER:                 -12.577
REMARK INTRA:                  -1.394
REMARK UNBOUND:                -1.394
REMARK  9 active torsions:
REMARK  status: ('A' for Active; 'I' for Inactive)
REMARK    1  A    between atoms: C_3  and  O_33 
REMARK    2  A    between atoms: C_4  and  O_31 
REMARK    3  A    between atoms: C_6  and  C_8 
REMARK    4  A    between atoms: N_9  and  N_10 
REMARK       I    between atoms: N_10  and  C_11 
REMARK    5  A    between atoms: C_11  and  C_13 
REMARK    6  A    between atoms: N_16  and  C_25 
REMARK    7  A    between atoms: C_17  and  C_18 
REMARK    8  A    between atoms: C_18  and  N_19 
REMARK    9  A    between atoms: C_29  and  N_30 
ROOT
ATOM      1  C   UNK d   1      22.437  33.134  69.310  0.00  0.00     0.170 A 
ATOM      2  N   UNK d   1      23.555  32.558  69.585  0.00  0.00    -0.152 NA
ATOM      3  N   UNK d   1      24.418  32.755  68.602  0.00  0.00     0.012 NA
ATOM      4  N   UNK d   1      23.831  33.476  67.658  0.00  0.00    -0.215 N 
ATOM      5  C   UNK d   1      22.576  33.769  67.969  0.00  0.00     0.098 A 
ENDROOT
BRANCH   1   6
ATOM      6  C   UNK d   1      21.318  33.639  70.073  0.00  0.00     0.293 C 
ATOM      7  N   UNK d   1      19.977  33.171  69.798  0.00  0.00    -0.242 N 
ATOM      8  H   UNK d   1      19.411  32.782  69.169  0.00  0.00     0.192 HD
ATOM      9  O   UNK d   1      21.524  34.409  71.009  0.00  0.00    -0.264 OA
BRANCH   7  10
ATOM     10  N   UNK d   1      19.237  33.441  71.186  0.00  0.00    -0.183 NA
ATOM     11  C   UNK d   1      18.009  33.118  70.736  0.00  0.00     0.150 C 
BRANCH  11  12
ATOM     12  C   UNK d   1      16.688  32.992  71.060  0.00  0.00    -0.013 A 
ATOM     13  C   UNK d   1      16.094  32.160  71.992  0.00  0.00     0.052 A 
ATOM     14  C   UNK d   1      14.742  32.114  72.242  0.00  0.00     0.103 A 
ATOM     15  C   UNK d   1      13.929  32.948  71.524  0.00  0.00     0.116 A 
ATOM     16  C   UNK d   1      14.471  33.796  70.582  0.00  0.00     0.047 A 
ATOM     17 Br   UNK d   1      13.288  34.936  69.569  0.00  0.00    -0.048 Br
ATOM     18  C   UNK d   1      15.776  33.844  70.335  0.00  0.00     0.035 A 
BRANCH  14  19
ATOM     19  O   UNK d   1      14.228  31.227  73.195  0.00  0.00    -0.353 OA
ATOM     20  C   UNK d   1      14.357  29.810  72.962  0.00  0.00     0.210 C 
ENDBRANCH  14  19
BRANCH  15  21
ATOM     21  O   UNK d   1      12.548  32.948  71.739  0.00  0.00    -0.357 OA
ATOM     22  H   UNK d   1      11.971  33.635  71.209  0.00  0.00     0.218 HD
ENDBRANCH  15  21
ENDBRANCH  11  12
ENDBRANCH   7  10
ENDBRANCH   1   6
BRANCH   5  23
ATOM     23  C   UNK d   1      21.559  34.611  67.409  0.00  0.00     0.334 C 
BRANCH  23  24
ATOM     24  N   UNK d   1      21.859  36.034  67.240  0.00  0.00     0.098 N 
ATOM     25  C   UNK d   1      21.509  36.804  68.389  0.00  0.00     0.299 C 
ATOM     26  C   UNK d   1      20.034  36.913  68.651  0.00  0.00     0.198 C 
ATOM     27  O   UNK d   1      19.462  37.774  67.729  0.00  0.00    -0.388 OA
ATOM     28  C   UNK d   1      20.235  37.835  66.564  0.00  0.00     0.198 C 
ATOM     29  C   UNK d   1      20.782  36.481  66.254  0.00  0.00     0.299 C 
ENDBRANCH  23  24
ENDBRANCH   5  23
BRANCH   4  30
ATOM     30  C   UNK d   1      24.632  34.191  66.686  0.00  0.00     0.225 A 
ATOM     31  N   UNK d   1      24.738  34.148  65.424  0.00  0.00    -0.081 NA
ATOM     32  O   UNK d   1      25.670  34.982  64.962  0.00  0.00    -0.103 OA
ATOM     33  N   UNK d   1      26.165  35.574  65.988  0.00  0.00    -0.083 NA
ATOM     34  C   UNK d   1      25.593  35.157  67.118  0.00  0.00     0.201 A 
BRANCH  34  35
ATOM     35  N   UNK d   1      25.875  35.554  68.436  0.00  0.00    -0.379 N 
ATOM     36  H   UNK d   1      25.141  35.845  69.106  0.00  0.00     0.158 HD
ATOM     37  H   UNK d   1      26.877  35.562  68.827  0.00  0.00     0.158 HD
ENDBRANCH  34  35
ENDBRANCH   4  30
TORSDOF 9
ENDMDL
