/Users/jonathanwahrer/Desktop/Msc/3_Semester/Drug_Design_Praktikum/waehrer_HTS_screening/HTS_experiment/out/docking_results/vina_output/4x21/0018_docked.pdbqt
 OpenBabel03212201163D

 37 40  0  0  0  0  0  0  0  0999 V2000
   22.4370   33.1340   69.3100 C   0  0  0  0  0  0  0  0  0  0  0  0
   23.5550   32.5580   69.5850 N   0  0  0  0  0  0  0  0  0  0  0  0
   24.4180   32.7550   68.6020 N   0  0  0  0  0  0  0  0  0  0  0  0
   23.8310   33.4760   67.6580 N   0  0  0  0  0  0  0  0  0  0  0  0
   22.5760   33.7690   67.9690 C   0  0  0  0  0  0  0  0  0  0  0  0
   21.3180   33.6390   70.0730 C   0  0  0  0  0  0  0  0  0  0  0  0
   19.9770   33.1710   69.7980 N   0  0  0  0  0  0  0  0  0  0  0  0
   19.4110   32.7820   69.1690 H   0  0  0  0  0  0  0  0  0  0  0  0
   21.5240   34.4090   71.0090 O   0  0  0  0  0  0  0  0  0  0  0  0
   19.2370   33.4410   71.1860 N   0  0  0  0  0  2  0  0  0  0  0  0
   18.0090   33.1180   70.7360 C   0  0  0  0  0  2  0  0  0  0  0  0
   16.6880   32.9920   71.0600 C   0  0  0  0  0  0  0  0  0  0  0  0
   16.0940   32.1600   71.9920 C   0  0  0  0  0  3  0  0  0  0  0  0
   14.7420   32.1140   72.2420 C   0  0  0  0  0  0  0  0  0  0  0  0
   13.9290   32.9480   71.5240 C   0  0  0  0  0  0  0  0  0  0  0  0
   14.4710   33.7960   70.5820 C   0  0  0  0  0  0  0  0  0  0  0  0
   13.2880   34.9360   69.5690 Br  0  0  0  0  0  0  0  0  0  0  0  0
   15.7760   33.8440   70.3350 C   0  0  0  0  0  3  0  0  0  0  0  0
   14.2280   31.2270   73.1950 O   0  0  0  0  0  0  0  0  0  0  0  0
   14.3570   29.8100   72.9620 C   0  0  0  0  0  1  0  0  0  0  0  0
   12.5480   32.9480   71.7390 O   0  0  0  0  0  0  0  0  0  0  0  0
   11.9710   33.6350   71.2090 H   0  0  0  0  0  0  0  0  0  0  0  0
   21.5590   34.6110   67.4090 C   0  0  0  0  0  2  0  0  0  0  0  0
   21.8590   36.0340   67.2400 N   0  0  0  0  0  0  0  0  0  0  0  0
   21.5090   36.8040   68.3890 C   0  0  0  0  0  2  0  0  0  0  0  0
   20.0340   36.9130   68.6510 C   0  0  0  0  0  2  0  0  0  0  0  0
   19.4620   37.7740   67.7290 O   0  0  0  0  0  0  0  0  0  0  0  0
   20.2350   37.8350   66.5640 C   0  0  0  0  0  2  0  0  0  0  0  0
   20.7820   36.4810   66.2540 C   0  0  0  0  0  2  0  0  0  0  0  0
   24.6320   34.1910   66.6860 C   0  0  0  0  0  0  0  0  0  0  0  0
   24.7380   34.1480   65.4240 N   0  0  0  0  0  0  0  0  0  0  0  0
   25.6700   34.9820   64.9620 O   0  0  0  0  0  0  0  0  0  0  0  0
   26.1650   35.5740   65.9880 N   0  0  0  0  0  0  0  0  0  0  0  0
   25.5930   35.1570   67.1180 C   0  0  0  0  0  0  0  0  0  0  0  0
   25.8750   35.5540   68.4360 N   0  0  0  0  0  0  0  0  0  0  0  0
   25.1410   35.8450   69.1060 H   0  0  0  0  0  0  0  0  0  0  0  0
   26.8770   35.5620   68.8270 H   0  0  0  0  0  0  0  0  0  0  0  0
  1  2  1  0  0  0  0
  1  6  1  0  0  0  0
  3  2  2  0  0  0  0
  4  5  1  0  0  0  0
  4  3  1  0  0  0  0
  5  1  2  0  0  0  0
  6  9  2  0  0  0  0
  7  6  1  0  0  0  0
  7 10  1  0  0  0  0
  8  7  1  0  0  0  0
 11 12  1  0  0  0  0
 11 10  1  0  0  0  0
 12 13  1  0  0  0  0
 13 14  2  0  0  0  0
 14 19  1  0  0  0  0
 15 21  1  0  0  0  0
 15 14  1  0  0  0  0
 16 15  2  0  0  0  0
 17 16  1  0  0  0  0
 18 16  1  0  0  0  0
 18 12  2  0  0  0  0
 20 19  1  0  0  0  0
 22 21  1  0  0  0  0
 23  5  1  0  0  0  0
 24 23  1  0  0  0  0
 24 25  1  0  0  0  0
 25 26  1  0  0  0  0
 27 26  1  0  0  0  0
 28 27  1  0  0  0  0
 29 28  1  0  0  0  0
 29 24  1  0  0  0  0
 30 34  1  0  0  0  0
 30  4  1  0  0  0  0
 31 30  2  0  0  0  0
 32 31  1  0  0  0  0
 32 33  1  0  0  0  0
 33 34  2  0  0  0  0
 34 35  1  0  0  0  0
 35 37  1  0  0  0  0
 35 36  1  0  0  0  0
M  END
>  <Pose>
1

>  <Score>
-8.570

$$$$
