MODEL 1
REMARK VINA RESULT:    -8.447      0.000      0.000
REMARK INTER + INTRA:         -13.676
REMARK INTER:                 -12.645
REMARK INTRA:                  -1.032
REMARK UNBOUND:                -1.032
REMARK  9 active torsions:
REMARK  status: ('A' for Active; 'I' for Inactive)
REMARK    1  A    between atoms: C_3  and  O_32 
REMARK    2  A    between atoms: C_4  and  O_29 
REMARK    3  A    between atoms: C_6  and  C_8 
REMARK    4  A    between atoms: C_8  and  N_9 
REMARK    5  A    between atoms: N_9  and  N_10 
REMARK    6  A    between atoms: N_10  and  C_11 
REMARK    7  A    between atoms: C_13  and  N_23 
REMARK    8  A    between atoms: C_15  and  N_17 
REMARK    9  A    between atoms: O_29  and  C_30 
ROOT
ATOM      1  C   UNK d   1      20.861  37.851  66.903  0.00  0.00     0.783 A 
ATOM      2  N   UNK d   1      21.309  38.886  66.218  0.00  0.00     0.133 NA
ATOM      3  C   UNK d   1      22.615  38.959  65.832  0.00  0.00     0.756 A 
ATOM      4  N   UNK d   1      23.397  37.914  66.193  0.00  0.00     0.131 NA
ATOM      5  C   UNK d   1      22.997  36.835  66.891  0.00  0.00     0.756 A 
ATOM      6  N   UNK d   1      21.692  36.829  67.246  0.00  0.00     0.133 NA
ENDROOT
BRANCH   1   7
ATOM      7  N   UNK d   1      19.429  37.587  67.177  0.00  0.00    -0.061 N 
ATOM      8  H   UNK d   1      18.831  37.586  66.375  0.00  0.00     0.221 HD
BRANCH   7   9
ATOM      9  N   UNK d   1      19.249  37.389  68.459  0.00  0.00    -0.323 NA
BRANCH   9  10
ATOM     10  C   UNK d   1      19.069  37.211  69.591  0.00  0.00     0.221 C 
BRANCH  10  11
ATOM     11  C   UNK d   1      17.968  36.508  70.282  0.00  0.00    -0.001 A 
ATOM     12  C   UNK d   1      16.649  36.851  70.198  0.00  0.00     0.053 A 
ATOM     13  C   UNK d   1      15.660  36.015  70.696  0.00  0.00     0.104 A 
ATOM     14  C   UNK d   1      16.003  34.807  71.300  0.00  0.00     0.116 A 
ATOM     15  C   UNK d   1      17.322  34.457  71.399  0.00  0.00     0.047 A 
ATOM     16 Br   UNK d   1      17.796  32.784  72.209  0.00  0.00    -0.048 Br
ATOM     17  C   UNK d   1      18.275  35.311  70.889  0.00  0.00     0.036 A 
BRANCH  13  18
ATOM     18  O   UNK d   1      14.328  36.286  70.646  0.00  0.00    -0.349 OA
BRANCH  18  19
ATOM     19  C   UNK d   1      13.475  36.330  69.559  0.00  0.00     0.171 C 
ATOM     20  C   UNK d   1      12.891  34.969  69.209  0.00  0.00     0.034 C 
ENDBRANCH  18  19
ENDBRANCH  13  18
BRANCH  14  21
ATOM     21  O   UNK d   1      15.056  33.941  71.805  0.00  0.00    -0.357 OA
ATOM     22  H   UNK d   1      14.077  34.072  71.714  0.00  0.00     0.218 HD
ENDBRANCH  14  21
ENDBRANCH  10  11
ENDBRANCH   9  10
ENDBRANCH   7   9
ENDBRANCH   1   7
BRANCH   3  23
ATOM     23  N   UNK d   1      23.115  40.008  65.024  0.00  0.00    -0.209 N 
ATOM     24  C   UNK d   1      24.490  39.932  64.506  0.00  0.00     0.167 C 
ATOM     25  C   UNK d   1      25.096  41.332  64.783  0.00  0.00     0.188 C 
ATOM     26  O   UNK d   1      24.408  42.171  63.955  0.00  0.00    -0.388 OA
ATOM     27  C   UNK d   1      23.103  42.361  64.314  0.00  0.00     0.188 C 
ATOM     28  C   UNK d   1      22.336  41.149  64.729  0.00  0.00     0.167 C 
ENDBRANCH   3  23
BRANCH   5  29
ATOM     29  N   UNK d   1      23.815  35.738  67.094  0.00  0.00    -0.209 N 
ATOM     30  C   UNK d   1      24.930  35.288  66.354  0.00  0.00     0.167 C 
ATOM     31  C   UNK d   1      24.569  33.899  65.820  0.00  0.00     0.188 C 
ATOM     32  O   UNK d   1      24.214  33.117  66.898  0.00  0.00    -0.388 OA
ATOM     33  C   UNK d   1      23.120  33.549  67.612  0.00  0.00     0.188 C 
ATOM     34  C   UNK d   1      23.468  34.907  68.285  0.00  0.00     0.167 C 
ENDBRANCH   5  29
TORSDOF 9
ENDMDL
