MODEL 1
REMARK VINA RESULT:    -9.142      0.000      0.000
REMARK INTER + INTRA:         -10.633
REMARK INTER:                 -10.478
REMARK INTRA:                  -0.155
REMARK UNBOUND:                -0.155
REMARK  3 active torsions:
REMARK  status: ('A' for Active; 'I' for Inactive)
REMARK    1  A    between atoms: C_3  and  O_25 
REMARK    2  A    between atoms: C_6  and  C_8 
REMARK    3  A    between atoms: C_10  and  C_21 
ROOT
ATOM      1  C   UNK d   1      17.873  33.319  73.024  0.00  0.00     0.270 C 
ATOM      2  N   UNK d   1      17.883  31.935  73.257  0.00  0.00    -0.047 N 
ATOM      3  C   UNK d   1      16.714  31.177  73.018  0.00  0.00     0.291 C 
ATOM      4  C   UNK d   1      15.430  31.961  72.988  0.00  0.00     0.086 C 
ATOM      5  C   UNK d   1      15.559  33.209  72.198  0.00  0.00    -0.018 A 
ATOM      6  C   UNK d   1      14.681  33.890  71.399  0.00  0.00    -0.001 A 
ATOM      7  C   UNK d   1      15.393  34.984  70.938  0.00  0.00     0.043 A 
ATOM      8  N   UNK d   1      16.651  34.944  71.452  0.00  0.00    -0.356 N 
ATOM      9  C   UNK d   1      16.756  33.856  72.227  0.00  0.00     0.052 A 
ATOM     10  C   UNK d   1      14.727  35.849  70.096  0.00  0.00     0.030 A 
ATOM     11  C   UNK d   1      13.415  35.637  69.730  0.00  0.00     0.002 A 
ATOM     12  C   UNK d   1      12.707  34.546  70.190  0.00  0.00     0.001 A 
ATOM     13  C   UNK d   1      13.361  33.667  71.037  0.00  0.00     0.014 A 
ATOM     14  H   UNK d   1      18.690  31.457  72.760  0.00  0.00     0.279 HD
ATOM     15  H   UNK d   1      18.154  31.782  74.281  0.00  0.00     0.279 HD
ATOM     16  H   UNK d   1      17.349  35.685  71.225  0.00  0.00     0.166 HD
ENDROOT
BRANCH   1  17
ATOM     17  C   UNK d   1      19.125  33.709  72.316  0.00  0.00    -0.019 A 
ATOM     18  C   UNK d   1      19.448  35.025  72.063  0.00  0.00     0.031 A 
ATOM     19  C   UNK d   1      20.630  35.266  71.396  0.00  0.00     0.046 A 
ATOM     20  C   UNK d   1      21.491  34.273  70.978  0.00  0.00     0.100 A 
ATOM     21 Br   UNK d   1      21.107  37.075  71.031  0.00  0.00    -0.048 Br
ATOM     22  C   UNK d   1      21.162  32.964  71.235  0.00  0.00     0.046 A 
ATOM     23 Br   UNK d   1      22.322  31.566  70.674  0.00  0.00    -0.048 Br
ATOM     24  C   UNK d   1      19.967  32.698  71.910  0.00  0.00     0.031 A 
BRANCH  20  25
ATOM     25  O   UNK d   1      22.682  34.603  70.302  0.00  0.00    -0.358 OA
ATOM     26  H   UNK d   1      22.803  35.561  70.003  0.00  0.00     0.217 HD
ENDBRANCH  20  25
ENDBRANCH   1  17
BRANCH   3  27
ATOM     27  C   UNK d   1      16.782  30.396  71.752  0.00  0.00     0.205 C 
ATOM     28  O   UNK d   1      16.116  29.310  71.651  0.00  0.00    -0.646 OA
ATOM     29  O   UNK d   1      17.563  30.853  70.703  0.00  0.00    -0.646 OA
ENDBRANCH   3  27
TORSDOF 3
ENDMDL
