/Users/jonathanwahrer/Desktop/Msc/3_Semester/Drug_Design_Praktikum/waehrer_HTS_screening/HTS_experiment/out/docking_results/vina_output/4x21/0031_docked.pdbqt
 OpenBabel03212201183D

 24 27  0  0  1  0  0  0  0  0999 V2000
   15.9460   34.1970   71.7980 Br  0  0  0  0  0  0  0  0  0  0  0  0
   17.1320   35.3930   70.8740 C   0  0  0  0  0  0  0  0  0  0  0  0
   18.4480   35.1200   70.7520 C   0  0  0  0  0  0  0  0  0  0  0  0
   19.3290   36.0450   70.1200 C   0  0  0  0  0  0  0  0  0  0  0  0
   18.8010   37.2020   69.6600 C   0  0  0  0  0  3  0  0  0  0  0  0
   17.4530   37.4680   69.8060 C   0  0  0  0  0  3  0  0  0  0  0  0
   16.6120   36.5800   70.4040 C   0  0  0  0  0  3  0  0  0  0  0  0
   20.7510   35.7920   70.4250 C   0  0  0  0  0  2  0  0  0  0  0  0
   21.6400   35.3140   69.4480 N   0  0  2  0  0  4  0  0  0  0  0  0
   21.2170   34.9220   68.1990 C   0  0  0  0  0  2  0  0  0  0  0  0
   22.3330   34.5930   67.3160 N   0  0  2  0  0  0  0  0  0  0  0  0
   23.0930   33.5280   67.9490 C   0  0  0  0  0  2  0  0  0  0  0  0
   23.2430   35.6930   67.1080 C   0  0  0  0  0  2  0  0  0  0  0  0
   23.5280   33.8860   69.2830 N   0  0  2  0  0  0  0  0  0  0  0  0
   22.4770   34.2730   70.1380 C   0  0  0  0  0  2  0  0  0  0  0  0
   24.4950   34.9580   69.1660 C   0  0  0  0  0  2  0  0  0  0  0  0
   23.7840   36.0960   68.4780 C   0  0  2  0  0  3  0  0  0  0  0  0
   22.6070   36.4580   69.3050 C   0  0  0  0  0  2  0  0  0  0  0  0
   18.9710   33.9680   71.2210 O   0  0  0  0  0  0  0  0  0  0  0  0
   18.9960   32.7350   70.4730 C   0  0  0  0  0  2  0  0  0  0  0  0
   18.5930   31.5190   71.1730 C   0  0  0  0  0  0  0  0  0  0  0  0
   19.1750   31.0290   72.1310 O   0  0  0  0  0  0  0  0  0  0  0  0
   17.4270   30.8820   70.7320 O   0  0  0  0  0  0  0  0  0  0  0  0
   16.5030   30.2870   71.6030 C   0  0  0  0  0  1  0  0  0  0  0  0
  2  1  1  0  0  0  0
  3  2  1  0  0  0  0
  3 19  1  0  0  0  0
  4  8  1  0  0  0  0
  4  3  2  0  0  0  0
  5  6  2  0  0  0  0
  5  4  1  0  0  0  0
  6  7  1  0  0  0  0
  7  2  2  0  0  0  0
  9 15  1  0  0  0  0
  9  8  1  1  0  0  0
 10  9  1  0  0  0  0
 11 13  1  1  0  0  0
 11 12  1  0  0  0  0
 11 10  1  0  0  0  0
 14 12  1  6  0  0  0
 14 15  1  0  0  0  0
 16 14  1  0  0  0  0
 17 13  1  6  0  0  0
 17 16  1  0  0  0  0
 17 18  1  0  0  0  0
 18  9  1  0  0  0  0
 20 21  1  0  0  0  0
 20 19  1  0  0  0  0
 21 22  2  0  0  0  0
 23 21  1  0  0  0  0
 23 24  1  0  0  0  0
M  END
>  <Pose>
1

>  <Score>
-6.841

$$$$
