MODEL 1
REMARK VINA RESULT:    -6.841      0.000      0.000
REMARK INTER + INTRA:         -10.150
REMARK INTER:                  -9.240
REMARK INTRA:                  -0.910
REMARK UNBOUND:                -0.910
REMARK  6 active torsions:
REMARK  status: ('A' for Active; 'I' for Inactive)
REMARK    1  A    between atoms: C_3  and  O_19 
REMARK    2  A    between atoms: C_4  and  C_8 
REMARK    3  A    between atoms: C_8  and  N_9 
REMARK    4  A    between atoms: O_19  and  C_20 
REMARK    5  A    between atoms: C_20  and  C_21 
REMARK    6  A    between atoms: C_21  and  O_23 
ROOT
ATOM      1 Br   UNK d   1      15.946  34.197  71.798  0.00  0.00    -0.048 Br
ATOM      2  C   UNK d   1      17.132  35.393  70.874  0.00  0.00     0.044 A 
ATOM      3  C   UNK d   1      18.448  35.120  70.752  0.00  0.00     0.094 A 
ATOM      4  C   UNK d   1      19.329  36.045  70.120  0.00  0.00     0.003 A 
ATOM      5  C   UNK d   1      18.801  37.202  69.660  0.00  0.00     0.012 A 
ATOM      6  C   UNK d   1      17.453  37.468  69.806  0.00  0.00     0.002 A 
ATOM      7  C   UNK d   1      16.612  36.580  70.404  0.00  0.00     0.022 A 
ENDROOT
BRANCH   4   8
ATOM      8  C   UNK d   1      20.751  35.792  70.425  0.00  0.00     0.283 C 
BRANCH   8   9
ATOM      9  N   UNK d   1      21.640  35.314  69.448  0.00  0.00    -0.010 N 
ATOM     10  C   UNK d   1      21.217  34.922  68.199  0.00  0.00     0.512 C 
ATOM     11  N   UNK d   1      22.333  34.593  67.316  0.00  0.00     0.143 N 
ATOM     12  C   UNK d   1      23.093  33.528  67.949  0.00  0.00     0.547 C 
ATOM     13  C   UNK d   1      23.243  35.693  67.108  0.00  0.00     0.284 C 
ATOM     14  N   UNK d   1      23.528  33.886  69.283  0.00  0.00     0.143 N 
ATOM     15  C   UNK d   1      22.477  34.273  70.138  0.00  0.00     0.512 C 
ATOM     16  C   UNK d   1      24.495  34.958  69.166  0.00  0.00     0.284 C 
ATOM     17  C   UNK d   1      23.784  36.096  68.478  0.00  0.00     0.069 C 
ATOM     18  C   UNK d   1      22.607  36.458  69.305  0.00  0.00     0.250 C 
ENDBRANCH   8   9
ENDBRANCH   4   8
BRANCH   3  19
ATOM     19  O   UNK d   1      18.971  33.968  71.221  0.00  0.00    -0.340 OA
BRANCH  19  20
ATOM     20  C   UNK d   1      18.996  32.735  70.473  0.00  0.00     0.286 C 
BRANCH  20  21
ATOM     21  C   UNK d   1      18.593  31.519  71.173  0.00  0.00     0.282 C 
ATOM     22  O   UNK d   1      19.175  31.029  72.131  0.00  0.00    -0.263 OA
BRANCH  21  23
ATOM     23  O   UNK d   1      17.427  30.882  70.732  0.00  0.00    -0.325 OA
ATOM     24  C   UNK d   1      16.503  30.287  71.603  0.00  0.00     0.213 C 
ENDBRANCH  21  23
ENDBRANCH  20  21
ENDBRANCH  19  20
ENDBRANCH   3  19
TORSDOF 6
ENDMDL
