MODEL 1
REMARK VINA RESULT:    -8.671      0.000      0.000
REMARK INTER + INTRA:         -12.590
REMARK INTER:                 -11.713
REMARK INTRA:                  -0.878
REMARK UNBOUND:                -0.878
REMARK  7 active torsions:
REMARK  status: ('A' for Active; 'I' for Inactive)
REMARK    1  A    between atoms: C_3  and  O_30 
REMARK    2  A    between atoms: C_5  and  O_29 
REMARK    3  A    between atoms: C_7  and  C_8 
REMARK    4  A    between atoms: N_9  and  N_10 
REMARK    5  A    between atoms: N_10  and  C_11 
REMARK    6  A    between atoms: C_13  and  N_23 
REMARK    7  A    between atoms: C_15  and  N_17 
ROOT
ATOM      1  C   UNK d   1      19.337  36.797  69.481  0.00  0.00     0.774 A 
ATOM      2  N   UNK d   1      19.888  35.800  70.181  0.00  0.00     0.133 NA
ATOM      3  C   UNK d   1      21.069  35.230  69.822  0.00  0.00     0.756 A 
ATOM      4  N   UNK d   1      21.701  35.684  68.728  0.00  0.00     0.131 NA
ATOM      5  C   UNK d   1      21.174  36.683  68.005  0.00  0.00     0.756 A 
ATOM      6  N   UNK d   1      19.985  37.231  68.396  0.00  0.00     0.133 NA
ENDROOT
BRANCH   1   7
ATOM      7  N   UNK d   1      18.114  37.350  69.912  0.00  0.00    -0.105 N 
ATOM      8  H   UNK d   1      18.111  38.341  70.232  0.00  0.00     0.208 HD
BRANCH   7   9
ATOM      9  N   UNK d   1      16.908  36.596  69.915  0.00  0.00    -0.172 NA
ATOM     10  C   UNK d   1      16.666  35.748  70.860  0.00  0.00     0.152 C 
BRANCH  10  11
ATOM     11  C   UNK d   1      15.475  34.940  70.950  0.00  0.00     0.006 A 
ATOM     12  C   UNK d   1      15.415  33.802  71.718  0.00  0.00     0.056 A 
ATOM     13 Br   UNK d   1      16.982  33.316  72.689  0.00  0.00    -0.047 Br
ATOM     14  C   UNK d   1      14.273  33.025  71.796  0.00  0.00     0.086 A 
ATOM     15  C   UNK d   1      13.147  33.401  71.080  0.00  0.00     0.074 A 
ATOM     16  C   UNK d   1      13.181  34.537  70.302  0.00  0.00     0.069 A 
ATOM     17  C   UNK d   1      14.345  35.288  70.251  0.00  0.00     0.051 A 
BRANCH  14  18
ATOM     18  O   UNK d   1      14.243  31.885  72.577  0.00  0.00    -0.359 OA
ATOM     19  H   UNK d   1      14.090  30.996  72.121  0.00  0.00     0.217 HD
ENDBRANCH  14  18
BRANCH  16  20
ATOM     20  O   UNK d   1      12.033  34.875  69.602  0.00  0.00    -0.361 OA
ATOM     21  H   UNK d   1      12.030  35.360  68.715  0.00  0.00     0.217 HD
ENDBRANCH  16  20
ENDBRANCH  10  11
ENDBRANCH   7   9
ENDBRANCH   1   7
BRANCH   3  22
ATOM     22  N   UNK d   1      21.560  34.182  70.627  0.00  0.00    -0.209 N 
ATOM     23  C   UNK d   1      20.762  33.702  71.723  0.00  0.00     0.167 C 
ATOM     24  C   UNK d   1      20.594  32.196  71.470  0.00  0.00     0.188 C 
ATOM     25  O   UNK d   1      21.883  31.665  71.517  0.00  0.00    -0.388 OA
ATOM     26  C   UNK d   1      22.655  32.069  70.433  0.00  0.00     0.188 C 
ATOM     27  C   UNK d   1      22.846  33.572  70.393  0.00  0.00     0.167 C 
ENDBRANCH   3  22
BRANCH   5  28
ATOM     28  N   UNK d   1      21.838  37.171  66.839  0.00  0.00    -0.209 N 
ATOM     29  C   UNK d   1      22.679  36.352  66.000  0.00  0.00     0.167 C 
ATOM     30  C   UNK d   1      23.965  37.076  65.659  0.00  0.00     0.188 C 
ATOM     31  O   UNK d   1      24.040  38.330  66.245  0.00  0.00    -0.388 OA
ATOM     32  C   UNK d   1      22.933  39.095  65.830  0.00  0.00     0.188 C 
ATOM     33  C   UNK d   1      21.667  38.563  66.474  0.00  0.00     0.167 C 
ENDBRANCH   5  28
TORSDOF 7
ENDMDL
