/Users/jonathanwahrer/Desktop/Msc/3_Semester/Drug_Design_Praktikum/waehrer_HTS_screening/HTS_experiment/out/docking_results/vina_output/4x21/0039_docked.pdbqt
 OpenBabel03212201193D

 21 23  0  0  1  0  0  0  0  0999 V2000
   18.7700   35.3910   71.0230 N   0  0  0  0  0  0  0  0  0  0  0  0
   19.8190   34.6460   70.4820 C   0  0  0  0  0  0  0  0  0  0  0  0
   19.6290   33.5260   69.9860 O   0  0  0  0  0  0  0  0  0  0  0  0
   19.0340   36.3400   71.4240 H   0  0  0  0  0  0  0  0  0  0  0  0
   21.1830   35.2100   70.5050 C   0  0  0  0  0  2  0  0  0  0  0  0
   21.6620   35.7360   69.2690 N   0  0  1  0  0  4  0  0  0  0  0  0
   22.6680   36.7620   69.5840 C   0  0  0  0  0  2  0  0  0  0  0  0
   23.5700   36.8840   68.3810 C   0  0  0  0  0  2  0  0  0  0  0  0
   22.6990   36.7710   67.2120 N   0  0  1  0  0  0  0  0  0  0  0  0
   22.4730   35.3400   67.0310 C   0  0  0  0  0  2  0  0  0  0  0  0
   21.4070   37.3640   67.5210 C   0  0  0  0  0  2  0  0  0  0  0  0
   22.2650   34.7220   68.4060 C   0  0  0  0  0  2  0  0  0  0  0  0
   20.6600   36.4190   68.4770 C   0  0  0  0  0  2  0  0  0  0  0  0
   17.4000   35.0520   71.1070 C   0  0  0  0  0  0  0  0  0  0  0  0
   16.4300   35.8550   70.4900 C   0  0  0  0  0  0  0  0  0  0  0  0
   17.0840   37.4000   69.5540 Br  0  0  0  0  0  0  0  0  0  0  0  0
   15.0860   35.5770   70.5380 C   0  0  0  0  0  3  0  0  0  0  0  0
   14.6030   34.4760   71.2030 C   0  0  0  0  0  0  0  0  0  0  0  0
   15.5350   33.6740   71.8160 C   0  0  0  0  0  3  0  0  0  0  0  0
   13.1420   34.1630   71.2620 C   0  0  0  0  0  1  0  0  0  0  0  0
   16.9030   33.9510   71.7720 C   0  0  0  0  0  3  0  0  0  0  0  0
  1 14  1  0  0  0  0
  1  4  1  0  0  0  0
  2  5  1  0  0  0  0
  2  1  1  0  0  0  0
  3  2  2  0  0  0  0
  6  7  1  0  0  0  0
  6  5  1  1  0  0  0
  8  7  1  0  0  0  0
  9 10  1  1  0  0  0
  9 11  1  0  0  0  0
  9  8  1  0  0  0  0
 10 12  1  0  0  0  0
 11 13  1  0  0  0  0
 12  6  1  0  0  0  0
 13  6  1  0  0  0  0
 14 21  1  0  0  0  0
 15 17  1  0  0  0  0
 15 14  2  0  0  0  0
 16 15  1  0  0  0  0
 17 18  2  0  0  0  0
 18 20  1  0  0  0  0
 18 19  1  0  0  0  0
 21 19  2  0  0  0  0
M  END
>  <Pose>
1

>  <Score>
-6.798

$$$$
