MODEL 1
REMARK VINA RESULT:    -6.798      0.000      0.000
REMARK INTER + INTRA:          -8.191
REMARK INTER:                  -7.991
REMARK INTRA:                  -0.200
REMARK UNBOUND:                -0.200
REMARK  3 active torsions:
REMARK  status: ('A' for Active; 'I' for Inactive)
REMARK    1  A    between atoms: C_3  and  N_9 
REMARK       I    between atoms: N_9  and  C_10 
REMARK    2  A    between atoms: C_10  and  C_12 
REMARK    3  A    between atoms: C_12  and  N_13 
ROOT
ATOM      1  N   UNK d   1      18.770  35.391  71.023  0.00  0.00    -0.325 N 
ATOM      2  C   UNK d   1      19.819  34.646  70.482  0.00  0.00     0.248 C 
ATOM      3  O   UNK d   1      19.629  33.526  69.986  0.00  0.00    -0.271 OA
ATOM      4  H   UNK d   1      19.034  36.340  71.424  0.00  0.00     0.169 HD
ENDROOT
BRANCH   2   5
ATOM      5  C   UNK d   1      21.183  35.210  70.505  0.00  0.00     0.340 C 
BRANCH   5   6
ATOM      6  N   UNK d   1      21.662  35.736  69.269  0.00  0.00    -0.054 N 
ATOM      7  C   UNK d   1      22.668  36.762  69.584  0.00  0.00     0.268 C 
ATOM      8  C   UNK d   1      23.570  36.884  68.381  0.00  0.00     0.300 C 
ATOM      9  N   UNK d   1      22.699  36.771  67.212  0.00  0.00     0.093 N 
ATOM     10  C   UNK d   1      22.473  35.340  67.031  0.00  0.00     0.300 C 
ATOM     11  C   UNK d   1      21.407  37.364  67.521  0.00  0.00     0.300 C 
ATOM     12  C   UNK d   1      22.265  34.722  68.406  0.00  0.00     0.268 C 
ATOM     13  C   UNK d   1      20.660  36.419  68.477  0.00  0.00     0.268 C 
ENDBRANCH   5   6
ENDBRANCH   2   5
BRANCH   1  14
ATOM     14  C   UNK d   1      17.400  35.052  71.107  0.00  0.00     0.052 A 
ATOM     15  C   UNK d   1      16.430  35.855  70.490  0.00  0.00     0.038 A 
ATOM     16 Br   UNK d   1      17.084  37.400  69.554  0.00  0.00    -0.049 Br
ATOM     17  C   UNK d   1      15.086  35.577  70.538  0.00  0.00     0.028 A 
ATOM     18  C   UNK d   1      14.603  34.476  71.203  0.00  0.00    -0.061 A 
ATOM     19  C   UNK d   1      15.535  33.674  71.816  0.00  0.00     0.009 A 
ATOM     20  C   UNK d   1      13.142  34.163  71.262  0.00  0.00     0.048 C 
ATOM     21  C   UNK d   1      16.903  33.951  71.772  0.00  0.00     0.031 A 
ENDBRANCH   1  14
TORSDOF 3
ENDMDL
