/Users/jonathanwahrer/Desktop/Msc/3_Semester/Drug_Design_Praktikum/waehrer_HTS_screening/HTS_experiment/out/docking_results/vina_output/4x21/0064_docked.pdbqt
 OpenBabel03212201193D

 22 25  0  0  1  0  0  0  0  0999 V2000
   18.9060   33.7170   71.2340 N   0  0  0  0  0  0  0  0  0  0  0  0
   18.3240   32.4980   70.8030 C   0  0  0  0  0  0  0  0  0  0  0  0
   18.1850   32.1700   69.6110 O   0  0  0  0  0  0  0  0  0  0  0  0
   17.9060   31.6690   71.9560 C   0  0  2  0  0  3  0  0  0  0  0  0
   16.4320   31.4680   72.0330 C   0  0  1  0  0  0  0  0  0  0  0  0
   16.0690   31.8550   73.3510 O   0  0  0  0  0  0  0  0  0  0  0  0
   16.6930   33.1290   73.3150 C   0  0  1  0  0  3  0  0  0  0  0  0
   18.1310   32.6260   73.1400 C   0  0  2  0  0  3  0  0  0  0  0  0
   19.0240   33.6910   72.6600 C   0  0  0  0  0  0  0  0  0  0  0  0
   19.7600   34.4460   73.3320 O   0  0  0  0  0  0  0  0  0  0  0  0
   16.1400   33.6660   72.0530 C   0  0  0  0  0  2  0  0  0  0  0  0
   15.7990   32.6130   71.3100 C   0  0  0  0  0  2  0  0  0  0  0  0
   19.3240   34.8340   70.4630 C   0  0  0  0  0  0  0  0  0  0  0  0
   20.5530   34.9240   69.8490 C   0  0  0  0  0  0  0  0  0  0  0  0
   21.7500   33.4300   70.0680 Br  0  0  0  0  0  0  0  0  0  0  0  0
   20.9350   36.0190   69.1070 C   0  0  0  0  0  3  0  0  0  0  0  0
   20.0980   37.0910   68.9440 C   0  0  0  0  0  3  0  0  0  0  0  0
   18.8480   37.0340   69.5500 C   0  0  0  0  0  3  0  0  0  0  0  0
   18.4810   35.9270   70.2900 C   0  0  0  0  0  3  0  0  0  0  0  0
   15.9030   30.1480   71.6560 C   0  0  0  0  0  2  0  0  0  0  0  0
   16.9090   29.1920   71.8880 O   0  0  0  0  0  0  0  0  0  0  0  0
   17.7560   29.6590   72.1490 H   0  0  0  0  0  0  0  0  0  0  0  0
  1  9  1  0  0  0  0
  2  1  1  0  0  0  0
  3  2  2  0  0  0  0
  4  2  1  6  0  0  0
  4  5  1  0  0  0  0
  4  8  1  0  0  0  0
  5 20  1  6  0  0  0
  5  6  1  0  0  0  0
  7 11  1  6  0  0  0
  7  6  1  0  0  0  0
  8  9  1  6  0  0  0
  8  7  1  0  0  0  0
  9 10  2  0  0  0  0
 12  5  1  0  0  0  0
 12 11  1  0  0  0  0
 13  1  1  0  0  0  0
 14 15  1  0  0  0  0
 14 13  2  0  0  0  0
 16 14  1  0  0  0  0
 17 16  2  0  0  0  0
 17 18  1  0  0  0  0
 18 19  2  0  0  0  0
 19 13  1  0  0  0  0
 20 21  1  0  0  0  0
 21 22  1  0  0  0  0
M  END
>  <Pose>
1

>  <Score>
-7.128

$$$$
