/Users/jonathanwahrer/Desktop/Msc/3_Semester/Drug_Design_Praktikum/waehrer_HTS_screening/HTS_experiment/out/docking_results/vina_output/4x21/0067_docked.pdbqt
 OpenBabel03212201193D

 22 25  0  0  1  0  0  0  0  0999 V2000
   17.0410   34.9230   70.9250 N   0  0  0  0  0  0  0  0  0  0  0  0
   18.2630   35.5400   70.3740 C   0  0  0  0  0  2  0  0  0  0  0  0
   19.2940   34.6300   70.8570 C   0  0  2  0  0  0  0  0  0  0  0  0
   19.5320   33.4930   70.0670 O   0  0  0  0  0  0  0  0  0  0  0  0
   20.4040   32.8560   70.9910 C   0  0  2  0  0  3  0  0  0  0  0  0
   19.3880   32.6720   72.1270 C   0  0  1  0  0  3  0  0  0  0  0  0
   18.8320   34.0590   72.2090 C   0  0  2  0  0  3  0  0  0  0  0  0
   17.3890   34.1960   72.0970 C   0  0  0  0  0  0  0  0  0  0  0  0
   16.5500   33.7460   72.9050 O   0  0  0  0  0  0  0  0  0  0  0  0
   21.3590   33.9670   71.2740 C   0  0  0  0  0  2  0  0  0  0  0  0
   20.6600   35.1030   71.0590 C   0  0  0  0  0  2  0  0  0  0  0  0
   15.7250   35.0120   70.4020 C   0  0  0  0  0  0  0  0  0  0  0  0
   15.0930   36.2230   70.1780 C   0  0  0  0  0  0  0  0  0  0  0  0
   15.9380   37.8660   70.5510 Br  0  0  0  0  0  0  0  0  0  0  0  0
   13.7970   36.2740   69.6620 C   0  0  0  0  0  3  0  0  0  0  0  0
   13.1070   35.1300   69.3590 C   0  0  0  0  0  3  0  0  0  0  0  0
   13.7090   33.9310   69.5730 C   0  0  0  0  0  3  0  0  0  0  0  0
   14.9830   33.8820   70.0790 C   0  0  0  0  0  3  0  0  0  0  0  0
   18.3610   31.7330   71.5720 C   0  0  0  0  0  0  0  0  0  0  0  0
   18.1440   31.6130   70.3580 O   0  0  0  0  0  0  0  0  0  0  0  0
   17.6200   30.9650   72.4620 O   0  0  0  0  0  0  0  0  0  0  0  0
   16.4820   30.2500   71.9650 C   0  0  0  0  0  1  0  0  0  0  0  0
  1  8  1  0  0  0  0
  2  1  1  0  0  0  0
  3  2  1  6  0  0  0
  3 11  1  0  0  0  0
  3  7  1  0  0  0  0
  4  3  1  0  0  0  0
  4  5  1  0  0  0  0
  5 10  1  1  0  0  0
  5  6  1  0  0  0  0
  6 19  1  6  0  0  0
  6  7  1  0  0  0  0
  7  8  1  6  0  0  0
  8  9  2  0  0  0  0
 11 10  1  0  0  0  0
 12  1  1  0  0  0  0
 13 12  1  0  0  0  0
 13 14  1  0  0  0  0
 15 13  2  0  0  0  0
 16 17  2  0  0  0  0
 16 15  1  0  0  0  0
 17 18  1  0  0  0  0
 18 12  2  0  0  0  0
 19 21  1  0  0  0  0
 20 19  2  0  0  0  0
 22 21  1  0  0  0  0
M  END
>  <Pose>
1

>  <Score>
-7.716

$$$$
