MODEL 1
REMARK VINA RESULT:    -8.121      0.000      0.000
REMARK INTER + INTRA:          -9.229
REMARK INTER:                  -9.071
REMARK INTRA:                  -0.158
REMARK UNBOUND:                -0.158
REMARK  2 active torsions:
REMARK  status: ('A' for Active; 'I' for Inactive)
REMARK    1  A    between atoms: N_4  and  C_8 
REMARK    2  A    between atoms: C_8  and  C_9 
ROOT
ATOM      1  C   UNK d   1      15.889  36.356  70.642  0.00  0.00     0.168 A 
ATOM      2  N   UNK d   1      14.632  35.983  70.342  0.00  0.00    -0.148 NA
ATOM      3  N   UNK d   1      14.389  34.779  70.864  0.00  0.00    -0.206 N 
ATOM      4  C   UNK d   1      15.493  34.355  71.513  0.00  0.00     0.169 A 
ATOM      5  N   UNK d   1      16.398  35.340  71.361  0.00  0.00    -0.209 NA
ATOM      6  C   UNK d   1      15.475  33.123  72.137  0.00  0.00     0.079 A 
ATOM      7  C   UNK d   1      14.364  32.304  72.122  0.00  0.00     0.162 A 
ATOM      8  N   UNK d   1      14.617  31.168  72.803  0.00  0.00    -0.256 N 
ATOM      9  N   UNK d   1      15.856  31.247  73.247  0.00  0.00    -0.182 NA
ATOM     10  C   UNK d   1      16.422  32.429  72.862  0.00  0.00     0.158 A 
ATOM     11  C   UNK d   1      13.726  30.042  73.032  0.00  0.00     0.182 C 
ATOM     12  N   UNK d   1      13.285  32.764  71.464  0.00  0.00    -0.222 NA
ATOM     13  C   UNK d   1      13.309  33.978  70.852  0.00  0.00     0.239 A 
ENDROOT
BRANCH   1  14
ATOM     14  C   UNK d   1      16.577  37.636  70.255  0.00  0.00     0.233 C 
BRANCH  14  15
ATOM     15  N   UNK d   1      17.841  37.380  69.605  0.00  0.00    -0.265 N 
ATOM     16  C   UNK d   1      18.132  37.726  68.343  0.00  0.00     0.046 A 
ATOM     17  C   UNK d   1      19.417  37.308  68.112  0.00  0.00     0.060 A 
ATOM     18  C   UNK d   1      17.260  38.429  67.348  0.00  0.00     0.071 C 
ATOM     19 Br   UNK d   1      20.404  37.509  66.502  0.00  0.00    -0.047 Br
ATOM     20  C   UNK d   1      19.893  36.709  69.248  0.00  0.00     0.070 A 
ATOM     21  N   UNK d   1      18.882  36.776  70.145  0.00  0.00    -0.176 NA
ATOM     22  C   UNK d   1      21.251  36.096  69.475  0.00  0.00     0.074 C 
ENDBRANCH  14  15
ENDBRANCH   1  14
TORSDOF 2
ENDMDL
