MODEL 1
REMARK VINA RESULT:    -8.096      0.000      0.000
REMARK INTER + INTRA:          -9.826
REMARK INTER:                  -9.516
REMARK INTRA:                  -0.310
REMARK UNBOUND:                -0.310
REMARK  3 active torsions:
REMARK  status: ('A' for Active; 'I' for Inactive)
REMARK    1  A    between atoms: C_3  and  C_8 
REMARK       I    between atoms: C_8  and  N_10 
REMARK    2  A    between atoms: N_10  and  C_11 
REMARK    3  A    between atoms: C_17  and  N_20 
ROOT
ATOM      1  C   UNK d   1      20.163  36.915  68.730  0.00  0.00     0.069 A 
ATOM      2  C   UNK d   1      19.020  37.593  68.261  0.00  0.00     0.146 A 
ATOM      3  N   UNK d   1      18.876  38.496  67.253  0.00  0.00    -0.101 NA
ATOM      4  O   UNK d   1      17.621  38.828  67.215  0.00  0.00    -0.106 OA
ATOM      5  N   UNK d   1      16.954  38.198  68.131  0.00  0.00    -0.101 NA
ATOM      6  C   UNK d   1      17.784  37.405  68.821  0.00  0.00     0.146 A 
ATOM      7  C   UNK d   1      17.575  36.543  69.879  0.00  0.00     0.064 A 
ATOM      8  C   UNK d   1      18.698  35.881  70.336  0.00  0.00     0.034 A 
ATOM      9  C   UNK d   1      19.960  36.064  69.774  0.00  0.00     0.034 A 
ENDROOT
BRANCH   1  10
ATOM     10  N   UNK d   1      21.389  37.189  68.073  0.00  0.00    -0.319 N 
ATOM     11  C   UNK d   1      21.748  36.728  66.810  0.00  0.00     0.275 C 
ATOM     12  O   UNK d   1      20.931  35.993  66.139  0.00  0.00    -0.266 OA
ATOM     13  H   UNK d   1      22.111  37.805  68.554  0.00  0.00     0.169 HD
BRANCH  11  14
ATOM     14  C   UNK d   1      23.040  37.031  66.159  0.00  0.00     0.139 A 
ATOM     15  C   UNK d   1      24.094  36.209  65.925  0.00  0.00     0.064 A 
ATOM     16 Br   UNK d   1      24.276  34.346  66.302  0.00  0.00    -0.047 Br
ATOM     17  C   UNK d   1      25.088  36.990  65.303  0.00  0.00     0.160 A 
ATOM     18  N   UNK d   1      24.571  38.210  65.208  0.00  0.00    -0.183 NA
ATOM     19  N   UNK d   1      23.362  38.288  65.699  0.00  0.00    -0.268 N 
ATOM     20  C   UNK d   1      22.526  39.459  65.752  0.00  0.00     0.180 C 
ENDBRANCH  11  14
ENDBRANCH   1  10
BRANCH   7  21
ATOM     21  N   UNK d   1      16.312  36.341  70.465  0.00  0.00    -0.375 N 
ATOM     22  C   UNK d   1      16.009  35.026  71.024  0.00  0.00     0.149 C 
ATOM     23  C   UNK d   1      14.571  34.922  71.451  0.00  0.00     0.187 C 
ATOM     24  O   UNK d   1      13.663  35.515  70.637  0.00  0.00    -0.388 OA
ATOM     25  C   UNK d   1      14.042  36.620  69.933  0.00  0.00     0.187 C 
ATOM     26  C   UNK d   1      15.234  37.273  70.602  0.00  0.00     0.149 C 
ENDBRANCH   7  21
TORSDOF 3
ENDMDL
