/Users/jonathanwahrer/Desktop/Msc/3_Semester/Drug_Design_Praktikum/waehrer_HTS_screening/HTS_experiment/out/docking_results/vina_output/4x21/0106_docked.pdbqt
 OpenBabel03212201203D

 29 32  0  0  0  0  0  0  0  0999 V2000
   13.2320   31.9120   72.3700 C   0  0  0  0  0  3  0  0  0  0  0  0
   13.8490   32.9360   71.8490 C   0  0  0  0  0  0  0  0  0  0  0  0
   15.2110   33.1710   71.9580 O   0  0  0  0  0  0  0  0  0  0  0  0
   15.5870   34.3320   71.3090 C   0  0  0  0  0  0  0  0  0  0  0  0
   14.4950   34.9380   70.7310 C   0  0  0  0  0  0  0  0  0  0  0  0
   14.6470   36.1160   70.0300 C   0  0  0  0  0  3  0  0  0  0  0  0
   15.9000   36.6800   69.9170 C   0  0  0  0  0  3  0  0  0  0  0  0
   17.0010   36.0400   70.5190 C   0  0  0  0  0  0  0  0  0  0  0  0
   16.8760   34.8760   71.2140 C   0  0  0  0  0  0  0  0  0  0  0  0
   18.2090   36.7280   70.3220 O   0  0  0  0  0  1  0  0  0  0  0  0
   13.3600   34.0680   71.0560 C   0  0  0  0  0  0  0  0  0  0  0  0
   12.1680   34.2490   70.7220 O   0  0  0  0  0  0  0  0  0  0  0  0
   13.8370   30.8460   73.1500 C   0  0  0  0  0  0  0  0  0  0  0  0
   14.9520   30.1530   72.7320 C   0  0  0  0  0  3  0  0  0  0  0  0
   15.5280   29.1390   73.4410 C   0  0  0  0  0  0  0  0  0  0  0  0
   17.0670   28.1600   72.8930 Br  0  0  0  0  0  0  0  0  0  0  0  0
   14.9410   28.7970   74.6560 C   0  0  0  0  0  3  0  0  0  0  0  0
   13.8160   29.4600   75.1300 C   0  0  0  0  0  3  0  0  0  0  0  0
   13.2810   30.4680   74.3760 C   0  0  0  0  0  0  0  0  0  0  0  0
   12.1590   31.1440   74.8150 O   0  0  0  0  0  0  0  0  0  0  0  0
   11.1740   30.4760   75.5580 C   0  0  0  0  0  1  0  0  0  0  0  0
   17.9650   34.1700   71.8310 C   0  0  0  0  0  2  0  0  0  0  0  0
   18.4070   32.9120   71.3880 N   0  0  0  0  0  4  0  0  0  0  0  0
   19.6650   32.9000   70.6900 C   0  0  0  0  0  2  0  0  0  0  0  0
   20.8720   32.8950   71.5960 C   0  0  0  0  0  2  0  0  0  0  0  0
   20.5570   33.0270   72.9410 O   0  0  0  0  0  0  0  0  0  0  0  0
   19.7260   31.9570   73.2560 C   0  0  0  0  0  2  0  0  0  0  0  0
   18.4530   31.9180   72.4750 C   0  0  0  0  0  2  0  0  0  0  0  0
   17.6940   32.5060   70.7480 H   0  0  0  0  0  0  0  0  0  0  0  0
  1 13  1  0  0  0  0
  2  3  1  0  0  0  0
  2  1  2  0  0  0  0
  4  3  1  0  0  0  0
  5 11  1  0  0  0  0
  5  4  2  0  0  0  0
  6  5  1  0  0  0  0
  7  6  2  0  0  0  0
  7  8  1  0  0  0  0
  8  9  2  0  0  0  0
  9  4  1  0  0  0  0
  9 22  1  0  0  0  0
 10  8  1  0  0  0  0
 11  2  1  0  0  0  0
 12 11  2  0  0  0  0
 13 19  1  0  0  0  0
 14 13  2  0  0  0  0
 14 15  1  0  0  0  0
 15 17  2  0  0  0  0
 16 15  1  0  0  0  0
 17 18  1  0  0  0  0
 19 20  1  0  0  0  0
 19 18  2  0  0  0  0
 20 21  1  0  0  0  0
 23 22  1  0  0  0  0
 23 28  1  0  0  0  0
 24 23  1  0  0  0  0
 24 25  1  0  0  0  0
 25 26  1  0  0  0  0
 26 27  1  0  0  0  0
 28 27  1  0  0  0  0
 29 23  1  0  0  0  0
M  END
>  <Pose>
1

>  <Score>
-8.734

$$$$
