MODEL 1
REMARK VINA RESULT:    -8.996      0.000      0.000
REMARK INTER + INTRA:         -11.248
REMARK INTER:                 -10.574
REMARK INTRA:                  -0.675
REMARK UNBOUND:                -0.675
REMARK  3 active torsions:
REMARK  status: ('A' for Active; 'I' for Inactive)
REMARK    1  A    between atoms: C_4  and  C_8 
REMARK       I    between atoms: C_8  and  N_10 
REMARK    2  A    between atoms: N_10  and  C_11 
REMARK    3  A    between atoms: C_11  and  C_13 
REMARK       I    between atoms: C_13  and  N_15 
ROOT
ATOM      1  C   UNK d   1      20.589  34.533  69.766  0.00  0.00     0.242 C 
ATOM      2  O   UNK d   1      20.479  33.268  69.815  0.00  0.00    -0.271 OA
ATOM      3  N   UNK d   1      21.381  35.151  68.756  0.00  0.00    -0.350 N 
ATOM      4  C   UNK d   1      21.673  36.562  68.754  0.00  0.00     0.129 C 
ATOM      5  C   UNK d   1      23.203  36.597  68.981  0.00  0.00     0.068 C 
ATOM      6  C   UNK d   1      23.792  36.153  67.669  0.00  0.00     0.204 C 
ATOM      7  N   UNK d   1      25.189  35.814  67.937  0.00  0.00     0.099 N 
ATOM      8  C   UNK d   1      25.925  36.879  68.507  0.00  0.00     0.277 C 
ATOM      9  C   UNK d   1      26.049  38.080  67.586  0.00  0.00     0.091 C 
ATOM     10  C   UNK d   1      24.848  38.254  66.748  0.00  0.00     0.062 A 
ATOM     11  N   UNK d   1      24.559  39.227  65.868  0.00  0.00    -0.246 NA
ATOM     12  C   UNK d   1      23.347  38.947  65.342  0.00  0.00     0.207 A 
ATOM     13  N   UNK d   1      22.897  37.798  65.907  0.00  0.00    -0.350 N 
ATOM     14  C   UNK d   1      23.809  37.344  66.789  0.00  0.00     0.074 A 
ATOM     15  C   UNK d   1      23.141  34.971  67.043  0.00  0.00     0.068 C 
ATOM     16  C   UNK d   1      21.937  34.385  67.699  0.00  0.00     0.129 C 
ATOM     17  H   UNK d   1      25.662  35.394  67.096  0.00  0.00     0.317 HD
ATOM     18  H   UNK d   1      21.972  37.423  65.618  0.00  0.00     0.166 HD
ENDROOT
BRANCH   1  19
ATOM     19  C   UNK d   1      19.887  35.290  70.792  0.00  0.00     0.173 C 
ATOM     20  C   UNK d   1      20.372  34.863  72.168  0.00  0.00     0.042 C 
BRANCH  19  21
ATOM     21  N   UNK d   1      18.479  35.317  70.638  0.00  0.00    -0.344 N 
ATOM     22  C   UNK d   1      17.741  36.415  70.207  0.00  0.00     0.252 C 
ATOM     23  O   UNK d   1      18.103  37.521  69.844  0.00  0.00    -0.268 OA
ATOM     24  H   UNK d   1      17.979  34.396  70.826  0.00  0.00     0.163 HD
BRANCH  22  25
ATOM     25  C   UNK d   1      16.249  36.175  70.212  0.00  0.00     0.033 A 
ATOM     26  C   UNK d   1      15.817  34.913  70.559  0.00  0.00     0.036 A 
ATOM     27  C   UNK d   1      14.471  34.634  70.541  0.00  0.00     0.011 A 
ATOM     28 Br   UNK d   1      13.857  32.877  71.039  0.00  0.00    -0.051 Br
ATOM     29  C   UNK d   1      13.532  35.579  70.180  0.00  0.00     0.019 A 
ATOM     30  C   UNK d   1      14.026  36.838  69.835  0.00  0.00     0.002 A 
ATOM     31  C   UNK d   1      15.361  37.137  69.850  0.00  0.00     0.017 A 
ENDBRANCH  22  25
ENDBRANCH  19  21
ENDBRANCH   1  19
TORSDOF 3
ENDMDL
