MODEL 1
REMARK VINA RESULT:    -8.656      0.000      0.000
REMARK INTER + INTRA:         -11.145
REMARK INTER:                 -10.680
REMARK INTRA:                  -0.464
REMARK UNBOUND:                -0.464
REMARK  4 active torsions:
REMARK  status: ('A' for Active; 'I' for Inactive)
REMARK    1  A    between atoms: C_4  and  C_8 
REMARK       I    between atoms: C_8  and  N_10 
REMARK    2  A    between atoms: N_10  and  C_11 
REMARK    3  A    between atoms: C_19  and  C_22 
REMARK    4  A    between atoms: C_22  and  C_23 
ROOT
ATOM      1  C   UNK d   1      20.987  37.141  67.990  0.00  0.00     0.105 C 
ATOM      2  C   UNK d   1      21.449  36.133  66.955  0.00  0.00     0.152 C 
ATOM      3  N   UNK d   1      22.814  36.543  66.691  0.00  0.00    -0.335 N 
ATOM      4  C   UNK d   1      23.240  37.563  67.627  0.00  0.00     0.181 C 
ATOM      5  C   UNK d   1      22.246  37.364  68.779  0.00  0.00     0.061 C 
ATOM      6  C   UNK d   1      24.613  37.272  68.040  0.00  0.00     0.241 C 
ATOM      7  O   UNK d   1      24.927  37.191  69.236  0.00  0.00    -0.271 OA
ATOM      8  N   UNK d   1      25.585  37.085  67.024  0.00  0.00    -0.346 N 
ATOM      9  C   UNK d   1      25.172  36.610  65.723  0.00  0.00     0.181 C 
ATOM     10  C   UNK d   1      23.771  36.131  65.705  0.00  0.00     0.243 C 
ATOM     11  O   UNK d   1      23.396  35.337  64.803  0.00  0.00    -0.271 OA
ATOM     12  H   UNK d   1      26.601  37.278  67.175  0.00  0.00     0.163 HD
ENDROOT
BRANCH   1  13
ATOM     13  N   UNK d   1      19.902  36.614  68.799  0.00  0.00    -0.351 N 
ATOM     14  C   UNK d   1      18.680  37.314  68.782  0.00  0.00     0.252 C 
ATOM     15  O   UNK d   1      18.569  38.377  68.066  0.00  0.00    -0.268 OA
ATOM     16  H   UNK d   1      19.999  35.766  69.374  0.00  0.00     0.163 HD
BRANCH  14  17
ATOM     17  C   UNK d   1      17.527  36.878  69.551  0.00  0.00     0.033 A 
ATOM     18  C   UNK d   1      17.604  35.747  70.355  0.00  0.00     0.036 A 
ATOM     19  C   UNK d   1      16.523  35.335  71.084  0.00  0.00     0.011 A 
ATOM     20 Br   UNK d   1      16.643  33.775  72.186  0.00  0.00    -0.051 Br
ATOM     21  C   UNK d   1      15.339  36.015  71.052  0.00  0.00     0.019 A 
ATOM     22  C   UNK d   1      15.260  37.134  70.260  0.00  0.00     0.002 A 
ATOM     23  C   UNK d   1      16.350  37.559  69.517  0.00  0.00     0.017 A 
ENDBRANCH  14  17
ENDBRANCH   1  13
BRANCH   9  24
ATOM     24  C   UNK d   1      25.443  37.614  64.624  0.00  0.00     0.073 C 
BRANCH  24  25
ATOM     25  C   UNK d   1      25.123  38.999  65.009  0.00  0.00    -0.056 A 
ATOM     26  C   UNK d   1      23.864  39.511  64.750  0.00  0.00     0.007 A 
ATOM     27  C   UNK d   1      23.557  40.803  65.108  0.00  0.00     0.001 A 
ATOM     28  C   UNK d   1      24.463  41.641  65.729  0.00  0.00     0.000 A 
ATOM     29  C   UNK d   1      25.719  41.134  65.988  0.00  0.00     0.001 A 
ATOM     30  C   UNK d   1      26.045  39.838  65.637  0.00  0.00     0.007 A 
ENDBRANCH  24  25
ENDBRANCH   9  24
TORSDOF 4
ENDMDL
