/Users/jonathanwahrer/Desktop/Msc/3_Semester/Drug_Design_Praktikum/waehrer_HTS_screening/HTS_experiment/out/docking_results/vina_output/4x21/0137_docked.pdbqt
 OpenBabel03212201213D

 25 28  0  0  1  0  0  0  0  0999 V2000
   17.8180   37.4230   69.8620 C   0  0  2  0  0  3  0  0  0  0  0  0
   17.9580   37.5460   68.2990 C   0  0  0  0  0  2  0  0  0  0  0  0
   19.3480   37.3380   68.0710 N   0  0  0  0  0  0  0  0  0  0  0  0
   19.9200   36.6410   69.2140 C   0  0  1  0  0  3  0  0  0  0  0  0
   18.7570   36.1850   69.9960 C   0  0  0  0  0  2  0  0  0  0  0  0
   20.8760   35.6180   68.7610 C   0  0  0  0  0  0  0  0  0  0  0  0
   20.9090   34.5150   69.3350 O   0  0  0  0  0  0  0  0  0  0  0  0
   21.7490   35.8850   67.6830 N   0  0  0  0  0  0  0  0  0  0  0  0
   21.3210   36.7620   66.6160 C   0  0  2  0  0  3  0  0  0  0  0  0
   22.5750   37.4680   66.1420 C   0  0  0  0  0  2  0  0  0  0  0  0
   23.6840   36.8460   66.9160 C   0  0  0  0  0  2  0  0  0  0  0  0
   23.1040   35.4820   67.3210 C   0  0  0  0  0  2  0  0  0  0  0  0
   20.2360   37.6550   67.0060 C   0  0  0  0  0  0  0  0  0  0  0  0
   20.0630   38.7610   66.3830 O   0  0  0  0  0  0  0  0  0  0  0  0
   16.5610   37.2870   70.2660 N   0  0  0  0  0  0  0  0  0  0  0  0
   15.2610   37.1530   70.6870 C   0  0  0  0  0  0  0  0  0  0  0  0
   14.4420   38.0330   71.0960 O   0  0  0  0  0  0  0  0  0  0  0  0
   16.4750   38.6420   70.5010 H   0  0  0  0  0  0  0  0  0  0  0  0
   14.6270   35.7790   70.6950 C   0  0  0  0  0  0  0  0  0  0  0  0
   15.1810   34.7470   71.4130 C   0  0  0  0  0  3  0  0  0  0  0  0
   14.6280   33.4910   71.4430 C   0  0  0  0  0  0  0  0  0  0  0  0
   15.3770   32.0700   72.4590 Br  0  0  0  0  0  0  0  0  0  0  0  0
   13.4640   33.2910   70.7060 C   0  0  0  0  0  3  0  0  0  0  0  0
   12.8870   34.2970   69.9810 C   0  0  0  0  0  3  0  0  0  0  0  0
   13.4800   35.5530   69.9790 C   0  0  0  0  0  3  0  0  0  0  0  0
  1  5  1  0  0  0  0
  1 15  1  6  0  0  0
  2  1  1  0  0  0  0
  3  2  1  0  0  0  0
  3  4  1  0  0  0  0
  4  5  1  6  0  0  0
  6  4  1  0  0  0  0
  6  7  2  0  0  0  0
  8  6  1  0  0  0  0
  9 10  1  1  0  0  0
  9 13  1  0  0  0  0
  9  8  1  0  0  0  0
 10 11  1  0  0  0  0
 11 12  1  0  0  0  0
 12  8  1  0  0  0  0
 13  3  1  0  0  0  0
 14 13  2  0  0  0  0
 15 18  1  0  0  0  0
 15 16  1  0  0  0  0
 16 19  1  0  0  0  0
 16 17  2  0  0  0  0
 19 20  1  0  0  0  0
 20 21  2  0  0  0  0
 21 22  1  0  0  0  0
 23 21  1  0  0  0  0
 24 23  2  0  0  0  0
 25 24  1  0  0  0  0
 25 19  2  0  0  0  0
M  END
>  <Pose>
1

>  <Score>
-9.097

$$$$
