/Users/jonathanwahrer/Desktop/Msc/3_Semester/Drug_Design_Praktikum/waehrer_HTS_screening/HTS_experiment/out/docking_results/vina_output/4x21/0138_docked.pdbqt
 OpenBabel03212201213D

 25 28  0  0  1  0  0  0  0  0999 V2000
   21.0160   35.7030   69.6880 C   0  0  2  0  0  3  0  0  0  0  0  0
   22.0340   36.7230   69.2980 C   0  0  0  0  0  2  0  0  0  0  0  0
   23.2220   35.9030   69.0020 N   0  0  0  0  0  0  0  0  0  0  0  0
   22.8260   34.5060   68.9010 C   0  0  1  0  0  3  0  0  0  0  0  0
   21.3440   34.5780   68.6950 C   0  0  0  0  0  2  0  0  0  0  0  0
   23.5620   33.9090   67.7900 C   0  0  0  0  0  0  0  0  0  0  0  0
   23.0420   33.0520   67.0660 O   0  0  0  0  0  0  0  0  0  0  0  0
   24.9110   34.3220   67.5310 N   0  0  0  0  0  0  0  0  0  0  0  0
   25.5380   35.1210   68.5550 C   0  0  1  0  0  3  0  0  0  0  0  0
   26.8760   35.5570   68.1190 C   0  0  0  0  0  2  0  0  0  0  0  0
   27.1680   34.6120   66.9710 C   0  0  0  0  0  2  0  0  0  0  0  0
   25.8480   34.1390   66.4650 C   0  0  0  0  0  2  0  0  0  0  0  0
   24.5890   36.2580   68.8140 C   0  0  0  0  0  0  0  0  0  0  0  0
   24.9800   37.4460   68.8620 O   0  0  0  0  0  0  0  0  0  0  0  0
   19.6690   36.1290   69.6070 N   0  0  0  0  0  0  0  0  0  0  0  0
   18.7050   35.6190   70.5040 C   0  0  0  0  0  0  0  0  0  0  0  0
   19.0630   34.7660   71.3910 O   0  0  0  0  0  0  0  0  0  0  0  0
   19.3760   36.8190   68.8920 H   0  0  0  0  0  0  0  0  0  0  0  0
   17.2980   35.9800   70.5190 C   0  0  0  0  0  0  0  0  0  0  0  0
   16.2950   35.0710   70.7440 C   0  0  0  0  0  3  0  0  0  0  0  0
   14.9640   35.3990   70.7600 C   0  0  0  0  0  0  0  0  0  0  0  0
   13.6010   34.1110   71.0750 Br  0  0  0  0  0  0  0  0  0  0  0  0
   14.5890   36.7070   70.5400 C   0  0  0  0  0  3  0  0  0  0  0  0
   15.5670   37.6610   70.3090 C   0  0  0  0  0  3  0  0  0  0  0  0
   16.9190   37.2830   70.3010 C   0  0  0  0  0  3  0  0  0  0  0  0
  1 15  1  6  0  0  0
  2  1  1  0  0  0  0
  3  2  1  0  0  0  0
  4  5  1  6  0  0  0
  4  3  1  0  0  0  0
  5  1  1  0  0  0  0
  6  4  1  0  0  0  0
  7  6  2  0  0  0  0
  8  6  1  0  0  0  0
  8  9  1  0  0  0  0
  9 10  1  6  0  0  0
  9 13  1  0  0  0  0
 11 10  1  0  0  0  0
 12 11  1  0  0  0  0
 12  8  1  0  0  0  0
 13 14  2  0  0  0  0
 13  3  1  0  0  0  0
 15 16  1  0  0  0  0
 16 19  1  0  0  0  0
 16 17  2  0  0  0  0
 18 15  1  0  0  0  0
 19 20  1  0  0  0  0
 20 21  2  0  0  0  0
 21 22  1  0  0  0  0
 23 21  1  0  0  0  0
 24 23  2  0  0  0  0
 25 24  1  0  0  0  0
 25 19  2  0  0  0  0
M  END
>  <Pose>
1

>  <Score>
-8.640

$$$$
