MODEL 1
REMARK VINA RESULT:    -8.640      0.000      0.000
REMARK INTER + INTRA:          -9.967
REMARK INTER:                  -9.651
REMARK INTRA:                  -0.316
REMARK UNBOUND:                -0.316
REMARK  2 active torsions:
REMARK  status: ('A' for Active; 'I' for Inactive)
REMARK    1  A    between atoms: C_4  and  C_8 
REMARK       I    between atoms: C_8  and  N_10 
REMARK    2  A    between atoms: N_10  and  C_11 
ROOT
ATOM      1  C   UNK d   1      21.016  35.703  69.688  0.00  0.00     0.105 C 
ATOM      2  C   UNK d   1      22.034  36.723  69.298  0.00  0.00     0.152 C 
ATOM      3  N   UNK d   1      23.222  35.903  69.002  0.00  0.00    -0.335 N 
ATOM      4  C   UNK d   1      22.826  34.506  68.901  0.00  0.00     0.181 C 
ATOM      5  C   UNK d   1      21.344  34.578  68.695  0.00  0.00     0.061 C 
ATOM      6  C   UNK d   1      23.562  33.909  67.790  0.00  0.00     0.243 C 
ATOM      7  O   UNK d   1      23.042  33.052  67.066  0.00  0.00    -0.271 OA
ATOM      8  N   UNK d   1      24.911  34.322  67.531  0.00  0.00    -0.337 N 
ATOM      9  C   UNK d   1      25.538  35.121  68.555  0.00  0.00     0.179 C 
ATOM     10  C   UNK d   1      26.876  35.557  68.119  0.00  0.00     0.037 C 
ATOM     11  C   UNK d   1      27.168  34.612  66.971  0.00  0.00     0.022 C 
ATOM     12  C   UNK d   1      25.848  34.139  66.465  0.00  0.00     0.127 C 
ATOM     13  C   UNK d   1      24.589  36.258  68.814  0.00  0.00     0.243 C 
ATOM     14  O   UNK d   1      24.980  37.446  68.862  0.00  0.00    -0.271 OA
ENDROOT
BRANCH   1  15
ATOM     15  N   UNK d   1      19.669  36.129  69.607  0.00  0.00    -0.351 N 
ATOM     16  C   UNK d   1      18.705  35.619  70.504  0.00  0.00     0.252 C 
ATOM     17  O   UNK d   1      19.063  34.766  71.391  0.00  0.00    -0.268 OA
ATOM     18  H   UNK d   1      19.376  36.819  68.892  0.00  0.00     0.163 HD
BRANCH  16  19
ATOM     19  C   UNK d   1      17.298  35.980  70.519  0.00  0.00     0.033 A 
ATOM     20  C   UNK d   1      16.295  35.071  70.744  0.00  0.00     0.036 A 
ATOM     21  C   UNK d   1      14.964  35.399  70.760  0.00  0.00     0.011 A 
ATOM     22 Br   UNK d   1      13.601  34.111  71.075  0.00  0.00    -0.051 Br
ATOM     23  C   UNK d   1      14.589  36.707  70.540  0.00  0.00     0.019 A 
ATOM     24  C   UNK d   1      15.567  37.661  70.309  0.00  0.00     0.002 A 
ATOM     25  C   UNK d   1      16.919  37.283  70.301  0.00  0.00     0.017 A 
ENDBRANCH  16  19
ENDBRANCH   1  15
TORSDOF 2
ENDMDL
