MODEL 1
REMARK VINA RESULT:    -8.009      0.000      0.000
REMARK INTER + INTRA:          -9.373
REMARK INTER:                  -8.945
REMARK INTRA:                  -0.428
REMARK UNBOUND:                -0.428
REMARK  2 active torsions:
REMARK  status: ('A' for Active; 'I' for Inactive)
REMARK    1  A    between atoms: C_4  and  C_8 
REMARK       I    between atoms: C_8  and  N_10 
REMARK    2  A    between atoms: N_10  and  N_11 
ROOT
ATOM      1  N   UNK d   1      21.623  36.951  67.842  0.00  0.00    -0.187 N 
ATOM      2  C   UNK d   1      22.021  38.069  67.025  0.00  0.00     0.251 C 
ATOM      3  O   UNK d   1      21.294  39.014  66.585  0.00  0.00    -0.271 OA
ATOM      4  C   UNK d   1      23.443  37.957  66.763  0.00  0.00     0.101 C 
ATOM      5  C   UNK d   1      24.006  36.998  67.830  0.00  0.00     0.101 C 
ATOM      6  C   UNK d   1      25.011  36.147  67.125  0.00  0.00     0.022 C 
ATOM      7  C   UNK d   1      25.298  36.978  65.858  0.00  0.00     0.018 C 
ATOM      8  C   UNK d   1      23.800  37.145  65.526  0.00  0.00     0.022 C 
ATOM      9  C   UNK d   1      23.367  35.727  65.686  0.00  0.00    -0.025 C 
ATOM     10  C   UNK d   1      24.240  35.046  66.441  0.00  0.00    -0.025 C 
ATOM     11  C   UNK d   1      22.761  36.168  68.074  0.00  0.00     0.251 C 
ATOM     12  O   UNK d   1      22.780  34.968  68.427  0.00  0.00    -0.271 OA
ENDROOT
BRANCH   1  13
ATOM     13  N   UNK d   1      20.285  36.796  68.257  0.00  0.00    -0.254 N 
ATOM     14  C   UNK d   1      19.812  36.956  69.571  0.00  0.00     0.270 C 
ATOM     15  O   UNK d   1      20.582  37.261  70.499  0.00  0.00    -0.266 OA
ATOM     16  H   UNK d   1      19.541  36.532  67.535  0.00  0.00     0.191 HD
BRANCH  14  17
ATOM     17  C   UNK d   1      18.412  36.770  69.897  0.00  0.00     0.035 A 
ATOM     18  C   UNK d   1      18.036  35.650  70.633  0.00  0.00     0.036 A 
ATOM     19  C   UNK d   1      16.722  35.436  70.969  0.00  0.00     0.011 A 
ATOM     20 Br   UNK d   1      16.276  33.881  71.973  0.00  0.00    -0.051 Br
ATOM     21  C   UNK d   1      15.730  36.331  70.585  0.00  0.00     0.019 A 
ATOM     22  C   UNK d   1      16.126  37.427  69.860  0.00  0.00     0.002 A 
ATOM     23  C   UNK d   1      17.443  37.647  69.520  0.00  0.00     0.017 A 
ENDBRANCH  14  17
ENDBRANCH   1  13
TORSDOF 2
ENDMDL
