/Users/jonathanwahrer/Desktop/Msc/3_Semester/Drug_Design_Praktikum/waehrer_HTS_screening/HTS_experiment/out/docking_results/vina_output/4x21/0141_docked.pdbqt
 OpenBabel03212201213D

 23 26  0  0  1  0  0  0  0  0999 V2000
   21.6230   36.9510   67.8420 N   0  0  0  0  0  0  0  0  0  0  0  0
   22.0210   38.0690   67.0250 C   0  0  0  0  0  0  0  0  0  0  0  0
   21.2940   39.0140   66.5850 O   0  0  0  0  0  0  0  0  0  0  0  0
   23.4430   37.9570   66.7630 C   0  0  1  0  0  3  0  0  0  0  0  0
   24.0060   36.9980   67.8300 C   0  0  2  0  0  3  0  0  0  0  0  0
   25.0110   36.1470   67.1250 C   0  0  2  0  0  3  0  0  0  0  0  0
   25.2980   36.9780   65.8580 C   0  0  0  0  0  2  0  0  0  0  0  0
   23.8000   37.1450   65.5260 C   0  0  1  0  0  3  0  0  0  0  0  0
   23.3670   35.7270   65.6860 C   0  0  0  0  0  2  0  0  0  0  0  0
   24.2400   35.0460   66.4410 C   0  0  0  0  0  2  0  0  0  0  0  0
   22.7610   36.1680   68.0740 C   0  0  0  0  0  0  0  0  0  0  0  0
   22.7800   34.9680   68.4270 O   0  0  0  0  0  0  0  0  0  0  0  0
   20.2850   36.7960   68.2570 N   0  0  0  0  0  0  0  0  0  0  0  0
   19.8120   36.9560   69.5710 C   0  0  0  0  0  0  0  0  0  0  0  0
   20.5820   37.2610   70.4990 O   0  0  0  0  0  0  0  0  0  0  0  0
   19.5410   36.5320   67.5350 H   0  0  0  0  0  0  0  0  0  0  0  0
   18.4120   36.7700   69.8970 C   0  0  0  0  0  0  0  0  0  0  0  0
   18.0360   35.6500   70.6330 C   0  0  0  0  0  3  0  0  0  0  0  0
   16.7220   35.4360   70.9690 C   0  0  0  0  0  0  0  0  0  0  0  0
   16.2760   33.8810   71.9730 Br  0  0  0  0  0  0  0  0  0  0  0  0
   15.7300   36.3310   70.5850 C   0  0  0  0  0  3  0  0  0  0  0  0
   16.1260   37.4270   69.8600 C   0  0  0  0  0  3  0  0  0  0  0  0
   17.4430   37.6470   69.5200 C   0  0  0  0  0  3  0  0  0  0  0  0
  1 11  1  0  0  0  0
  1 13  1  0  0  0  0
  2  1  1  0  0  0  0
  3  2  2  0  0  0  0
  4  2  1  1  0  0  0
  4  5  1  0  0  0  0
  5 11  1  6  0  0  0
  6  7  1  6  0  0  0
  6  5  1  0  0  0  0
  8  9  1  1  0  0  0
  8  7  1  0  0  0  0
  8  4  1  0  0  0  0
  9 10  1  0  0  0  0
 10  6  1  0  0  0  0
 11 12  2  0  0  0  0
 13 14  1  0  0  0  0
 14 17  1  0  0  0  0
 14 15  2  0  0  0  0
 16 13  1  0  0  0  0
 17 18  1  0  0  0  0
 18 19  2  0  0  0  0
 19 20  1  0  0  0  0
 21 19  1  0  0  0  0
 22 21  2  0  0  0  0
 23 22  1  0  0  0  0
 23 17  2  0  0  0  0
M  END
>  <Pose>
1

>  <Score>
-8.009

$$$$
