MODEL 1
REMARK VINA RESULT:    -9.251      0.000      0.000
REMARK INTER + INTRA:         -11.831
REMARK INTER:                 -10.874
REMARK INTRA:                  -0.957
REMARK UNBOUND:                -0.957
REMARK  3 active torsions:
REMARK  status: ('A' for Active; 'I' for Inactive)
REMARK    1  A    between atoms: C_4  and  C_8 
REMARK    2  A    between atoms: C_16  and  C_17 
REMARK    3  A    between atoms: C_17  and  N_18 
ROOT
ATOM      1  C   UNK d   1      16.840  37.499  69.652  0.00  0.00     0.053 C 
ATOM      2  C   UNK d   1      16.180  36.395  70.019  0.00  0.00     0.127 A 
ATOM      3  O   UNK d   1      16.719  35.207  70.293  0.00  0.00    -0.305 OA
ATOM      4  C   UNK d   1      15.705  34.293  70.676  0.00  0.00     0.101 A 
ATOM      5  C   UNK d   1      14.488  34.886  70.658  0.00  0.00     0.051 A 
ATOM      6  C   UNK d   1      13.390  34.141  71.083  0.00  0.00     0.021 A 
ATOM      7  C   UNK d   1      13.544  32.850  71.480  0.00  0.00     0.041 A 
ATOM      8  C   UNK d   1      14.794  32.265  71.458  0.00  0.00     0.118 A 
ATOM      9  C   UNK d   1      15.921  32.940  71.057  0.00  0.00     0.039 A 
ATOM     10  O   UNK d   1      14.899  30.932  71.864  0.00  0.00    -0.191 OA
ATOM     11  C   UNK d   1      14.730  36.281  70.219  0.00  0.00     0.218 A 
ATOM     12  O   UNK d   1      13.874  37.169  70.051  0.00  0.00    -0.284 OA
ENDROOT
BRANCH   1  13
ATOM     13  C   UNK d   1      18.323  37.473  69.529  0.00  0.00    -0.032 A 
ATOM     14  C   UNK d   1      18.898  37.272  68.265  0.00  0.00     0.030 A 
ATOM     15  C   UNK d   1      20.235  36.878  68.119  0.00  0.00     0.011 A 
ATOM     16 Br   UNK d   1      20.895  36.611  66.348  0.00  0.00    -0.051 Br
ATOM     17  C   UNK d   1      21.018  36.683  69.197  0.00  0.00     0.019 A 
ATOM     18  C   UNK d   1      20.478  36.879  70.495  0.00  0.00     0.002 A 
ATOM     19  C   UNK d   1      19.128  37.277  70.614  0.00  0.00     0.011 A 
ENDBRANCH   1  13
BRANCH   9  20
ATOM     20  C   UNK d   1      17.159  32.390  70.542  0.00  0.00     0.279 C 
BRANCH  20  21
ATOM     21  N   UNK d   1      18.477  32.309  70.812  0.00  0.00    -0.063 N 
ATOM     22  C   UNK d   1      19.375  33.366  70.977  0.00  0.00     0.261 C 
ATOM     23  C   UNK d   1      19.602  33.772  72.450  0.00  0.00     0.195 C 
ATOM     24  O   UNK d   1      20.221  32.797  73.195  0.00  0.00    -0.388 OA
ATOM     25  C   UNK d   1      19.727  31.540  72.825  0.00  0.00     0.195 C 
ATOM     26  C   UNK d   1      18.436  31.599  72.195  0.00  0.00     0.261 C 
ATOM     27  H   UNK d   1      18.931  31.554  70.173  0.00  0.00     0.280 HD
ENDBRANCH  20  21
ENDBRANCH   9  20
TORSDOF 3
ENDMDL
