/Users/jonathanwahrer/Desktop/Msc/3_Semester/Drug_Design_Praktikum/waehrer_HTS_screening/HTS_experiment/out/docking_results/vina_output/4x21/0153_docked.pdbqt
 OpenBabel03212201223D

 34 37  0  0  0  0  0  0  0  0999 V2000
   18.9870   32.0960   71.5470 C   0  0  0  0  0  0  0  0  0  0  0  0
   19.2360   30.9800   72.1430 N   0  0  0  0  0  0  0  0  0  0  0  0
   18.1260   30.2540   72.2290 N   0  0  0  0  0  0  0  0  0  0  0  0
   17.1060   30.9500   71.6630 N   0  0  0  0  0  0  0  0  0  0  0  0
   17.5780   32.0630   71.2070 C   0  0  0  0  0  0  0  0  0  0  0  0
   19.8300   33.3490   71.3590 C   0  0  0  0  0  0  0  0  0  0  0  0
   20.2550   33.5710   70.0810 N   0  0  0  0  0  0  0  0  0  0  0  0
   19.6780   32.7000   69.4450 H   0  0  0  0  0  0  0  0  0  0  0  0
   20.0320   34.0490   72.3750 O   0  0  0  0  0  0  0  0  0  0  0  0
   20.8930   34.2260   69.1360 N   0  0  0  0  0  0  0  0  0  0  0  0
   20.9350   35.5140   68.9390 C   0  0  0  0  0  3  0  0  0  0  0  0
   21.6780   36.1250   67.8200 C   0  0  0  0  0  0  0  0  0  0  0  0
   21.5570   37.4380   67.4080 C   0  0  0  0  0  3  0  0  0  0  0  0
   22.4170   37.9280   66.4260 C   0  0  0  0  0  0  0  0  0  0  0  0
   22.3380   39.7520   65.8390 Br  0  0  0  0  0  0  0  0  0  0  0  0
   23.4080   37.1600   65.8240 C   0  0  0  0  0  3  0  0  0  0  0  0
   23.4700   35.8640   66.2640 C   0  0  0  0  0  3  0  0  0  0  0  0
   22.6530   35.3440   67.2250 C   0  0  0  0  0  3  0  0  0  0  0  0
   17.0460   33.1970   70.4580 C   0  0  0  0  0  2  0  0  0  0  0  0
   16.7100   34.4140   71.0420 N   0  0  0  0  0  0  0  0  0  0  0  0
   16.6660   35.6970   70.6500 C   0  0  0  0  0  2  0  0  0  0  0  0
   15.1770   36.1220   70.5310 C   0  0  0  0  0  2  0  0  0  0  0  0
   14.4190   34.9450   70.2990 N   0  0  0  0  0  0  0  0  0  0  0  0
   14.3680   34.1270   71.4730 C   0  0  0  0  0  2  0  0  0  0  0  0
   13.2530   35.0090   69.5250 C   0  0  0  0  0  1  0  0  0  0  0  0
   15.7380   34.2120   72.1580 C   0  0  0  0  0  2  0  0  0  0  0  0
   15.7580   30.5740   72.0610 C   0  0  0  0  0  0  0  0  0  0  0  0
   14.8150   30.5720   70.9670 N   0  0  0  0  0  0  0  0  0  0  0  0
   13.6750   30.2500   71.3580 O   0  0  0  0  0  0  0  0  0  0  0  0
   13.7110   30.0260   72.6360 N   0  0  0  0  0  0  0  0  0  0  0  0
   15.0240   30.2310   73.0610 C   0  0  0  0  0  0  0  0  0  0  0  0
   15.3450   30.0470   74.4210 N   0  0  0  0  0  0  0  0  0  0  0  0
   15.4370   29.0050   74.6890 H   0  0  0  0  0  0  0  0  0  0  0  0
   15.5000   30.6930   75.1710 H   0  0  0  0  0  0  0  0  0  0  0  0
  1  2  1  0  0  0  0
  2  3  2  0  0  0  0
  4 27  1  0  0  0  0
  4  3  1  0  0  0  0
  5  1  2  0  0  0  0
  5  4  1  0  0  0  0
  6  1  1  0  0  0  0
  6  9  2  0  0  0  0
  7  6  1  0  0  0  0
  8  7  1  0  0  0  0
 10  7  1  0  0  0  0
 11 10  2  0  0  0  0
 12 11  1  0  0  0  0
 13 12  1  0  0  0  0
 14 13  2  0  0  0  0
 15 14  1  0  0  0  0
 16 17  2  0  0  0  0
 16 14  1  0  0  0  0
 17 18  1  0  0  0  0
 18 12  2  0  0  0  0
 19 20  1  0  0  0  0
 19  5  1  0  0  0  0
 20 26  1  0  0  0  0
 21 20  1  0  0  0  0
 22 21  1  0  0  0  0
 23 22  1  0  0  0  0
 23 24  1  0  0  0  0
 24 26  1  0  0  0  0
 25 23  1  0  0  0  0
 27 31  1  0  0  0  0
 28 29  1  0  0  0  0
 28 27  2  0  0  0  0
 29 30  1  0  0  0  0
 30 31  2  0  0  0  0
 31 32  1  0  0  0  0
 32 33  1  0  0  0  0
 32 34  1  0  0  0  0
M  END
>  <Pose>
1

>  <Score>
-8.583

$$$$
