MODEL 1
REMARK VINA RESULT:    -8.535      0.000      0.000
REMARK INTER + INTRA:         -11.913
REMARK INTER:                 -11.030
REMARK INTRA:                  -0.883
REMARK UNBOUND:                -0.883
REMARK  5 active torsions:
REMARK  status: ('A' for Active; 'I' for Inactive)
REMARK    1  A    between atoms: C_4  and  C_8 
REMARK    2  A    between atoms: N_9  and  N_10 
REMARK    3  A    between atoms: N_10  and  C_11 
REMARK    4  A    between atoms: C_13  and  N_23 
REMARK    5  A    between atoms: C_15  and  N_17 
ROOT
ATOM      1  C   UNK d   1      18.186  36.419  69.988  0.00  0.00     0.774 A 
ATOM      2  N   UNK d   1      16.869  36.220  70.110  0.00  0.00     0.133 NA
ATOM      3  C   UNK d   1      16.338  35.173  70.801  0.00  0.00     0.756 A 
ATOM      4  N   UNK d   1      17.232  34.332  71.365  0.00  0.00     0.131 NA
ATOM      5  C   UNK d   1      18.565  34.479  71.277  0.00  0.00     0.756 A 
ATOM      6  N   UNK d   1      19.007  35.549  70.572  0.00  0.00     0.133 NA
ENDROOT
BRANCH   1   7
ATOM      7  N   UNK d   1      18.673  37.535  69.252  0.00  0.00    -0.105 N 
ATOM      8  H   UNK d   1      18.096  38.395  69.155  0.00  0.00     0.208 HD
BRANCH   7   9
ATOM      9  N   UNK d   1      19.929  37.511  68.639  0.00  0.00    -0.172 NA
ATOM     10  C   UNK d   1      20.170  37.016  67.490  0.00  0.00     0.150 C 
BRANCH  10  11
ATOM     11  C   UNK d   1      21.492  37.004  66.876  0.00  0.00    -0.016 A 
ATOM     12  C   UNK d   1      22.234  35.843  66.753  0.00  0.00     0.032 A 
ATOM     13  C   UNK d   1      23.482  35.800  66.180  0.00  0.00     0.011 A 
ATOM     14 Br   UNK d   1      24.457  34.157  66.039  0.00  0.00    -0.051 Br
ATOM     15  C   UNK d   1      24.033  36.971  65.702  0.00  0.00     0.019 A 
ATOM     16  C   UNK d   1      23.333  38.155  65.802  0.00  0.00     0.002 A 
ATOM     17  C   UNK d   1      22.070  38.157  66.389  0.00  0.00     0.013 A 
ENDBRANCH  10  11
ENDBRANCH   7   9
ENDBRANCH   1   7
BRANCH   3  18
ATOM     18  N   UNK d   1      14.943  34.983  70.917  0.00  0.00    -0.209 N 
ATOM     19  C   UNK d   1      14.024  35.882  70.276  0.00  0.00     0.167 C 
ATOM     20  C   UNK d   1      13.092  35.028  69.423  0.00  0.00     0.188 C 
ATOM     21  O   UNK d   1      12.450  34.157  70.300  0.00  0.00    -0.388 OA
ATOM     22  C   UNK d   1      13.315  33.224  70.842  0.00  0.00     0.188 C 
ATOM     23  C   UNK d   1      14.404  33.889  71.677  0.00  0.00     0.167 C 
ENDBRANCH   3  18
BRANCH   5  24
ATOM     24  N   UNK d   1      19.474  33.590  71.874  0.00  0.00    -0.209 N 
ATOM     25  C   UNK d   1      19.091  32.708  72.944  0.00  0.00     0.167 C 
ATOM     26  C   UNK d   1      19.844  31.395  72.694  0.00  0.00     0.188 C 
ATOM     27  O   UNK d   1      20.119  31.246  71.337  0.00  0.00    -0.388 OA
ATOM     28  C   UNK d   1      21.048  32.130  70.852  0.00  0.00     0.188 C 
ATOM     29  C   UNK d   1      20.835  33.540  71.419  0.00  0.00     0.167 C 
ENDBRANCH   5  24
TORSDOF 5
ENDMDL
