/Users/jonathanwahrer/Desktop/Msc/3_Semester/Drug_Design_Praktikum/waehrer_HTS_screening/HTS_experiment/out/docking_results/vina_output/4x21/0156_docked.pdbqt
 OpenBabel03212201223D

 29 32  0  0  0  0  0  0  0  0999 V2000
   18.1860   36.4190   69.9880 C   0  0  0  0  0  0  0  0  0  0  0  0
   16.8690   36.2200   70.1100 N   0  0  0  0  0  4  0  0  0  0  0  0
   16.3380   35.1730   70.8010 C   0  0  0  0  0  0  0  0  0  0  0  0
   17.2320   34.3320   71.3650 N   0  0  0  0  0  0  0  0  0  0  0  0
   18.5650   34.4790   71.2770 C   0  0  0  0  0  0  0  0  0  0  0  0
   19.0070   35.5490   70.5720 N   0  0  0  0  0  2  0  0  0  0  0  0
   18.6730   37.5350   69.2520 N   0  0  0  0  0  0  0  0  0  0  0  0
   18.0960   38.3950   69.1550 H   0  0  0  0  0  0  0  0  0  0  0  0
   19.9290   37.5110   68.6390 N   0  0  0  0  0  0  0  0  0  0  0  0
   20.1700   37.0160   67.4900 C   0  0  0  0  0  3  0  0  0  0  0  0
   21.4920   37.0040   66.8760 C   0  0  0  0  0  0  0  0  0  0  0  0
   22.2340   35.8430   66.7530 C   0  0  0  0  0  3  0  0  0  0  0  0
   23.4820   35.8000   66.1800 C   0  0  0  0  0  0  0  0  0  0  0  0
   24.4570   34.1570   66.0390 Br  0  0  0  0  0  0  0  0  0  0  0  0
   24.0330   36.9710   65.7020 C   0  0  0  0  0  3  0  0  0  0  0  0
   23.3330   38.1550   65.8020 C   0  0  0  0  0  3  0  0  0  0  0  0
   22.0700   38.1570   66.3890 C   0  0  0  0  0  3  0  0  0  0  0  0
   14.9430   34.9830   70.9170 N   0  0  0  0  0  0  0  0  0  0  0  0
   14.0240   35.8820   70.2760 C   0  0  0  0  0  2  0  0  0  0  0  0
   13.0920   35.0280   69.4230 C   0  0  0  0  0  2  0  0  0  0  0  0
   12.4500   34.1570   70.3000 O   0  0  0  0  0  0  0  0  0  0  0  0
   13.3150   33.2240   70.8420 C   0  0  0  0  0  2  0  0  0  0  0  0
   14.4040   33.8890   71.6770 C   0  0  0  0  0  2  0  0  0  0  0  0
   19.4740   33.5900   71.8740 N   0  0  0  0  0  0  0  0  0  0  0  0
   19.0910   32.7080   72.9440 C   0  0  0  0  0  2  0  0  0  0  0  0
   19.8440   31.3950   72.6940 C   0  0  0  0  0  2  0  0  0  0  0  0
   20.1190   31.2460   71.3370 O   0  0  0  0  0  0  0  0  0  0  0  0
   21.0480   32.1300   70.8520 C   0  0  0  0  0  2  0  0  0  0  0  0
   20.8350   33.5400   71.4190 C   0  0  0  0  0  2  0  0  0  0  0  0
  1  2  2  0  0  0  0
  1  6  1  0  0  0  0
  2  3  2  0  0  0  0
  3 18  1  0  0  0  0
  3  4  1  0  0  0  0
  5  4  2  0  0  0  0
  5 24  1  0  0  0  0
  6  5  1  0  0  0  0
  7  1  1  0  0  0  0
  8  7  1  0  0  0  0
  9  7  1  0  0  0  0
 10  9  2  0  0  0  0
 11 10  1  0  0  0  0
 12 11  1  0  0  0  0
 13 12  2  0  0  0  0
 14 13  1  0  0  0  0
 15 16  2  0  0  0  0
 15 13  1  0  0  0  0
 16 17  1  0  0  0  0
 17 11  2  0  0  0  0
 18 23  1  0  0  0  0
 19 18  1  0  0  0  0
 20 19  1  0  0  0  0
 20 21  1  0  0  0  0
 21 22  1  0  0  0  0
 22 23  1  0  0  0  0
 24 25  1  0  0  0  0
 26 25  1  0  0  0  0
 27 26  1  0  0  0  0
 28 27  1  0  0  0  0
 28 29  1  0  0  0  0
 29 24  1  0  0  0  0
M  END
>  <Pose>
1

>  <Score>
-8.535

$$$$
