MODEL 1
REMARK VINA RESULT:    -8.594      0.000      0.000
REMARK INTER + INTRA:         -12.335
REMARK INTER:                 -12.111
REMARK INTRA:                  -0.224
REMARK UNBOUND:                -0.224
REMARK  7 active torsions:
REMARK  status: ('A' for Active; 'I' for Inactive)
REMARK    1  A    between atoms: C_4  and  C_8 
REMARK    2  A    between atoms: N_9  and  C_29 
REMARK    3  A    between atoms: C_15  and  C_17 
REMARK    4  A    between atoms: N_19  and  C_22 
REMARK    5  A    between atoms: C_29  and  C_30 
REMARK    6  A    between atoms: C_30  and  C_31 
REMARK    7  A    between atoms: C_31  and  N_32 
ROOT
ATOM      1  C   UNK d   1      17.025  33.293  72.232  0.00  0.00     0.161 C 
ATOM      2  N   UNK d   1      16.284  32.113  71.985  0.00  0.00    -0.332 N 
ATOM      3  C   UNK d   1      17.037  31.240  71.159  0.00  0.00     0.295 C 
ATOM      4  O   UNK d   1      16.613  30.142  70.682  0.00  0.00    -0.264 OA
ATOM      5  C   UNK d   1      18.352  31.811  70.964  0.00  0.00     0.250 C 
ATOM      6  O   UNK d   1      19.227  31.236  70.261  0.00  0.00    -0.282 OA
ATOM      7  C   UNK d   1      18.391  33.064  71.694  0.00  0.00     0.062 C 
ATOM      8  C   UNK d   1      19.446  33.842  71.784  0.00  0.00     0.133 C 
ATOM      9  O   UNK d   1      19.338  35.041  72.450  0.00  0.00    -0.190 OA
ENDROOT
BRANCH   1  10
ATOM     10  C   UNK d   1      16.378  34.457  71.618  0.00  0.00    -0.029 A 
ATOM     11  C   UNK d   1      17.147  35.299  70.833  0.00  0.00     0.028 A 
ATOM     12  C   UNK d   1      16.697  36.405  70.180  0.00  0.00     0.011 A 
ATOM     13 Br   UNK d   1      17.804  37.531  69.107  0.00  0.00    -0.051 Br
ATOM     14  C   UNK d   1      15.334  36.709  70.325  0.00  0.00     0.019 A 
ATOM     15  C   UNK d   1      14.538  35.888  71.105  0.00  0.00     0.002 A 
ATOM     16  C   UNK d   1      15.028  34.770  71.753  0.00  0.00     0.009 A 
ENDBRANCH   1  10
BRANCH   8  17
ATOM     17  C   UNK d   1      20.710  33.458  71.207  0.00  0.00     0.045 A 
ATOM     18  C   UNK d   1      21.267  34.061  70.066  0.00  0.00     0.047 A 
ATOM     19  N   UNK d   1      22.458  33.504  69.814  0.00  0.00    -0.238 N 
ATOM     20  C   UNK d   1      20.601  35.149  69.292  0.00  0.00     0.071 C 
ATOM     21  N   UNK d   1      22.662  32.588  70.743  0.00  0.00    -0.179 NA
ATOM     22  C   UNK d   1      21.633  32.530  71.602  0.00  0.00     0.155 A 
BRANCH  19  23
ATOM     23  C   UNK d   1      23.355  33.830  68.762  0.00  0.00     0.058 A 
ATOM     24  C   UNK d   1      24.402  34.704  69.023  0.00  0.00     0.031 A 
ATOM     25  C   UNK d   1      25.318  35.057  68.052  0.00  0.00     0.002 A 
ATOM     26  C   UNK d   1      25.225  34.544  66.758  0.00  0.00     0.000 A 
ATOM     27  C   UNK d   1      24.182  33.673  66.497  0.00  0.00     0.002 A 
ATOM     28  C   UNK d   1      23.286  33.339  67.479  0.00  0.00     0.031 A 
ENDBRANCH  19  23
ENDBRANCH   8  17
BRANCH   2  29
ATOM     29  C   UNK d   1      14.931  31.780  72.512  0.00  0.00     0.129 C 
BRANCH  29  30
ATOM     30  C   UNK d   1      15.062  30.856  73.695  0.00  0.00     0.048 C 
BRANCH  30  31
ATOM     31  C   UNK d   1      14.589  29.463  73.420  0.00  0.00     0.235 C 
BRANCH  31  32
ATOM     32  N   UNK d   1      15.599  28.465  73.305  0.00  0.00    -0.079 N 
ATOM     33  C   UNK d   1      16.869  28.778  73.874  0.00  0.00     0.269 C 
ATOM     34  C   UNK d   1      15.139  27.206  73.913  0.00  0.00     0.269 C 
ATOM     35  H   UNK d   1      15.743  28.220  72.279  0.00  0.00     0.278 HD
ENDBRANCH  31  32
ENDBRANCH  30  31
ENDBRANCH  29  30
ENDBRANCH   2  29
TORSDOF 7
ENDMDL
