MODEL 1
REMARK VINA RESULT:    -8.386      0.000      0.000
REMARK INTER + INTRA:         -13.312
REMARK INTER:                 -11.818
REMARK INTRA:                  -1.494
REMARK UNBOUND:                -1.494
REMARK  7 active torsions:
REMARK  status: ('A' for Active; 'I' for Inactive)
REMARK    1  A    between atoms: C_4  and  C_8 
REMARK    2  A    between atoms: N_9  and  C_28 
REMARK    3  A    between atoms: C_15  and  C_17 
REMARK    4  A    between atoms: C_20  and  C_23 
REMARK    5  A    between atoms: C_23  and  O_25 
REMARK    6  A    between atoms: C_28  and  C_29 
REMARK    7  A    between atoms: C_29  and  N_30 
ROOT
ATOM      1  C   UNK d   1      20.420  35.860  70.628  0.00  0.00     0.161 C 
ATOM      2  N   UNK d   1      21.484  35.527  69.701  0.00  0.00    -0.331 N 
ATOM      3  C   UNK d   1      21.041  34.386  68.981  0.00  0.00     0.295 C 
ATOM      4  O   UNK d   1      21.396  34.022  67.838  0.00  0.00    -0.264 OA
ATOM      5  C   UNK d   1      20.061  33.690  69.844  0.00  0.00     0.250 C 
ATOM      6  O   UNK d   1      19.437  32.637  69.588  0.00  0.00    -0.282 OA
ATOM      7  C   UNK d   1      19.978  34.487  71.060  0.00  0.00     0.062 C 
ATOM      8  C   UNK d   1      19.640  34.051  72.235  0.00  0.00     0.132 C 
ATOM      9  O   UNK d   1      19.677  34.958  73.315  0.00  0.00    -0.190 OA
ENDROOT
BRANCH   1  10
ATOM     10  C   UNK d   1      19.338  36.535  69.874  0.00  0.00    -0.029 A 
ATOM     11  C   UNK d   1      18.027  36.549  70.334  0.00  0.00     0.028 A 
ATOM     12  C   UNK d   1      17.014  37.168  69.633  0.00  0.00     0.011 A 
ATOM     13 Br   UNK d   1      15.236  37.149  70.322  0.00  0.00    -0.051 Br
ATOM     14  C   UNK d   1      17.258  37.805  68.436  0.00  0.00     0.019 A 
ATOM     15  C   UNK d   1      18.551  37.804  67.959  0.00  0.00     0.002 A 
ATOM     16  C   UNK d   1      19.557  37.183  68.667  0.00  0.00     0.009 A 
ENDBRANCH   1  10
BRANCH   8  17
ATOM     17  C   UNK d   1      19.215  32.694  72.547  0.00  0.00     0.032 A 
ATOM     18  C   UNK d   1      19.858  31.599  73.016  0.00  0.00     0.019 A 
ATOM     19  N   UNK d   1      18.952  30.612  73.171  0.00  0.00    -0.354 N 
ATOM     20  C   UNK d   1      21.327  31.436  73.282  0.00  0.00     0.069 C 
ATOM     21  C   UNK d   1      17.726  31.018  72.818  0.00  0.00     0.115 A 
ATOM     22  H   UNK d   1      19.190  29.640  73.527  0.00  0.00     0.166 HD
ATOM     23  C   UNK d   1      17.861  32.322  72.422  0.00  0.00    -0.014 A 
ATOM     24  C   UNK d   1      16.751  33.197  71.939  0.00  0.00     0.052 C 
BRANCH  21  25
ATOM     25  C   UNK d   1      16.482  30.223  72.849  0.00  0.00     0.310 C 
ATOM     26  O   UNK d   1      16.344  29.284  72.052  0.00  0.00    -0.258 OA
BRANCH  25  27
ATOM     27  O   UNK d   1      15.479  30.518  73.753  0.00  0.00    -0.321 OA
ATOM     28  C   UNK d   1      14.149  30.801  73.382  0.00  0.00     0.213 C 
ENDBRANCH  25  27
ENDBRANCH  21  25
ENDBRANCH   8  17
BRANCH   2  29
ATOM     29  C   UNK d   1      22.766  36.217  69.532  0.00  0.00     0.155 C 
BRANCH  29  30
ATOM     30  C   UNK d   1      22.855  36.877  68.174  0.00  0.00     0.255 C 
BRANCH  30  31
ATOM     31  N   UNK d   1      23.430  36.050  67.164  0.00  0.00    -0.066 N 
ATOM     32  C   UNK d   1      24.673  35.402  67.570  0.00  0.00     0.261 C 
ATOM     33  C   UNK d   1      24.909  34.249  66.632  0.00  0.00     0.195 C 
ATOM     34  O   UNK d   1      24.244  34.476  65.454  0.00  0.00    -0.388 OA
ATOM     35  C   UNK d   1      24.346  35.773  64.980  0.00  0.00     0.195 C 
ATOM     36  C   UNK d   1      23.762  36.793  65.955  0.00  0.00     0.261 C 
ATOM     37  H   UNK d   1      22.740  35.336  66.870  0.00  0.00     0.280 HD
ENDBRANCH  30  31
ENDBRANCH  29  30
ENDBRANCH   2  29
TORSDOF 7
ENDMDL
