/Users/jonathanwahrer/Desktop/Msc/3_Semester/Drug_Design_Praktikum/waehrer_HTS_screening/HTS_experiment/out/docking_results/vina_output/4x21/0169_docked.pdbqt
 OpenBabel03212201233D

 37 40  0  0  1  0  0  0  0  0999 V2000
   20.4200   35.8600   70.6280 C   0  0  2  0  0  3  0  0  0  0  0  0
   21.4840   35.5270   69.7010 N   0  0  0  0  0  0  0  0  0  0  0  0
   21.0410   34.3860   68.9810 C   0  0  0  0  0  0  0  0  0  0  0  0
   21.3960   34.0220   67.8380 O   0  0  0  0  0  0  0  0  0  0  0  0
   20.0610   33.6900   69.8440 C   0  0  0  0  0  0  0  0  0  0  0  0
   19.4370   32.6370   69.5880 O   0  0  0  0  0  0  0  0  0  0  0  0
   19.9780   34.4870   71.0600 C   0  0  0  0  0  0  0  0  0  0  0  0
   19.6400   34.0510   72.2350 C   0  0  0  0  0  0  0  0  0  0  0  0
   19.6770   34.9580   73.3150 O   0  0  0  0  0  1  0  0  0  0  0  0
   19.3380   36.5350   69.8740 C   0  0  0  0  0  0  0  0  0  0  0  0
   18.0270   36.5490   70.3340 C   0  0  0  0  0  3  0  0  0  0  0  0
   17.0140   37.1680   69.6330 C   0  0  0  0  0  0  0  0  0  0  0  0
   15.2360   37.1490   70.3220 Br  0  0  0  0  0  0  0  0  0  0  0  0
   17.2580   37.8050   68.4360 C   0  0  0  0  0  3  0  0  0  0  0  0
   18.5510   37.8040   67.9590 C   0  0  0  0  0  3  0  0  0  0  0  0
   19.5570   37.1830   68.6670 C   0  0  0  0  0  3  0  0  0  0  0  0
   19.2150   32.6940   72.5470 C   0  0  0  0  0  0  0  0  0  0  0  0
   19.8580   31.5990   73.0160 C   0  0  0  0  0  0  0  0  0  0  0  0
   18.9520   30.6120   73.1710 N   0  0  0  0  0  0  0  0  0  0  0  0
   21.3270   31.4360   73.2820 C   0  0  0  0  0  1  0  0  0  0  0  0
   17.7260   31.0180   72.8180 C   0  0  0  0  0  0  0  0  0  0  0  0
   19.1900   29.6400   73.5270 H   0  0  0  0  0  0  0  0  0  0  0  0
   17.8610   32.3220   72.4220 C   0  0  0  0  0  0  0  0  0  0  0  0
   16.7510   33.1970   71.9390 C   0  0  0  0  0  1  0  0  0  0  0  0
   16.4820   30.2230   72.8490 C   0  0  0  0  0  0  0  0  0  0  0  0
   16.3440   29.2840   72.0520 O   0  0  0  0  0  0  0  0  0  0  0  0
   15.4790   30.5180   73.7530 O   0  0  0  0  0  0  0  0  0  0  0  0
   14.1490   30.8010   73.3820 C   0  0  0  0  0  1  0  0  0  0  0  0
   22.7660   36.2170   69.5320 C   0  0  0  0  0  2  0  0  0  0  0  0
   22.8550   36.8770   68.1740 C   0  0  0  0  0  2  0  0  0  0  0  0
   23.4300   36.0500   67.1640 N   0  0  0  0  0  4  0  0  0  0  0  0
   24.6730   35.4020   67.5700 C   0  0  0  0  0  2  0  0  0  0  0  0
   24.9090   34.2490   66.6320 C   0  0  0  0  0  2  0  0  0  0  0  0
   24.2440   34.4760   65.4540 O   0  0  0  0  0  0  0  0  0  0  0  0
   24.3460   35.7730   64.9800 C   0  0  0  0  0  2  0  0  0  0  0  0
   23.7620   36.7930   65.9550 C   0  0  0  0  0  2  0  0  0  0  0  0
   22.7400   35.3360   66.8700 H   0  0  0  0  0  0  0  0  0  0  0  0
  1 10  1  6  0  0  0
  1  7  1  0  0  0  0
  2  1  1  0  0  0  0
  3  2  1  0  0  0  0
  3  5  1  0  0  0  0
  4  3  2  0  0  0  0
  5  7  1  0  0  0  0
  6  5  2  0  0  0  0
  7  8  2  0  0  0  0
  8 17  1  0  0  0  0
  8  9  1  0  0  0  0
 10 11  1  0  0  0  0
 12 13  1  0  0  0  0
 12 11  2  0  0  0  0
 14 12  1  0  0  0  0
 15 14  2  0  0  0  0
 15 16  1  0  0  0  0
 16 10  2  0  0  0  0
 17 18  2  0  0  0  0
 18 19  1  0  0  0  0
 18 20  1  0  0  0  0
 19 22  1  0  0  0  0
 21 25  1  0  0  0  0
 21 19  1  0  0  0  0
 23 17  1  0  0  0  0
 23 21  2  0  0  0  0
 24 23  1  0  0  0  0
 25 27  1  0  0  0  0
 26 25  2  0  0  0  0
 28 27  1  0  0  0  0
 29  2  1  0  0  0  0
 30 29  1  0  0  0  0
 31 32  1  0  0  0  0
 31 30  1  0  0  0  0
 33 32  1  0  0  0  0
 34 33  1  0  0  0  0
 35 34  1  0  0  0  0
 35 36  1  0  0  0  0
 36 31  1  0  0  0  0
 37 31  1  0  0  0  0
M  END
>  <Pose>
1

>  <Score>
-8.386

$$$$
