/Users/jonathanwahrer/Desktop/Msc/3_Semester/Drug_Design_Praktikum/waehrer_HTS_screening/HTS_experiment/out/docking_results/vina_output/4x21/0176_docked.pdbqt
 OpenBabel03212201243D

 33 36  0  0  1  0  0  0  0  0999 V2000
   20.0010   35.8880   70.7740 C   0  0  1  0  0  3  0  0  0  0  0  0
   19.9460   34.5750   71.3950 N   0  0  0  0  0  0  0  0  0  0  0  0
   20.2150   33.6090   70.3570 C   0  0  0  0  0  0  0  0  0  0  0  0
   19.9350   32.3870   70.4270 O   0  0  0  0  0  0  0  0  0  0  0  0
   20.8480   34.3230   69.2680 C   0  0  0  0  0  0  0  0  0  0  0  0
   21.2500   33.8610   68.1550 O   0  0  0  0  0  0  0  0  0  0  0  0
   20.9580   35.7200   69.6640 C   0  0  0  0  0  0  0  0  0  0  0  0
   21.7400   36.6220   69.0890 C   0  0  0  0  0  0  0  0  0  0  0  0
   21.6170   37.9190   69.6290 O   0  0  0  0  0  1  0  0  0  0  0  0
   19.5840   34.3080   72.7490 C   0  0  0  0  0  2  0  0  0  0  0  0
   18.9150   33.0370   73.0810 C   0  0  0  0  0  3  0  0  0  0  0  0
   17.4580   33.0120   73.3580 C   0  0  0  0  0  3  0  0  0  0  0  0
   16.8070   31.7480   73.4380 N   0  0  0  0  0  4  0  0  0  0  0  0
   15.5440   31.7750   72.7450 C   0  0  0  0  0  2  0  0  0  0  0  0
   15.6420   31.3180   71.3040 C   0  0  0  0  0  2  0  0  0  0  0  0
   15.9950   29.9680   71.2520 O   0  0  0  0  0  0  0  0  0  0  0  0
   16.6880   29.5900   72.4040 C   0  0  0  0  0  2  0  0  0  0  0  0
   17.6310   30.7130   72.7400 C   0  0  0  0  0  2  0  0  0  0  0  0
   16.7440   31.3910   74.3880 H   0  0  0  0  0  0  0  0  0  0  0  0
   18.6520   36.3120   70.3210 C   0  0  0  0  0  0  0  0  0  0  0  0
   17.5310   35.6670   70.7900 C   0  0  0  0  0  3  0  0  0  0  0  0
   16.2490   36.0250   70.3940 C   0  0  0  0  0  0  0  0  0  0  0  0
   14.6930   35.1450   71.0390 Br  0  0  0  0  0  0  0  0  0  0  0  0
   16.0700   37.0600   69.5010 C   0  0  0  0  0  3  0  0  0  0  0  0
   17.1910   37.7060   69.0310 C   0  0  0  0  0  3  0  0  0  0  0  0
   18.4790   37.3360   69.4390 C   0  0  0  0  0  3  0  0  0  0  0  0
   22.6620   36.3470   67.9990 C   0  0  0  0  0  0  0  0  0  0  0  0
   23.9260   35.8240   68.1380 C   0  0  0  0  0  3  0  0  0  0  0  0
   24.7450   35.5520   67.0610 C   0  0  0  0  0  3  0  0  0  0  0  0
   24.3190   35.8020   65.7760 C   0  0  0  0  0  0  0  0  0  0  0  0
   23.0520   36.3280   65.6170 C   0  0  0  0  0  3  0  0  0  0  0  0
   25.3490   35.4620   64.3820 Cl  0  0  0  0  0  0  0  0  0  0  0  0
   22.2400   36.5960   66.7010 C   0  0  0  0  0  3  0  0  0  0  0  0
  1 20  1  6  0  0  0
  1  2  1  0  0  0  0
  2 10  1  0  0  0  0
  3  4  2  0  0  0  0
  3  2  1  0  0  0  0
  5  7  1  0  0  0  0
  5  3  1  0  0  0  0
  6  5  2  0  0  0  0
  7  1  1  0  0  0  0
  8  9  1  0  0  0  0
  8  7  2  0  0  0  0
 10 11  1  0  0  0  0
 11 12  2  0  0  0  0
 12 13  1  0  0  0  0
 13 19  1  0  0  0  0
 14 13  1  0  0  0  0
 15 14  1  0  0  0  0
 16 15  1  0  0  0  0
 16 17  1  0  0  0  0
 17 18  1  0  0  0  0
 18 13  1  0  0  0  0
 20 21  1  0  0  0  0
 22 21  2  0  0  0  0
 22 23  1  0  0  0  0
 24 22  1  0  0  0  0
 25 26  1  0  0  0  0
 25 24  2  0  0  0  0
 26 20  2  0  0  0  0
 27 28  1  0  0  0  0
 27  8  1  0  0  0  0
 29 28  2  0  0  0  0
 30 29  1  0  0  0  0
 31 30  2  0  0  0  0
 31 33  1  0  0  0  0
 32 30  1  0  0  0  0
 33 27  2  0  0  0  0
M  END
>  <Pose>
1

>  <Score>
-9.323

$$$$
