/Users/jonathanwahrer/Desktop/Msc/3_Semester/Drug_Design_Praktikum/waehrer_HTS_screening/HTS_experiment/out/docking_results/vina_output/4x21/0182_docked.pdbqt
 OpenBabel03212201243D

 36 40  0  0  1  0  0  0  0  0999 V2000
   17.8620   34.5540   70.5740 C   0  0  2  0  0  3  0  0  0  0  0  0
   18.2270   33.9350   71.8000 N   0  0  0  0  0  0  0  0  0  0  0  0
   19.4990   33.2780   71.4810 C   0  0  0  0  0  0  0  0  0  0  0  0
   19.9590   32.2650   72.0310 O   0  0  0  0  0  0  0  0  0  0  0  0
   20.1030   34.0620   70.3910 C   0  0  0  0  0  0  0  0  0  0  0  0
   21.1950   33.8650   69.8100 O   0  0  0  0  0  0  0  0  0  0  0  0
   19.1560   35.1400   70.1170 C   0  0  0  0  0  0  0  0  0  0  0  0
   19.4310   36.3240   69.6350 C   0  0  0  0  0  0  0  0  0  0  0  0
   18.3580   37.2330   69.5130 O   0  0  0  0  0  1  0  0  0  0  0  0
   16.7040   35.3910   70.4870 C   0  0  0  0  0  0  0  0  0  0  0  0
   15.4960   34.8510   70.0020 C   0  0  0  0  0  3  0  0  0  0  0  0
   14.3440   35.5820   69.8740 C   0  0  0  0  0  0  0  0  0  0  0  0
   12.7380   34.7780   69.2080 Br  0  0  0  0  0  0  0  0  0  0  0  0
   14.3060   36.9060   70.2180 C   0  0  0  0  0  3  0  0  0  0  0  0
   15.4620   37.4800   70.6960 C   0  0  0  0  0  3  0  0  0  0  0  0
   16.6090   36.7260   70.8160 C   0  0  0  0  0  3  0  0  0  0  0  0
   20.7690   36.7220   69.2220 C   0  0  0  0  0  0  0  0  0  0  0  0
   21.4160   36.6050   68.0530 N   0  0  0  0  0  0  0  0  0  0  0  0
   22.6570   37.0850   68.1770 C   0  0  0  0  0  0  0  0  0  0  0  0
   20.9410   36.1060   66.8790 C   0  0  0  0  0  3  0  0  0  0  0  0
   22.7970   37.5170   69.4580 N   0  0  0  0  0  0  0  0  0  0  0  0
   23.5460   37.1000   67.1050 C   0  0  0  0  0  0  0  0  0  0  0  0
   21.6580   37.3130   70.1330 C   0  0  0  0  0  0  0  0  0  0  0  0
   21.3900   37.6430   71.5620 C   0  0  0  0  0  1  0  0  0  0  0  0
   23.0900   36.5990   65.9010 C   0  0  0  0  0  3  0  0  0  0  0  0
   24.9130   37.6430   67.3000 C   0  0  0  0  0  1  0  0  0  0  0  0
   21.8000   36.1120   65.8060 C   0  0  0  0  0  3  0  0  0  0  0  0
   17.6090   33.8210   73.1100 C   0  0  0  0  0  2  0  0  0  0  0  0
   16.8030   32.5870   73.3260 C   0  0  0  0  0  2  0  0  0  0  0  0
   16.1760   32.1020   72.1130 N   0  0  0  0  0  4  0  0  0  0  0  0
   16.6720   30.7940   71.7460 C   0  0  0  0  0  2  0  0  0  0  0  0
   16.1100   29.7420   72.7070 C   0  0  0  0  0  2  0  0  0  0  0  0
   14.7300   29.7190   72.4780 O   0  0  0  0  0  0  0  0  0  0  0  0
   14.2370   30.9290   73.0090 C   0  0  0  0  0  2  0  0  0  0  0  0
   14.7300   32.1180   72.2180 C   0  0  0  0  0  2  0  0  0  0  0  0
   16.4230   32.7460   71.3220 H   0  0  0  0  0  0  0  0  0  0  0  0
  1 10  1  1  0  0  0
  1  2  1  0  0  0  0
  2 28  1  0  0  0  0
  3  2  1  0  0  0  0
  3  4  2  0  0  0  0
  5  3  1  0  0  0  0
  6  5  2  0  0  0  0
  7  5  1  0  0  0  0
  7  1  1  0  0  0  0
  8  7  2  0  0  0  0
  9  8  1  0  0  0  0
 10 16  1  0  0  0  0
 11 10  2  0  0  0  0
 12 11  1  0  0  0  0
 12 14  2  0  0  0  0
 13 12  1  0  0  0  0
 14 15  1  0  0  0  0
 15 16  2  0  0  0  0
 17  8  1  0  0  0  0
 17 23  2  0  0  0  0
 18 19  1  0  0  0  0
 18 17  1  0  0  0  0
 19 21  2  0  0  0  0
 20 18  1  0  0  0  0
 21 23  1  0  0  0  0
 22 26  1  0  0  0  0
 22 19  1  0  0  0  0
 23 24  1  0  0  0  0
 25 22  2  0  0  0  0
 27 25  1  0  0  0  0
 27 20  2  0  0  0  0
 28 29  1  0  0  0  0
 30 35  1  0  0  0  0
 30 29  1  0  0  0  0
 31 30  1  0  0  0  0
 31 32  1  0  0  0  0
 33 32  1  0  0  0  0
 33 34  1  0  0  0  0
 35 34  1  0  0  0  0
 36 30  1  0  0  0  0
M  END
>  <Pose>
1

>  <Score>
-9.124

$$$$
