MODEL 1
REMARK VINA RESULT:    -9.124      0.000      0.000
REMARK INTER + INTRA:         -11.447
REMARK INTER:                 -11.791
REMARK INTRA:                   0.345
REMARK UNBOUND:                 0.345
REMARK  5 active torsions:
REMARK  status: ('A' for Active; 'I' for Inactive)
REMARK    1  A    between atoms: C_4  and  C_8 
REMARK    2  A    between atoms: N_9  and  C_28 
REMARK    3  A    between atoms: C_15  and  C_17 
REMARK    4  A    between atoms: C_28  and  C_29 
REMARK    5  A    between atoms: C_29  and  N_30 
ROOT
ATOM      1  C   UNK d   1      17.862  34.554  70.574  0.00  0.00     0.161 C 
ATOM      2  N   UNK d   1      18.227  33.935  71.800  0.00  0.00    -0.331 N 
ATOM      3  C   UNK d   1      19.499  33.278  71.481  0.00  0.00     0.295 C 
ATOM      4  O   UNK d   1      19.959  32.265  72.031  0.00  0.00    -0.264 OA
ATOM      5  C   UNK d   1      20.103  34.062  70.391  0.00  0.00     0.251 C 
ATOM      6  O   UNK d   1      21.195  33.865  69.810  0.00  0.00    -0.282 OA
ATOM      7  C   UNK d   1      19.156  35.140  70.117  0.00  0.00     0.064 C 
ATOM      8  C   UNK d   1      19.431  36.324  69.635  0.00  0.00     0.149 C 
ATOM      9  O   UNK d   1      18.358  37.233  69.513  0.00  0.00    -0.189 OA
ENDROOT
BRANCH   1  10
ATOM     10  C   UNK d   1      16.704  35.391  70.487  0.00  0.00    -0.029 A 
ATOM     11  C   UNK d   1      15.496  34.851  70.002  0.00  0.00     0.028 A 
ATOM     12  C   UNK d   1      14.344  35.582  69.874  0.00  0.00     0.011 A 
ATOM     13 Br   UNK d   1      12.738  34.778  69.208  0.00  0.00    -0.051 Br
ATOM     14  C   UNK d   1      14.306  36.906  70.218  0.00  0.00     0.019 A 
ATOM     15  C   UNK d   1      15.462  37.480  70.696  0.00  0.00     0.002 A 
ATOM     16  C   UNK d   1      16.609  36.726  70.816  0.00  0.00     0.009 A 
ENDBRANCH   1  10
BRANCH   8  17
ATOM     17  C   UNK d   1      20.769  36.722  69.222  0.00  0.00     0.102 A 
ATOM     18  N   UNK d   1      21.416  36.605  68.053  0.00  0.00    -0.302 N 
ATOM     19  C   UNK d   1      22.657  37.085  68.177  0.00  0.00     0.140 A 
ATOM     20  C   UNK d   1      20.941  36.106  66.879  0.00  0.00     0.099 A 
ATOM     21  N   UNK d   1      22.797  37.517  69.458  0.00  0.00    -0.233 NA
ATOM     22  C   UNK d   1      23.546  37.100  67.105  0.00  0.00    -0.015 A 
ATOM     23  C   UNK d   1      21.658  37.313  70.133  0.00  0.00     0.063 A 
ATOM     24  C   UNK d   1      21.390  37.643  71.562  0.00  0.00     0.073 C 
ATOM     25  C   UNK d   1      23.090  36.599  65.901  0.00  0.00     0.012 A 
ATOM     26  C   UNK d   1      24.913  37.643  67.300  0.00  0.00     0.052 C 
ATOM     27  C   UNK d   1      21.800  36.112  65.806  0.00  0.00     0.018 A 
ENDBRANCH   8  17
BRANCH   2  28
ATOM     28  C   UNK d   1      17.609  33.821  73.110  0.00  0.00     0.155 C 
BRANCH  28  29
ATOM     29  C   UNK d   1      16.803  32.587  73.326  0.00  0.00     0.255 C 
BRANCH  29  30
ATOM     30  N   UNK d   1      16.176  32.102  72.113  0.00  0.00    -0.066 N 
ATOM     31  C   UNK d   1      16.672  30.794  71.746  0.00  0.00     0.261 C 
ATOM     32  C   UNK d   1      16.110  29.742  72.707  0.00  0.00     0.195 C 
ATOM     33  O   UNK d   1      14.730  29.719  72.478  0.00  0.00    -0.388 OA
ATOM     34  C   UNK d   1      14.237  30.929  73.009  0.00  0.00     0.195 C 
ATOM     35  C   UNK d   1      14.730  32.118  72.218  0.00  0.00     0.261 C 
ATOM     36  H   UNK d   1      16.423  32.746  71.322  0.00  0.00     0.280 HD
ENDBRANCH  29  30
ENDBRANCH  28  29
ENDBRANCH   2  28
TORSDOF 5
ENDMDL
