MODEL 1
REMARK VINA RESULT:    -7.353      0.000      0.000
REMARK INTER + INTRA:         -10.529
REMARK INTER:                  -9.932
REMARK INTRA:                  -0.597
REMARK UNBOUND:                -0.597
REMARK  6 active torsions:
REMARK  status: ('A' for Active; 'I' for Inactive)
REMARK    1  A    between atoms: C_4  and  C_8 
REMARK    2  A    between atoms: N_9  and  C_27 
REMARK    3  A    between atoms: C_15  and  C_17 
REMARK    4  A    between atoms: C_27  and  C_28 
REMARK    5  A    between atoms: C_28  and  C_29 
REMARK    6  A    between atoms: C_29  and  N_30 
ROOT
ATOM      1  C   UNK d   1      22.095  35.690  67.045  0.00  0.00     0.161 C 
ATOM      2  N   UNK d   1      22.936  34.539  67.310  0.00  0.00    -0.332 N 
ATOM      3  C   UNK d   1      23.874  34.505  66.226  0.00  0.00     0.295 C 
ATOM      4  O   UNK d   1      24.489  33.517  65.785  0.00  0.00    -0.264 OA
ATOM      5  C   UNK d   1      23.986  35.867  65.718  0.00  0.00     0.251 C 
ATOM      6  O   UNK d   1      24.683  36.337  64.771  0.00  0.00    -0.282 OA
ATOM      7  C   UNK d   1      23.095  36.678  66.534  0.00  0.00     0.064 C 
ATOM      8  C   UNK d   1      23.176  37.983  66.705  0.00  0.00     0.149 C 
ATOM      9  O   UNK d   1      22.166  38.564  67.486  0.00  0.00    -0.189 OA
ENDROOT
BRANCH   1  10
ATOM     10  C   UNK d   1      21.375  36.209  68.214  0.00  0.00    -0.029 A 
ATOM     11  C   UNK d   1      20.056  36.516  68.224  0.00  0.00     0.028 A 
ATOM     12  C   UNK d   1      19.449  37.012  69.378  0.00  0.00     0.011 A 
ATOM     13 Br   UNK d   1      17.597  37.431  69.350  0.00  0.00    -0.051 Br
ATOM     14  C   UNK d   1      20.168  37.208  70.548  0.00  0.00     0.019 A 
ATOM     15  C   UNK d   1      21.508  36.889  70.517  0.00  0.00     0.002 A 
ATOM     16  C   UNK d   1      22.105  36.404  69.392  0.00  0.00     0.009 A 
ENDBRANCH   1  10
BRANCH   8  17
ATOM     17  C   UNK d   1      24.219  38.838  66.159  0.00  0.00     0.102 A 
ATOM     18  N   UNK d   1      24.103  39.745  65.177  0.00  0.00    -0.302 N 
ATOM     19  C   UNK d   1      25.282  40.384  64.968  0.00  0.00     0.134 A 
ATOM     20  C   UNK d   1      23.053  40.104  64.380  0.00  0.00     0.099 A 
ATOM     21  N   UNK d   1      26.145  39.832  65.866  0.00  0.00    -0.233 NA
ATOM     22  C   UNK d   1      25.447  41.362  64.000  0.00  0.00     0.051 A 
ATOM     23  C   UNK d   1      25.550  38.905  66.596  0.00  0.00     0.063 A 
ATOM     24  C   UNK d   1      26.061  38.040  67.683  0.00  0.00     0.073 C 
ATOM     25  C   UNK d   1      24.382  41.720  63.200  0.00  0.00     0.005 A 
ATOM     26  C   UNK d   1      23.179  41.060  63.420  0.00  0.00     0.018 A 
ENDBRANCH   8  17
BRANCH   2  27
ATOM     27  C   UNK d   1      22.859  33.592  68.425  0.00  0.00     0.129 C 
BRANCH  27  28
ATOM     28  C   UNK d   1      24.077  33.572  69.274  0.00  0.00     0.048 C 
BRANCH  28  29
ATOM     29  C   UNK d   1      24.947  32.384  69.229  0.00  0.00     0.235 C 
BRANCH  29  30
ATOM     30  N   UNK d   1      25.979  32.385  68.252  0.00  0.00    -0.079 N 
ATOM     31  C   UNK d   1      26.853  31.254  68.452  0.00  0.00     0.269 C 
ATOM     32  C   UNK d   1      26.823  33.581  68.437  0.00  0.00     0.269 C 
ATOM     33  H   UNK d   1      25.643  32.468  67.268  0.00  0.00     0.278 HD
ENDBRANCH  29  30
ENDBRANCH  28  29
ENDBRANCH  27  28
ENDBRANCH   2  27
TORSDOF 6
ENDMDL
