/Users/jonathanwahrer/Desktop/Msc/3_Semester/Drug_Design_Praktikum/waehrer_HTS_screening/HTS_experiment/out/docking_results/vina_output/4x21/0188_docked.pdbqt
 OpenBabel03212201253D

 31 34  0  0  1  0  0  0  0  0999 V2000
   20.2160   36.2110   70.6390 C   0  0  2  0  0  3  0  0  0  0  0  0
   21.1480   36.0990   69.5270 N   0  0  0  0  0  0  0  0  0  0  0  0
   20.7840   34.8370   68.9190 C   0  0  0  0  0  0  0  0  0  0  0  0
   20.9780   34.4990   67.7320 O   0  0  0  0  0  0  0  0  0  0  0  0
   20.1390   34.0030   69.9240 C   0  0  0  0  0  0  0  0  0  0  0  0
   19.6590   32.8420   69.8530 O   0  0  0  0  0  0  0  0  0  0  0  0
   20.1270   34.7960   71.1530 C   0  0  0  0  0  0  0  0  0  0  0  0
   20.0360   34.4050   72.3910 C   0  0  0  0  0  0  0  0  0  0  0  0
   20.0110   35.3920   73.3990 O   0  0  0  0  0  1  0  0  0  0  0  0
   22.1880   36.9790   69.0610 C   0  0  0  0  0  2  0  0  0  0  0  0
   23.5740   36.3830   69.1400 C   0  0  0  0  0  2  0  0  0  0  0  0
   24.2040   36.4120   67.8040 C   0  0  0  0  0  2  0  0  0  0  0  0
   23.6750   35.4590   66.8550 N   0  0  0  0  0  4  0  0  0  0  0  0
   23.5310   36.0180   65.5320 C   0  0  0  0  0  2  0  0  0  0  0  0
   24.6650   35.7450   64.6090 C   0  0  0  0  0  2  0  0  0  0  0  0
   25.1830   34.4680   64.6640 O   0  0  0  0  0  0  0  0  0  0  0  0
   25.4690   34.0370   65.9520 C   0  0  0  0  0  2  0  0  0  0  0  0
   24.2830   34.1720   66.8720 C   0  0  0  0  0  2  0  0  0  0  0  0
   22.6690   35.3050   67.1840 H   0  0  0  0  0  0  0  0  0  0  0  0
   18.8450   36.5590   70.1620 C   0  0  0  0  0  0  0  0  0  0  0  0
   17.7400   35.9250   70.6870 C   0  0  0  0  0  3  0  0  0  0  0  0
   16.4450   36.2080   70.2810 C   0  0  0  0  0  0  0  0  0  0  0  0
   14.9360   35.3020   71.0420 Br  0  0  0  0  0  0  0  0  0  0  0  0
   16.2340   37.1660   69.3100 C   0  0  0  0  0  3  0  0  0  0  0  0
   17.3290   37.8150   68.7690 C   0  0  0  0  0  3  0  0  0  0  0  0
   18.6270   37.5160   69.1900 C   0  0  0  0  0  3  0  0  0  0  0  0
   19.9660   32.9920   72.7190 C   0  0  0  0  0  0  0  0  0  0  0  0
   21.0080   32.2050   72.7370 O   0  0  0  0  0  0  0  0  0  0  0  0
   20.6750   30.9860   73.0580 C   0  0  0  0  0  3  0  0  0  0  0  0
   19.3300   30.9550   73.2680 C   0  0  0  0  0  3  0  0  0  0  0  0
   18.8620   32.2560   73.0480 C   0  0  0  0  0  3  0  0  0  0  0  0
  1 20  1  6  0  0  0
  1  7  1  0  0  0  0
  2  1  1  0  0  0  0
  3  2  1  0  0  0  0
  3  5  1  0  0  0  0
  4  3  2  0  0  0  0
  5  7  1  0  0  0  0
  6  5  2  0  0  0  0
  7  8  2  0  0  0  0
  8 27  1  0  0  0  0
  8  9  1  0  0  0  0
 10 11  1  0  0  0  0
 10  2  1  0  0  0  0
 12 11  1  0  0  0  0
 13 18  1  0  0  0  0
 13 19  1  0  0  0  0
 13 12  1  0  0  0  0
 14 13  1  0  0  0  0
 15 16  1  0  0  0  0
 15 14  1  0  0  0  0
 16 17  1  0  0  0  0
 17 18  1  0  0  0  0
 20 21  1  0  0  0  0
 22 21  2  0  0  0  0
 22 23  1  0  0  0  0
 24 22  1  0  0  0  0
 25 26  1  0  0  0  0
 25 24  2  0  0  0  0
 26 20  2  0  0  0  0
 27 28  1  0  0  0  0
 27 31  2  0  0  0  0
 28 29  1  0  0  0  0
 29 30  2  0  0  0  0
 31 30  1  0  0  0  0
M  END
>  <Pose>
1

>  <Score>
-7.827

$$$$
