MODEL 1
REMARK VINA RESULT:    -8.120      0.000      0.000
REMARK INTER + INTRA:         -12.836
REMARK INTER:                 -11.444
REMARK INTRA:                  -1.392
REMARK UNBOUND:                -1.392
REMARK  7 active torsions:
REMARK  status: ('A' for Active; 'I' for Inactive)
REMARK    1  A    between atoms: C_4  and  C_8 
REMARK    2  A    between atoms: N_9  and  C_28 
REMARK    3  A    between atoms: C_15  and  C_17 
REMARK    4  A    between atoms: C_25  and  O_26 
REMARK    5  A    between atoms: C_28  and  C_29 
REMARK    6  A    between atoms: C_29  and  C_30 
REMARK    7  A    between atoms: C_30  and  N_31 
ROOT
ATOM      1  C   UNK d   1      24.396  35.928  68.275  0.00  0.00     0.161 C 
ATOM      2  N   UNK d   1      24.661  34.532  67.997  0.00  0.00    -0.332 N 
ATOM      3  C   UNK d   1      23.461  34.022  67.376  0.00  0.00     0.295 C 
ATOM      4  O   UNK d   1      23.397  33.011  66.636  0.00  0.00    -0.264 OA
ATOM      5  C   UNK d   1      22.369  34.911  67.783  0.00  0.00     0.251 C 
ATOM      6  O   UNK d   1      21.150  34.843  67.476  0.00  0.00    -0.282 OA
ATOM      7  C   UNK d   1      22.931  35.944  68.644  0.00  0.00     0.064 C 
ATOM      8  C   UNK d   1      22.294  36.707  69.516  0.00  0.00     0.153 C 
ATOM      9  O   UNK d   1      22.997  37.646  70.228  0.00  0.00    -0.188 OA
ENDROOT
BRANCH   1  10
ATOM     10  C   UNK d   1      24.654  36.821  67.116  0.00  0.00    -0.029 A 
ATOM     11  C   UNK d   1      23.784  37.864  66.794  0.00  0.00     0.028 A 
ATOM     12  C   UNK d   1      23.980  38.705  65.736  0.00  0.00     0.011 A 
ATOM     13 Br   UNK d   1      22.725  40.118  65.370  0.00  0.00    -0.051 Br
ATOM     14  C   UNK d   1      25.072  38.547  64.935  0.00  0.00     0.019 A 
ATOM     15  C   UNK d   1      25.956  37.542  65.204  0.00  0.00     0.002 A 
ATOM     16  C   UNK d   1      25.745  36.690  66.286  0.00  0.00     0.009 A 
ENDBRANCH   1  10
BRANCH   8  17
ATOM     17  C   UNK d   1      20.843  36.567  69.743  0.00  0.00     0.114 A 
ATOM     18  O   UNK d   1      19.920  37.349  69.253  0.00  0.00    -0.304 OA
ATOM     19  C   UNK d   1      18.722  37.016  69.598  0.00  0.00     0.119 A 
ATOM     20  C   UNK d   1      18.835  35.905  70.398  0.00  0.00     0.003 A 
ATOM     21  C   UNK d   1      17.496  37.590  69.288  0.00  0.00     0.102 A 
ATOM     22  C   UNK d   1      20.181  35.621  70.489  0.00  0.00     0.054 A 
ATOM     23  C   UNK d   1      17.681  35.347  70.906  0.00  0.00     0.014 A 
ATOM     24  C   UNK d   1      16.437  35.876  70.630  0.00  0.00     0.004 A 
ATOM     25  C   UNK d   1      16.369  37.008  69.811  0.00  0.00     0.040 A 
BRANCH  21  26
ATOM     26  O   UNK d   1      17.386  38.697  68.487  0.00  0.00    -0.353 OA
ATOM     27  C   UNK d   1      17.067  38.720  67.132  0.00  0.00     0.210 C 
ENDBRANCH  21  26
ENDBRANCH   8  17
BRANCH   2  28
ATOM     28  C   UNK d   1      25.865  33.777  68.248  0.00  0.00     0.129 C 
BRANCH  28  29
ATOM     29  C   UNK d   1      25.642  32.709  69.291  0.00  0.00     0.048 C 
BRANCH  29  30
ATOM     30  C   UNK d   1      25.260  33.209  70.637  0.00  0.00     0.235 C 
BRANCH  30  31
ATOM     31  N   UNK d   1      24.205  32.485  71.275  0.00  0.00    -0.079 N 
ATOM     32  C   UNK d   1      24.398  31.041  71.115  0.00  0.00     0.269 C 
ATOM     33  C   UNK d   1      22.909  32.849  70.792  0.00  0.00     0.269 C 
ATOM     34  H   UNK d   1      24.197  32.626  72.326  0.00  0.00     0.278 HD
ENDBRANCH  30  31
ENDBRANCH  29  30
ENDBRANCH  28  29
ENDBRANCH   2  28
TORSDOF 7
ENDMDL
