/Users/jonathanwahrer/Desktop/Msc/3_Semester/Drug_Design_Praktikum/waehrer_HTS_screening/HTS_experiment/out/docking_results/vina_output/4x21/0191_docked.pdbqt
 OpenBabel03212201253D

 34 37  0  0  1  0  0  0  0  0999 V2000
   24.3960   35.9280   68.2750 C   0  0  2  0  0  3  0  0  0  0  0  0
   24.6610   34.5320   67.9970 N   0  0  0  0  0  0  0  0  0  0  0  0
   23.4610   34.0220   67.3760 C   0  0  0  0  0  0  0  0  0  0  0  0
   23.3970   33.0110   66.6360 O   0  0  0  0  0  0  0  0  0  0  0  0
   22.3690   34.9110   67.7830 C   0  0  0  0  0  0  0  0  0  0  0  0
   21.1500   34.8430   67.4760 O   0  0  0  0  0  0  0  0  0  0  0  0
   22.9310   35.9440   68.6440 C   0  0  0  0  0  0  0  0  0  0  0  0
   22.2940   36.7070   69.5160 C   0  0  0  0  0  0  0  0  0  0  0  0
   22.9970   37.6460   70.2280 O   0  0  0  0  0  1  0  0  0  0  0  0
   24.6540   36.8210   67.1160 C   0  0  0  0  0  0  0  0  0  0  0  0
   23.7840   37.8640   66.7940 C   0  0  0  0  0  3  0  0  0  0  0  0
   23.9800   38.7050   65.7360 C   0  0  0  0  0  0  0  0  0  0  0  0
   22.7250   40.1180   65.3700 Br  0  0  0  0  0  0  0  0  0  0  0  0
   25.0720   38.5470   64.9350 C   0  0  0  0  0  3  0  0  0  0  0  0
   25.9560   37.5420   65.2040 C   0  0  0  0  0  3  0  0  0  0  0  0
   25.7450   36.6900   66.2860 C   0  0  0  0  0  3  0  0  0  0  0  0
   20.8430   36.5670   69.7430 C   0  0  0  0  0  0  0  0  0  0  0  0
   19.9200   37.3490   69.2530 O   0  0  0  0  0  0  0  0  0  0  0  0
   18.7220   37.0160   69.5980 C   0  0  0  0  0  0  0  0  0  0  0  0
   18.8350   35.9050   70.3980 C   0  0  0  0  0  0  0  0  0  0  0  0
   17.4960   37.5900   69.2880 C   0  0  0  0  0  0  0  0  0  0  0  0
   20.1810   35.6210   70.4890 C   0  0  0  0  0  3  0  0  0  0  0  0
   17.6810   35.3470   70.9060 C   0  0  0  0  0  3  0  0  0  0  0  0
   16.4370   35.8760   70.6300 C   0  0  0  0  0  3  0  0  0  0  0  0
   16.3690   37.0080   69.8110 C   0  0  0  0  0  3  0  0  0  0  0  0
   17.3860   38.6970   68.4870 O   0  0  0  0  0  0  0  0  0  0  0  0
   17.0670   38.7200   67.1320 C   0  0  0  0  0  1  0  0  0  0  0  0
   25.8650   33.7770   68.2480 C   0  0  0  0  0  2  0  0  0  0  0  0
   25.6420   32.7090   69.2910 C   0  0  0  0  0  2  0  0  0  0  0  0
   25.2600   33.2090   70.6370 C   0  0  0  0  0  2  0  0  0  0  0  0
   24.2050   32.4850   71.2750 N   0  0  0  0  0  4  0  0  0  0  0  0
   24.3980   31.0410   71.1150 C   0  0  0  0  0  1  0  0  0  0  0  0
   22.9090   32.8490   70.7920 C   0  0  0  0  0  1  0  0  0  0  0  0
   24.1970   32.6260   72.3260 H   0  0  0  0  0  0  0  0  0  0  0  0
  1 10  1  6  0  0  0
  1  7  1  0  0  0  0
  2 28  1  0  0  0  0
  2  1  1  0  0  0  0
  3  5  1  0  0  0  0
  3  2  1  0  0  0  0
  4  3  2  0  0  0  0
  5  7  1  0  0  0  0
  6  5  2  0  0  0  0
  7  8  2  0  0  0  0
  8 17  1  0  0  0  0
  8  9  1  0  0  0  0
 11 10  1  0  0  0  0
 12 11  2  0  0  0  0
 13 12  1  0  0  0  0
 14 15  2  0  0  0  0
 14 12  1  0  0  0  0
 15 16  1  0  0  0  0
 16 10  2  0  0  0  0
 17 22  2  0  0  0  0
 18 19  1  0  0  0  0
 18 17  1  0  0  0  0
 19 20  1  0  0  0  0
 20 22  1  0  0  0  0
 20 23  2  0  0  0  0
 21 19  2  0  0  0  0
 21 25  1  0  0  0  0
 24 23  1  0  0  0  0
 25 24  2  0  0  0  0
 26 21  1  0  0  0  0
 27 26  1  0  0  0  0
 28 29  1  0  0  0  0
 29 30  1  0  0  0  0
 30 31  1  0  0  0  0
 31 34  1  0  0  0  0
 32 31  1  0  0  0  0
 33 31  1  0  0  0  0
M  END
>  <Pose>
1

>  <Score>
-8.120

$$$$
