MODEL 1
REMARK VINA RESULT:    -8.169      0.000      0.000
REMARK INTER + INTRA:          -9.479
REMARK INTER:                  -9.124
REMARK INTRA:                  -0.355
REMARK UNBOUND:                -0.355
REMARK  2 active torsions:
REMARK  status: ('A' for Active; 'I' for Inactive)
REMARK    1  A    between atoms: C_4  and  N_8 
REMARK    2  A    between atoms: N_8  and  C_9 
ROOT
ATOM      1  C   UNK d   1      17.662  36.935  69.943  0.00  0.00     0.180 A 
ATOM      2  N   UNK d   1      18.496  36.086  70.534  0.00  0.00    -0.202 NA
ATOM      3  C   UNK d   1      19.737  35.797  70.109  0.00  0.00     0.231 A 
ATOM      4  N   UNK d   1      20.744  35.004  70.514  0.00  0.00    -0.081 NA
ATOM      5  O   UNK d   1      21.765  35.096  69.720  0.00  0.00    -0.103 OA
ATOM      6  N   UNK d   1      21.460  35.934  68.794  0.00  0.00    -0.081 NA
ATOM      7  C   UNK d   1      20.218  36.416  68.963  0.00  0.00     0.229 A 
ATOM      8  N   UNK d   1      19.412  37.281  68.331  0.00  0.00    -0.196 N 
ATOM      9  N   UNK d   1      19.642  37.989  67.228  0.00  0.00     0.004 NA
ATOM     10  N   UNK d   1      18.537  38.710  66.984  0.00  0.00     0.018 NA
ATOM     11  N   UNK d   1      17.646  38.435  67.939  0.00  0.00    -0.138 NA
ATOM     12  C   UNK d   1      18.177  37.547  68.783  0.00  0.00     0.212 A 
ENDROOT
BRANCH   1  13
ATOM     13  N   UNK d   1      16.350  37.270  70.353  0.00  0.00    -0.338 N 
ATOM     14  H   UNK d   1      16.162  38.223  70.778  0.00  0.00     0.167 HD
BRANCH  13  15
ATOM     15  C   UNK d   1      15.232  36.417  70.242  0.00  0.00     0.035 A 
ATOM     16  C   UNK d   1      15.115  35.150  70.745  0.00  0.00     0.048 A 
ATOM     17  C   UNK d   1      13.996  34.343  70.613  0.00  0.00     0.013 A 
ATOM     18 Br   UNK d   1      13.934  32.587  71.352  0.00  0.00    -0.051 Br
ATOM     19  C   UNK d   1      12.912  34.831  69.930  0.00  0.00     0.019 A 
ATOM     20  C   UNK d   1      12.965  36.100  69.399  0.00  0.00     0.004 A 
ATOM     21  C   UNK d   1      14.090  36.872  69.549  0.00  0.00     0.029 A 
ENDBRANCH  13  15
ENDBRANCH   1  13
TORSDOF 2
ENDMDL
