/Users/jonathanwahrer/Desktop/Msc/3_Semester/Drug_Design_Praktikum/waehrer_HTS_screening/HTS_experiment/out/docking_results/vina_output/4x21/0200_docked.pdbqt
 OpenBabel03212201263D

 21 24  0  0  1  0  0  0  0  0999 V2000
   17.6620   36.9350   69.9430 C   0  0  1  0  0  3  0  0  0  0  0  0
   18.4960   36.0860   70.5340 N   0  0  0  0  0  0  0  0  0  0  0  0
   19.7370   35.7970   70.1090 C   0  0  0  0  0  0  0  0  0  0  0  0
   20.7440   35.0040   70.5140 N   0  0  0  0  0  2  0  0  0  0  0  0
   21.7650   35.0960   69.7200 O   0  0  0  0  0  0  0  0  0  0  0  0
   21.4600   35.9340   68.7940 N   0  0  0  0  0  0  0  0  0  0  0  0
   20.2180   36.4160   68.9630 C   0  0  0  0  0  0  0  0  0  0  0  0
   19.4120   37.2810   68.3310 N   0  0  0  0  0  0  0  0  0  0  0  0
   19.6420   37.9890   67.2280 N   0  0  0  0  0  0  0  0  0  0  0  0
   18.5370   38.7100   66.9840 N   0  0  0  0  0  0  0  0  0  0  0  0
   17.6460   38.4350   67.9390 N   0  0  0  0  0  0  0  0  0  0  0  0
   18.1770   37.5470   68.7830 C   0  0  0  0  0  0  0  0  0  0  0  0
   16.3500   37.2700   70.3530 N   0  0  0  0  0  0  0  0  0  0  0  0
   16.1620   38.2230   70.7780 H   0  0  0  0  0  0  0  0  0  0  0  0
   15.2320   36.4170   70.2420 C   0  0  0  0  0  0  0  0  0  0  0  0
   15.1150   35.1500   70.7450 C   0  0  0  0  0  3  0  0  0  0  0  0
   13.9960   34.3430   70.6130 C   0  0  0  0  0  0  0  0  0  0  0  0
   13.9340   32.5870   71.3520 Br  0  0  0  0  0  0  0  0  0  0  0  0
   12.9120   34.8310   69.9300 C   0  0  0  0  0  3  0  0  0  0  0  0
   12.9650   36.1000   69.3990 C   0  0  0  0  0  3  0  0  0  0  0  0
   14.0900   36.8720   69.5490 C   0  0  0  0  0  3  0  0  0  0  0  0
  1 13  1  6  0  0  0
  1  2  1  0  0  0  0
  3  4  1  0  0  0  0
  3  2  2  0  0  0  0
  5  4  1  0  0  0  0
  6  7  2  0  0  0  0
  6  5  1  0  0  0  0
  7  3  1  0  0  0  0
  8 12  1  0  0  0  0
  8  7  1  0  0  0  0
  9  8  1  0  0  0  0
 10  9  2  0  0  0  0
 10 11  1  0  0  0  0
 11 12  2  0  0  0  0
 12  1  1  0  0  0  0
 13 14  1  0  0  0  0
 15 13  1  0  0  0  0
 15 16  1  0  0  0  0
 17 16  2  0  0  0  0
 17 18  1  0  0  0  0
 19 17  1  0  0  0  0
 20 21  1  0  0  0  0
 20 19  2  0  0  0  0
 21 15  2  0  0  0  0
M  END
>  <Pose>
1

>  <Score>
-8.169

$$$$
