MODEL 1
REMARK VINA RESULT:    -8.424      0.000      0.000
REMARK INTER + INTRA:         -10.937
REMARK INTER:                 -10.393
REMARK INTRA:                  -0.544
REMARK UNBOUND:                -0.544
REMARK  4 active torsions:
REMARK  status: ('A' for Active; 'I' for Inactive)
REMARK    1  A    between atoms: C_4  and  N_8 
REMARK    2  A    between atoms: C_11  and  C_13 
REMARK       I    between atoms: C_13  and  N_15 
REMARK    3  A    between atoms: N_15  and  C_16 
REMARK    4  A    between atoms: C_16  and  C_17 
ROOT
ATOM      1  C   UNK d   1      17.860  37.253  69.440  0.00  0.00     0.273 C 
ATOM      2  O   UNK d   1      18.213  36.375  70.266  0.00  0.00    -0.266 OA
ATOM      3  N   UNK d   1      16.622  37.901  69.624  0.00  0.00    -0.348 N 
ATOM      4  H   UNK d   1      16.344  38.628  68.927  0.00  0.00     0.163 HD
ENDROOT
BRANCH   1   5
ATOM      5  C   UNK d   1      18.755  37.555  68.331  0.00  0.00     0.165 A 
ATOM      6  N   UNK d   1      18.498  38.313  67.237  0.00  0.00    -0.125 NA
ATOM      7  N   UNK d   1      19.583  38.327  66.480  0.00  0.00    -0.060 NA
ATOM      8  N   UNK d   1      20.536  37.618  67.024  0.00  0.00    -0.224 N 
ATOM      9  C   UNK d   1      20.053  37.124  68.176  0.00  0.00     0.159 A 
BRANCH   8  10
ATOM     10  C   UNK d   1      21.866  37.365  66.552  0.00  0.00     0.060 A 
ATOM     11  C   UNK d   1      22.422  36.109  66.525  0.00  0.00     0.050 A 
ATOM     12  C   UNK d   1      23.725  35.913  66.053  0.00  0.00     0.013 A 
ATOM     13 Br   UNK d   1      24.500  34.172  66.015  0.00  0.00    -0.051 Br
ATOM     14  C   UNK d   1      24.481  36.975  65.606  0.00  0.00     0.019 A 
ATOM     15  C   UNK d   1      23.933  38.237  65.627  0.00  0.00     0.004 A 
ATOM     16  C   UNK d   1      22.630  38.420  66.101  0.00  0.00     0.032 A 
ENDBRANCH   8  10
ENDBRANCH   1   5
BRANCH   3  17
ATOM     17  C   UNK d   1      15.708  37.628  70.710  0.00  0.00     0.203 C 
BRANCH  17  18
ATOM     18  C   UNK d   1      14.678  36.608  70.308  0.00  0.00     0.148 A 
ATOM     19  N   UNK d   1      14.566  35.323  70.723  0.00  0.00    -0.319 N 
ATOM     20  C   UNK d   1      13.511  34.754  70.129  0.00  0.00     0.130 A 
ATOM     21  C   UNK d   1      15.243  34.388  71.605  0.00  0.00     0.132 C 
ATOM     22  N   UNK d   1      12.970  35.709  69.336  0.00  0.00    -0.135 NA
ATOM     23  C   UNK d   1      13.353  33.319  70.566  0.00  0.00     0.082 C 
ATOM     24  N   UNK d   1      13.670  36.821  69.444  0.00  0.00    -0.133 NA
ATOM     25  C   UNK d   1      14.727  33.041  71.136  0.00  0.00     0.028 C 
ENDBRANCH  17  18
ENDBRANCH   3  17
TORSDOF 4
ENDMDL
