/Users/jonathanwahrer/Desktop/Msc/3_Semester/Drug_Design_Praktikum/waehrer_HTS_screening/HTS_experiment/out/docking_results/vina_output/4x21/0201_docked.pdbqt
 OpenBabel03212201263D

 25 28  0  0  0  0  0  0  0  0999 V2000
   17.8600   37.2530   69.4400 C   0  0  0  0  0  0  0  0  0  0  0  0
   18.2130   36.3750   70.2660 O   0  0  0  0  0  0  0  0  0  0  0  0
   16.6220   37.9010   69.6240 N   0  0  0  0  0  0  0  0  0  0  0  0
   16.3440   38.6280   68.9270 H   0  0  0  0  0  0  0  0  0  0  0  0
   18.7550   37.5550   68.3310 C   0  0  0  0  0  0  0  0  0  0  0  0
   18.4980   38.3130   67.2370 N   0  0  0  0  0  0  0  0  0  0  0  0
   19.5830   38.3270   66.4800 N   0  0  0  0  0  0  0  0  0  0  0  0
   20.5360   37.6180   67.0240 N   0  0  0  0  0  0  0  0  0  0  0  0
   20.0530   37.1240   68.1760 C   0  0  0  0  0  3  0  0  0  0  0  0
   21.8660   37.3650   66.5520 C   0  0  0  0  0  0  0  0  0  0  0  0
   22.4220   36.1090   66.5250 C   0  0  0  0  0  3  0  0  0  0  0  0
   23.7250   35.9130   66.0530 C   0  0  0  0  0  0  0  0  0  0  0  0
   24.5000   34.1720   66.0150 Br  0  0  0  0  0  0  0  0  0  0  0  0
   24.4810   36.9750   65.6060 C   0  0  0  0  0  3  0  0  0  0  0  0
   23.9330   38.2370   65.6270 C   0  0  0  0  0  3  0  0  0  0  0  0
   22.6300   38.4200   66.1010 C   0  0  0  0  0  3  0  0  0  0  0  0
   15.7080   37.6280   70.7100 C   0  0  0  0  0  2  0  0  0  0  0  0
   14.6780   36.6080   70.3080 C   0  0  0  0  0  0  0  0  0  0  0  0
   14.5660   35.3230   70.7230 N   0  0  0  0  0  0  0  0  0  0  0  0
   13.5110   34.7540   70.1290 C   0  0  0  0  0  0  0  0  0  0  0  0
   15.2430   34.3880   71.6050 C   0  0  0  0  0  2  0  0  0  0  0  0
   12.9700   35.7090   69.3360 N   0  0  0  0  0  0  0  0  0  0  0  0
   13.3530   33.3190   70.5660 C   0  0  0  0  0  2  0  0  0  0  0  0
   13.6700   36.8210   69.4440 N   0  0  0  0  0  0  0  0  0  0  0  0
   14.7270   33.0410   71.1360 C   0  0  0  0  0  2  0  0  0  0  0  0
  1  3  1  0  0  0  0
  1  2  2  0  0  0  0
  3 17  1  0  0  0  0
  4  3  1  0  0  0  0
  5  1  1  0  0  0  0
  6  5  1  0  0  0  0
  7  8  1  0  0  0  0
  7  6  2  0  0  0  0
  8  9  1  0  0  0  0
  9  5  2  0  0  0  0
 10  8  1  0  0  0  0
 11 10  1  0  0  0  0
 12 11  2  0  0  0  0
 13 12  1  0  0  0  0
 14 15  2  0  0  0  0
 14 12  1  0  0  0  0
 15 16  1  0  0  0  0
 16 10  2  0  0  0  0
 18 17  1  0  0  0  0
 18 19  1  0  0  0  0
 19 21  1  0  0  0  0
 20 23  1  0  0  0  0
 20 19  1  0  0  0  0
 22 24  1  0  0  0  0
 22 20  2  0  0  0  0
 23 25  1  0  0  0  0
 24 18  2  0  0  0  0
 25 21  1  0  0  0  0
M  END
>  <Pose>
1

>  <Score>
-8.424

$$$$
