/Users/jonathanwahrer/Desktop/Msc/3_Semester/Drug_Design_Praktikum/waehrer_HTS_screening/HTS_experiment/out/docking_results/vina_output/4x21/0205_docked.pdbqt
 OpenBabel03212201263D

 25 28  0  0  1  0  0  0  0  0999 V2000
   16.4010   33.7900   71.0140 N   0  0  0  0  0  0  0  0  0  0  0  0
   15.5620   34.7810   70.3870 C   0  0  0  0  0  0  0  0  0  0  0  0
   14.4910   34.5060   69.7740 O   0  0  0  0  0  0  0  0  0  0  0  0
   16.1510   36.1040   70.5840 C   0  0  2  0  0  3  0  0  0  0  0  0
   16.0350   37.0170   69.5730 O   0  0  0  0  0  0  0  0  0  0  0  0
   17.2350   37.7180   69.6720 N   0  0  0  0  0  0  0  0  0  0  0  0
   18.2560   36.7960   69.9690 C   0  0  0  0  0  0  0  0  0  0  0  0
   17.6210   35.7620   70.5380 C   0  0  0  0  0  0  0  0  0  0  0  0
   17.6910   34.4190   71.1030 C   0  0  0  0  0  0  0  0  0  0  0  0
   18.7160   33.8950   71.5890 O   0  0  0  0  0  0  0  0  0  0  0  0
   17.3530   38.7310   69.5480 H   0  0  0  0  0  0  0  0  0  0  0  0
   16.0760   32.4850   71.4470 C   0  0  0  0  0  0  0  0  0  0  0  0
   15.0540   32.2450   72.3620 C   0  0  0  0  0  3  0  0  0  0  0  0
   14.7050   30.9950   72.8090 C   0  0  0  0  0  0  0  0  0  0  0  0
   13.3010   30.7060   74.0660 Br  0  0  0  0  0  0  0  0  0  0  0  0
   15.3800   29.8820   72.3510 C   0  0  0  0  0  3  0  0  0  0  0  0
   16.4050   30.1030   71.4350 C   0  0  0  0  0  3  0  0  0  0  0  0
   16.7460   31.3590   70.9950 C   0  0  0  0  0  3  0  0  0  0  0  0
   19.6930   36.9180   69.7750 C   0  0  0  0  0  0  0  0  0  0  0  0
   20.3110   37.1430   68.5420 C   0  0  0  0  0  0  0  0  0  0  0  0
   21.6120   37.2260   68.7370 N   0  0  0  0  0  0  0  0  0  0  0  0
   19.6310   37.2440   67.2290 C   0  0  0  0  0  1  0  0  0  0  0  0
   21.8530   37.0640   70.0360 N   0  0  0  0  0  0  0  0  0  0  0  0
   22.6390   37.4500   67.7210 C   0  0  0  0  0  1  0  0  0  0  0  0
   20.7150   36.8750   70.6820 C   0  0  0  0  0  3  0  0  0  0  0  0
  1  9  1  0  0  0  0
  1 12  1  0  0  0  0
  2  4  1  0  0  0  0
  2  1  1  0  0  0  0
  3  2  2  0  0  0  0
  4  5  1  6  0  0  0
  5  6  1  0  0  0  0
  6  7  1  0  0  0  0
  7  8  2  0  0  0  0
  8  4  1  0  0  0  0
  8  9  1  0  0  0  0
  9 10  2  0  0  0  0
 11  6  1  0  0  0  0
 12 13  1  0  0  0  0
 13 14  2  0  0  0  0
 14 15  1  0  0  0  0
 16 14  1  0  0  0  0
 17 16  2  0  0  0  0
 18 17  1  0  0  0  0
 18 12  2  0  0  0  0
 19  7  1  0  0  0  0
 19 25  1  0  0  0  0
 20 21  1  0  0  0  0
 20 19  2  0  0  0  0
 21 23  1  0  0  0  0
 22 20  1  0  0  0  0
 23 25  2  0  0  0  0
 24 21  1  0  0  0  0
M  END
>  <Pose>
1

>  <Score>
-8.423

$$$$
