MODEL 1
REMARK VINA RESULT:    -8.423      0.000      0.000
REMARK INTER + INTRA:          -9.964
REMARK INTER:                  -9.408
REMARK INTRA:                  -0.556
REMARK UNBOUND:                -0.556
REMARK  2 active torsions:
REMARK  status: ('A' for Active; 'I' for Inactive)
REMARK    1  A    between atoms: C_4  and  N_8 
REMARK    2  A    between atoms: C_14  and  C_18 
ROOT
ATOM      1  N   UNK d   1      16.401  33.790  71.014  0.00  0.00    -0.246 N 
ATOM      2  C   UNK d   1      15.562  34.781  70.387  0.00  0.00     0.268 C 
ATOM      3  O   UNK d   1      14.491  34.506  69.774  0.00  0.00    -0.269 OA
ATOM      4  C   UNK d   1      16.151  36.104  70.584  0.00  0.00     0.285 C 
ATOM      5  O   UNK d   1      16.035  37.017  69.573  0.00  0.00    -0.260 OA
ATOM      6  N   UNK d   1      17.235  37.718  69.672  0.00  0.00    -0.264 N 
ATOM      7  C   UNK d   1      18.256  36.796  69.969  0.00  0.00     0.083 C 
ATOM      8  C   UNK d   1      17.621  35.762  70.538  0.00  0.00     0.080 C 
ATOM      9  C   UNK d   1      17.691  34.419  71.103  0.00  0.00     0.266 C 
ATOM     10  O   UNK d   1      18.716  33.895  71.589  0.00  0.00    -0.267 OA
ATOM     11  H   UNK d   1      17.353  38.731  69.548  0.00  0.00     0.194 HD
ENDROOT
BRANCH   1  12
ATOM     12  C   UNK d   1      16.076  32.485  71.447  0.00  0.00     0.047 A 
ATOM     13  C   UNK d   1      15.054  32.245  72.362  0.00  0.00     0.049 A 
ATOM     14  C   UNK d   1      14.705  30.995  72.809  0.00  0.00     0.013 A 
ATOM     15 Br   UNK d   1      13.301  30.706  74.066  0.00  0.00    -0.051 Br
ATOM     16  C   UNK d   1      15.380  29.882  72.351  0.00  0.00     0.019 A 
ATOM     17  C   UNK d   1      16.405  30.103  71.435  0.00  0.00     0.004 A 
ATOM     18  C   UNK d   1      16.746  31.359  70.995  0.00  0.00     0.030 A 
ENDBRANCH   1  12
BRANCH   7  19
ATOM     19  C   UNK d   1      19.693  36.918  69.775  0.00  0.00     0.036 A 
ATOM     20  C   UNK d   1      20.311  37.143  68.542  0.00  0.00     0.040 A 
ATOM     21  N   UNK d   1      21.612  37.226  68.737  0.00  0.00    -0.278 N 
ATOM     22  C   UNK d   1      19.631  37.244  67.229  0.00  0.00     0.071 C 
ATOM     23  N   UNK d   1      21.853  37.064  70.036  0.00  0.00    -0.184 NA
ATOM     24  C   UNK d   1      22.639  37.450  67.721  0.00  0.00     0.179 C 
ATOM     25  C   UNK d   1      20.715  36.875  70.682  0.00  0.00     0.154 A 
ENDBRANCH   7  19
TORSDOF 2
ENDMDL
