/Users/jonathanwahrer/Desktop/Msc/3_Semester/Drug_Design_Praktikum/waehrer_HTS_screening/HTS_experiment/out/docking_results/vina_output/4x21/0211_docked.pdbqt
 OpenBabel03212201263D

 22 25  0  0  1  0  0  0  0  0999 V2000
   19.8540   36.4590   69.8520 N   0  0  0  0  0  0  0  0  0  0  0  0
   20.8910   36.0580   70.7360 C   0  0  0  0  0  0  0  0  0  0  0  0
   20.8160   36.1000   72.0200 O   0  0  0  0  0  0  0  0  0  0  0  0
   22.0410   35.5960   69.9460 C   0  0  1  0  0  3  0  0  0  0  0  0
   21.9270   34.1130   69.7710 C   0  0  1  0  0  0  0  0  0  0  0  0
   20.8240   34.0620   68.8810 O   0  0  0  0  0  0  0  0  0  0  0  0
   21.4370   34.7950   67.8310 C   0  0  1  0  0  3  0  0  0  0  0  0
   21.7500   36.0910   68.5560 C   0  0  1  0  0  3  0  0  0  0  0  0
   20.4820   36.8420   68.6400 C   0  0  0  0  0  0  0  0  0  0  0  0
   20.0540   37.6630   67.7870 O   0  0  0  0  0  0  0  0  0  0  0  0
   22.6650   33.9890   67.6430 C   0  0  0  0  0  2  0  0  0  0  0  0
   22.9660   33.5370   68.8750 C   0  0  0  0  0  2  0  0  0  0  0  0
   18.4360   36.4760   70.1360 C   0  0  0  0  0  0  0  0  0  0  0  0
   17.7800   35.3750   70.6660 C   0  0  0  0  0  3  0  0  0  0  0  0
   16.4540   35.3320   70.9540 C   0  0  0  0  0  0  0  0  0  0  0  0
   15.6890   33.7410   71.6820 Br  0  0  0  0  0  0  0  0  0  0  0  0
   15.6870   36.4550   70.7100 C   0  0  0  0  0  3  0  0  0  0  0  0
   16.2930   37.5770   70.1840 C   0  0  0  0  0  3  0  0  0  0  0  0
   17.6610   37.5880   69.8980 C   0  0  0  0  0  3  0  0  0  0  0  0
   21.7120   33.3400   71.0160 C   0  0  0  0  0  2  0  0  0  0  0  0
   22.9140   32.7310   71.3780 O   0  0  0  0  0  0  0  0  0  0  0  0
   23.6610   33.0990   70.8430 H   0  0  0  0  0  0  0  0  0  0  0  0
  1 13  1  0  0  0  0
  1  2  1  0  0  0  0
  2  3  2  0  0  0  0
  4  2  1  1  0  0  0
  5  4  1  0  0  0  0
  5 20  1  1  0  0  0
  6  5  1  0  0  0  0
  7 11  1  1  0  0  0
  7  8  1  0  0  0  0
  7  6  1  0  0  0  0
  8  9  1  1  0  0  0
  8  4  1  0  0  0  0
  9  1  1  0  0  0  0
 10  9  2  0  0  0  0
 11 12  1  0  0  0  0
 12  5  1  0  0  0  0
 13 14  1  0  0  0  0
 14 15  2  0  0  0  0
 15 16  1  0  0  0  0
 17 15  1  0  0  0  0
 18 17  2  0  0  0  0
 19 13  2  0  0  0  0
 19 18  1  0  0  0  0
 20 21  1  0  0  0  0
 22 21  1  0  0  0  0
M  END
>  <Pose>
1

>  <Score>
-7.801

$$$$
