MODEL 1
REMARK VINA RESULT:    -8.816      0.000      0.000
REMARK INTER + INTRA:         -10.462
REMARK INTER:                  -9.847
REMARK INTRA:                  -0.616
REMARK UNBOUND:                -0.616
REMARK  2 active torsions:
REMARK  status: ('A' for Active; 'I' for Inactive)
REMARK    1  A    between atoms: C_4  and  N_8 
REMARK    2  A    between atoms: C_14  and  C_18 
ROOT
ATOM      1  N   UNK d   1      18.951  36.370  69.896  0.00  0.00    -0.246 N 
ATOM      2  C   UNK d   1      18.052  37.389  69.408  0.00  0.00     0.268 C 
ATOM      3  O   UNK d   1      18.198  38.131  68.430  0.00  0.00    -0.269 OA
ATOM      4  C   UNK d   1      16.864  37.407  70.310  0.00  0.00     0.285 C 
ATOM      5  O   UNK d   1      15.667  37.671  69.669  0.00  0.00    -0.260 OA
ATOM      6  N   UNK d   1      14.778  36.963  70.443  0.00  0.00    -0.264 N 
ATOM      7  C   UNK d   1      15.425  35.698  70.664  0.00  0.00     0.083 C 
ATOM      8  C   UNK d   1      16.715  35.925  70.589  0.00  0.00     0.080 C 
ATOM      9  C   UNK d   1      18.106  35.459  70.634  0.00  0.00     0.266 C 
ATOM     10  O   UNK d   1      18.445  34.431  71.229  0.00  0.00    -0.267 OA
ATOM     11  H   UNK d   1      13.857  37.246  70.797  0.00  0.00     0.194 HD
ENDROOT
BRANCH   1  12
ATOM     12  C   UNK d   1      20.347  36.317  69.675  0.00  0.00     0.047 A 
ATOM     13  C   UNK d   1      20.891  35.301  68.922  0.00  0.00     0.049 A 
ATOM     14  C   UNK d   1      22.268  35.223  68.693  0.00  0.00     0.013 A 
ATOM     15 Br   UNK d   1      22.992  33.806  67.649  0.00  0.00    -0.051 Br
ATOM     16  C   UNK d   1      23.130  36.160  69.212  0.00  0.00     0.019 A 
ATOM     17  C   UNK d   1      22.588  37.178  69.966  0.00  0.00     0.004 A 
ATOM     18  C   UNK d   1      21.206  37.253  70.194  0.00  0.00     0.030 A 
ENDBRANCH   1  12
BRANCH   7  19
ATOM     19  C   UNK d   1      14.826  34.414  70.910  0.00  0.00     0.036 A 
ATOM     20  C   UNK d   1      15.254  33.572  71.934  0.00  0.00     0.127 A 
ATOM     21  N   UNK d   1      14.507  32.453  71.937  0.00  0.00    -0.284 N 
ATOM     22  N   UNK d   1      13.643  32.595  70.946  0.00  0.00    -0.177 NA
ATOM     23  C   UNK d   1      14.638  31.312  72.858  0.00  0.00     0.179 C 
ATOM     24  C   UNK d   1      13.788  33.749  70.298  0.00  0.00     0.065 A 
ATOM     25  C   UNK d   1      12.994  34.266  69.133  0.00  0.00     0.073 C 
ENDBRANCH   7  19
TORSDOF 2
ENDMDL
