/Users/jonathanwahrer/Desktop/Msc/3_Semester/Drug_Design_Praktikum/waehrer_HTS_screening/HTS_experiment/out/docking_results/vina_output/4x21/0216_docked.pdbqt
 OpenBabel03212201263D

 28 31  0  0  1  0  0  0  0  0999 V2000
   20.6400   33.8030   70.5220 C   0  0  0  0  0  0  0  0  0  0  0  0
   20.9430   32.6270   70.1990 O   0  0  0  0  0  0  0  0  0  0  0  0
   21.4920   34.8930   70.2490 N   0  0  0  0  0  0  0  0  0  0  0  0
   21.1730   36.2680   70.6060 C   0  0  0  0  0  2  0  0  0  0  0  0
   21.8700   37.2050   69.6280 C   0  0  0  0  0  2  0  0  0  0  0  0
   22.0990   36.5950   68.3320 N   0  0  0  0  0  0  0  0  0  0  0  0
   23.0670   35.5640   68.4650 C   0  0  0  0  0  2  0  0  0  0  0  0
   22.7610   34.6070   69.5670 C   0  0  0  0  0  2  0  0  0  0  0  0
   19.3730   34.0260   71.1910 C   0  0  1  0  0  3  0  0  0  0  0  0
   18.3510   32.9060   70.9020 C   0  0  0  0  0  2  0  0  0  0  0  0
   17.2880   33.4190   71.7530 N   0  0  0  0  0  0  0  0  0  0  0  0
   17.9660   33.7310   72.9650 C   0  0  0  0  0  0  0  0  0  0  0  0
   19.4290   33.8400   72.7120 C   0  0  0  0  0  2  0  0  0  0  0  0
   17.4130   33.8890   74.0780 O   0  0  0  0  0  0  0  0  0  0  0  0
   15.9350   33.5430   71.3650 C   0  0  0  0  0  0  0  0  0  0  0  0
   15.4960   34.7050   70.7590 C   0  0  0  0  0  3  0  0  0  0  0  0
   14.1770   34.8910   70.3600 C   0  0  0  0  0  0  0  0  0  0  0  0
   13.6810   36.5190   69.5400 Br  0  0  0  0  0  0  0  0  0  0  0  0
   13.2640   33.8620   70.5830 C   0  0  0  0  0  3  0  0  0  0  0  0
   13.6560   32.6860   71.1840 C   0  0  0  0  0  3  0  0  0  0  0  0
   14.9800   32.5680   71.5540 C   0  0  0  0  0  3  0  0  0  0  0  0
   20.8890   36.2700   67.6630 C   0  0  0  0  0  2  0  0  0  0  0  0
   20.1460   37.4650   67.1210 C   0  0  0  0  0  2  0  0  0  0  0  0
   18.8750   37.6960   67.7450 N   0  0  0  0  0  0  0  0  0  0  0  0
   18.4520   37.2910   68.9440 C   0  0  0  0  0  3  0  0  0  0  0  0
   17.1860   37.7170   69.1430 N   0  0  0  0  0  0  0  0  0  0  0  0
   16.8000   38.4000   68.0580 C   0  0  0  0  0  3  0  0  0  0  0  0
   17.8660   38.3800   67.1890 C   0  0  0  0  0  3  0  0  0  0  0  0
  2  1  2  0  0  0  0
  3  1  1  0  0  0  0
  3  4  1  0  0  0  0
  5  4  1  0  0  0  0
  6  7  1  0  0  0  0
  6  5  1  0  0  0  0
  7  8  1  0  0  0  0
  8  3  1  0  0  0  0
  9  1  1  6  0  0  0
  9 13  1  0  0  0  0
 10  9  1  0  0  0  0
 10 11  1  0  0  0  0
 11 12  1  0  0  0  0
 12 14  2  0  0  0  0
 13 12  1  0  0  0  0
 15 21  1  0  0  0  0
 15 11  1  0  0  0  0
 16 15  2  0  0  0  0
 17 19  2  0  0  0  0
 17 16  1  0  0  0  0
 18 17  1  0  0  0  0
 19 20  1  0  0  0  0
 20 21  2  0  0  0  0
 22  6  1  0  0  0  0
 23 22  1  0  0  0  0
 23 24  1  0  0  0  0
 24 25  1  0  0  0  0
 25 26  2  0  0  0  0
 27 26  1  0  0  0  0
 28 24  1  0  0  0  0
 28 27  2  0  0  0  0
M  END
>  <Pose>
1

>  <Score>
-8.227

$$$$
