MODEL 1
REMARK VINA RESULT:    -8.227      0.000      0.000
REMARK INTER + INTRA:         -11.763
REMARK INTER:                 -10.632
REMARK INTRA:                  -1.131
REMARK UNBOUND:                -1.131
REMARK  5 active torsions:
REMARK  status: ('A' for Active; 'I' for Inactive)
REMARK    1  A    between atoms: C_4  and  N_8 
REMARK    2  A    between atoms: C_10  and  C_14 
REMARK       I    between atoms: C_14  and  N_16 
REMARK    3  A    between atoms: N_19  and  C_22 
REMARK    4  A    between atoms: C_22  and  C_23 
REMARK    5  A    between atoms: C_23  and  N_24 
ROOT
ATOM      1  C   UNK d   1      20.640  33.803  70.522  0.00  0.00     0.226 C 
ATOM      2  O   UNK d   1      20.943  32.627  70.199  0.00  0.00    -0.273 OA
ATOM      3  N   UNK d   1      21.492  34.893  70.249  0.00  0.00    -0.348 N 
ATOM      4  C   UNK d   1      21.173  36.268  70.606  0.00  0.00     0.156 C 
ATOM      5  C   UNK d   1      21.870  37.205  69.628  0.00  0.00     0.292 C 
ATOM      6  N   UNK d   1      22.099  36.595  68.332  0.00  0.00     0.093 N 
ATOM      7  C   UNK d   1      23.067  35.564  68.465  0.00  0.00     0.292 C 
ATOM      8  C   UNK d   1      22.761  34.607  69.567  0.00  0.00     0.156 C 
ENDROOT
BRANCH   1   9
ATOM      9  C   UNK d   1      19.373  34.026  71.191  0.00  0.00     0.105 C 
ATOM     10  C   UNK d   1      18.351  32.906  70.902  0.00  0.00     0.146 C 
ATOM     11  N   UNK d   1      17.288  33.419  71.753  0.00  0.00    -0.317 N 
ATOM     12  C   UNK d   1      17.966  33.731  72.965  0.00  0.00     0.225 C 
ATOM     13  C   UNK d   1      19.429  33.840  72.712  0.00  0.00     0.119 C 
ATOM     14  O   UNK d   1      17.413  33.889  74.078  0.00  0.00    -0.273 OA
BRANCH  11  15
ATOM     15  C   UNK d   1      15.935  33.543  71.365  0.00  0.00     0.038 A 
ATOM     16  C   UNK d   1      15.496  34.705  70.759  0.00  0.00     0.048 A 
ATOM     17  C   UNK d   1      14.177  34.891  70.360  0.00  0.00     0.013 A 
ATOM     18 Br   UNK d   1      13.681  36.519  69.540  0.00  0.00    -0.051 Br
ATOM     19  C   UNK d   1      13.264  33.862  70.583  0.00  0.00     0.019 A 
ATOM     20  C   UNK d   1      13.656  32.686  71.184  0.00  0.00     0.004 A 
ATOM     21  C   UNK d   1      14.980  32.568  71.554  0.00  0.00     0.030 A 
ENDBRANCH  11  15
ENDBRANCH   1   9
BRANCH   6  22
ATOM     22  C   UNK d   1      20.889  36.270  67.663  0.00  0.00     0.292 C 
BRANCH  22  23
ATOM     23  C   UNK d   1      20.146  37.465  67.121  0.00  0.00     0.159 C 
BRANCH  23  24
ATOM     24  N   UNK d   1      18.875  37.696  67.745  0.00  0.00    -0.348 N 
ATOM     25  C   UNK d   1      18.452  37.291  68.944  0.00  0.00     0.209 A 
ATOM     26  N   UNK d   1      17.186  37.717  69.143  0.00  0.00    -0.255 NA
ATOM     27  C   UNK d   1      16.800  38.400  68.058  0.00  0.00     0.135 A 
ATOM     28  C   UNK d   1      17.866  38.380  67.189  0.00  0.00     0.111 A 
ENDBRANCH  23  24
ENDBRANCH  22  23
ENDBRANCH   6  22
TORSDOF 5
ENDMDL
