MODEL 1
REMARK VINA RESULT:    -8.357      0.000      0.000
REMARK INTER + INTRA:         -12.694
REMARK INTER:                 -11.288
REMARK INTRA:                  -1.405
REMARK UNBOUND:                -1.405
REMARK  6 active torsions:
REMARK  status: ('A' for Active; 'I' for Inactive)
REMARK    1  A    between atoms: C_4  and  O_8 
REMARK    2  A    between atoms: O_8  and  C_9 
REMARK    3  A    between atoms: C_9  and  C_10 
REMARK    4  A    between atoms: C_10  and  N_11 
REMARK       I    between atoms: N_11  and  C_12 
REMARK    5  A    between atoms: C_12  and  C_14 
REMARK    6  A    between atoms: C_14  and  N_15 
ROOT
ATOM      1  N   UNK d   1      21.257  33.841  69.005  0.00  0.00    -0.358 N 
ATOM      2  C   UNK d   1      21.666  33.206  70.210  0.00  0.00     0.236 C 
ATOM      3  O   UNK d   1      22.880  33.426  70.551  0.00  0.00    -0.272 OA
ATOM      4  H   UNK d   1      20.276  33.701  68.681  0.00  0.00     0.162 HD
ENDROOT
BRANCH   2   5
ATOM      5  C   UNK d   1      20.807  32.346  71.049  0.00  0.00     0.237 C 
BRANCH   5   6
ATOM      6  N   UNK d   1      19.469  32.837  71.241  0.00  0.00    -0.279 N 
ATOM      7  C   UNK d   1      19.178  33.933  72.123  0.00  0.00     0.232 C 
ATOM      8  O   UNK d   1      19.907  34.404  73.032  0.00  0.00    -0.272 OA
ATOM      9  C   UNK d   1      17.846  34.434  71.783  0.00  0.00     0.100 C 
ATOM     10  C   UNK d   1      17.328  33.571  70.616  0.00  0.00     0.100 C 
ATOM     11  C   UNK d   1      16.784  34.160  72.812  0.00  0.00     0.022 C 
ATOM     12  C   UNK d   1      15.962  33.126  71.004  0.00  0.00     0.022 C 
ATOM     13  C   UNK d   1      18.242  32.400  70.640  0.00  0.00     0.232 C 
ATOM     14  C   UNK d   1      15.530  34.287  71.924  0.00  0.00     0.018 C 
ATOM     15  C   UNK d   1      16.115  32.079  72.045  0.00  0.00    -0.025 C 
ATOM     16  C   UNK d   1      16.737  32.678  73.054  0.00  0.00    -0.025 C 
ATOM     17  O   UNK d   1      18.018  31.248  70.229  0.00  0.00    -0.272 OA
ENDBRANCH   5   6
ENDBRANCH   2   5
BRANCH   1  18
ATOM     18  C   UNK d   1      22.134  34.660  68.224  0.00  0.00     0.149 C 
BRANCH  18  19
ATOM     19  C   UNK d   1      22.060  36.122  68.691  0.00  0.00     0.195 C 
BRANCH  19  20
ATOM     20  O   UNK d   1      20.878  36.622  68.530  0.00  0.00    -0.350 OA
BRANCH  20  21
ATOM     21  C   UNK d   1      19.738  37.158  68.290  0.00  0.00     0.070 A 
ATOM     22  C   UNK d   1      18.728  37.137  69.268  0.00  0.00     0.055 A 
ATOM     23  C   UNK d   1      17.491  37.689  69.079  0.00  0.00     0.013 A 
ATOM     24 Br   UNK d   1      16.143  37.641  70.431  0.00  0.00    -0.051 Br
ATOM     25  C   UNK d   1      17.187  38.298  67.892  0.00  0.00     0.019 A 
ATOM     26  C   UNK d   1      18.138  38.350  66.893  0.00  0.00     0.004 A 
ATOM     27  C   UNK d   1      19.379  37.796  67.086  0.00  0.00     0.037 A 
ENDBRANCH  20  21
ENDBRANCH  19  20
ENDBRANCH  18  19
ENDBRANCH   1  18
TORSDOF 6
ENDMDL
