/Users/jonathanwahrer/Desktop/Msc/3_Semester/Drug_Design_Praktikum/waehrer_HTS_screening/HTS_experiment/out/docking_results/vina_output/4x21/0219_docked.pdbqt
 OpenBabel03212201273D

 27 30  0  0  1  0  0  0  0  0999 V2000
   21.2570   33.8410   69.0050 N   0  0  0  0  0  0  0  0  0  0  0  0
   21.6660   33.2060   70.2100 C   0  0  0  0  0  0  0  0  0  0  0  0
   22.8800   33.4260   70.5510 O   0  0  0  0  0  0  0  0  0  0  0  0
   20.2760   33.7010   68.6810 H   0  0  0  0  0  0  0  0  0  0  0  0
   20.8070   32.3460   71.0490 C   0  0  0  0  0  2  0  0  0  0  0  0
   19.4690   32.8370   71.2410 N   0  0  0  0  0  0  0  0  0  0  0  0
   19.1780   33.9330   72.1230 C   0  0  0  0  0  0  0  0  0  0  0  0
   19.9070   34.4040   73.0320 O   0  0  0  0  0  0  0  0  0  0  0  0
   17.8460   34.4340   71.7830 C   0  0  1  0  0  3  0  0  0  0  0  0
   17.3280   33.5710   70.6160 C   0  0  2  0  0  3  0  0  0  0  0  0
   16.7840   34.1600   72.8120 C   0  0  1  0  0  3  0  0  0  0  0  0
   15.9620   33.1260   71.0040 C   0  0  2  0  0  3  0  0  0  0  0  0
   18.2420   32.4000   70.6400 C   0  0  0  0  0  0  0  0  0  0  0  0
   15.5300   34.2870   71.9240 C   0  0  0  0  0  2  0  0  0  0  0  0
   16.1150   32.0790   72.0450 C   0  0  0  0  0  2  0  0  0  0  0  0
   16.7370   32.6780   73.0540 C   0  0  0  0  0  2  0  0  0  0  0  0
   18.0180   31.2480   70.2290 O   0  0  0  0  0  0  0  0  0  0  0  0
   22.1340   34.6600   68.2240 C   0  0  0  0  0  2  0  0  0  0  0  0
   22.0600   36.1220   68.6910 C   0  0  0  0  0  2  0  0  0  0  0  0
   20.8780   36.6220   68.5300 O   0  0  0  0  0  0  0  0  0  0  0  0
   19.7380   37.1580   68.2900 C   0  0  0  0  0  0  0  0  0  0  0  0
   18.7280   37.1370   69.2680 C   0  0  0  0  0  3  0  0  0  0  0  0
   17.4910   37.6890   69.0790 C   0  0  0  0  0  0  0  0  0  0  0  0
   16.1430   37.6410   70.4310 Br  0  0  0  0  0  0  0  0  0  0  0  0
   17.1870   38.2980   67.8920 C   0  0  0  0  0  3  0  0  0  0  0  0
   18.1380   38.3500   66.8930 C   0  0  0  0  0  3  0  0  0  0  0  0
   19.3790   37.7960   67.0860 C   0  0  0  0  0  3  0  0  0  0  0  0
  1  2  1  0  0  0  0
  2  3  2  0  0  0  0
  2  5  1  0  0  0  0
  4  1  1  0  0  0  0
  5  6  1  0  0  0  0
  6  7  1  0  0  0  0
  7  8  2  0  0  0  0
  9  7  1  1  0  0  0
  9 11  1  0  0  0  0
 10 13  1  1  0  0  0
 10 12  1  0  0  0  0
 10  9  1  0  0  0  0
 11 14  1  6  0  0  0
 11 16  1  0  0  0  0
 12 14  1  1  0  0  0
 12 15  1  0  0  0  0
 13  6  1  0  0  0  0
 15 16  1  0  0  0  0
 17 13  2  0  0  0  0
 18 19  1  0  0  0  0
 18  1  1  0  0  0  0
 20 19  1  0  0  0  0
 21 20  1  0  0  0  0
 21 22  1  0  0  0  0
 23 22  2  0  0  0  0
 23 24  1  0  0  0  0
 25 23  1  0  0  0  0
 26 27  1  0  0  0  0
 26 25  2  0  0  0  0
 27 21  2  0  0  0  0
M  END
>  <Pose>
1

>  <Score>
-8.357

$$$$
