MODEL 1
REMARK VINA RESULT:    -8.152      0.000      0.000
REMARK INTER + INTRA:         -11.874
REMARK INTER:                 -11.489
REMARK INTRA:                  -0.385
REMARK UNBOUND:                -0.385
REMARK  7 active torsions:
REMARK  status: ('A' for Active; 'I' for Inactive)
REMARK    1  A    between atoms: C_5  and  C_8 
REMARK    2  A    between atoms: C_8  and  C_10 
REMARK    3  A    between atoms: C_11  and  C_25 
REMARK    4  A    between atoms: N_12  and  C_17 
REMARK    5  A    between atoms: C_17  and  C_18 
REMARK    6  A    between atoms: C_18  and  N_19 
REMARK    7  A    between atoms: C_27  and  O_32 
ROOT
ATOM      1  C   UNK d   1      19.708  35.265  70.492  0.00  0.00     0.167 C 
ATOM      2  C   UNK d   1      20.417  34.270  69.606  0.00  0.00     0.140 C 
ATOM      3  N   UNK d   1      21.189  35.130  68.739  0.00  0.00    -0.334 N 
ATOM      4  C   UNK d   1      21.572  36.252  69.526  0.00  0.00     0.291 C 
ATOM      5  O   UNK d   1      22.378  37.167  69.173  0.00  0.00    -0.264 OA
ATOM      6  C   UNK d   1      20.872  36.166  70.823  0.00  0.00     0.230 C 
ATOM      7  O   UNK d   1      21.192  36.711  71.891  0.00  0.00    -0.286 OA
ENDROOT
BRANCH   1   8
ATOM      8  C   UNK d   1      19.091  34.705  71.680  0.00  0.00     0.173 C 
ATOM      9  O   UNK d   1      19.724  34.604  72.751  0.00  0.00    -0.291 OA
BRANCH   8  10
ATOM     10  C   UNK d   1      17.713  34.251  71.638  0.00  0.00     0.011 A 
ATOM     11  C   UNK d   1      16.796  34.829  70.753  0.00  0.00     0.016 A 
ATOM     12  C   UNK d   1      15.488  34.422  70.699  0.00  0.00     0.020 A 
ATOM     13  C   UNK d   1      15.057  33.419  71.534  0.00  0.00     0.011 A 
ATOM     14 Br   UNK d   1      13.243  32.869  71.446  0.00  0.00    -0.051 Br
ATOM     15  C   UNK d   1      15.905  32.813  72.423  0.00  0.00     0.020 A 
ATOM     16  C   UNK d   1      17.217  33.250  72.449  0.00  0.00     0.016 A 
ENDBRANCH   8  10
ENDBRANCH   1   8
BRANCH   2  17
ATOM     17  C   UNK d   1      21.204  33.278  70.323  0.00  0.00    -0.031 A 
ATOM     18  C   UNK d   1      20.617  32.159  70.930  0.00  0.00     0.049 A 
ATOM     19  C   UNK d   1      21.370  31.221  71.605  0.00  0.00     0.105 A 
ATOM     20  C   UNK d   1      22.743  31.349  71.708  0.00  0.00     0.140 A 
ATOM     21  C   UNK d   1      23.341  32.441  71.118  0.00  0.00     0.043 A 
ATOM     22  O   UNK d   1      23.525  30.419  72.382  0.00  0.00    -0.189 OA
ATOM     23  C   UNK d   1      22.571  33.376  70.444  0.00  0.00     0.012 A 
BRANCH  19  24
ATOM     24  O   UNK d   1      20.796  30.114  72.206  0.00  0.00    -0.353 OA
ATOM     25  C   UNK d   1      20.111  30.162  73.432  0.00  0.00     0.210 C 
ENDBRANCH  19  24
ENDBRANCH   2  17
BRANCH   3  26
ATOM     26  C   UNK d   1      21.544  34.966  67.351  0.00  0.00     0.154 C 
BRANCH  26  27
ATOM     27  C   UNK d   1      22.874  34.307  67.147  0.00  0.00     0.255 C 
BRANCH  27  28
ATOM     28  N   UNK d   1      24.002  35.131  67.355  0.00  0.00    -0.066 N 
ATOM     29  C   UNK d   1      24.023  36.148  66.298  0.00  0.00     0.261 C 
ATOM     30  C   UNK d   1      24.364  35.578  64.961  0.00  0.00     0.195 C 
ATOM     31  O   UNK d   1      24.892  34.311  64.992  0.00  0.00    -0.388 OA
ATOM     32  C   UNK d   1      25.821  34.181  65.995  0.00  0.00     0.195 C 
ATOM     33  C   UNK d   1      25.270  34.492  67.361  0.00  0.00     0.261 C 
ATOM     34  H   UNK d   1      23.910  35.683  68.253  0.00  0.00     0.280 HD
ENDBRANCH  27  28
ENDBRANCH  26  27
ENDBRANCH   3  26
TORSDOF 7
ENDMDL
