MODEL 1
REMARK VINA RESULT:    -7.912      0.000      0.000
REMARK INTER + INTRA:          -8.602
REMARK INTER:                  -9.300
REMARK INTRA:                   0.698
REMARK UNBOUND:                 0.698
REMARK  3 active torsions:
REMARK  status: ('A' for Active; 'I' for Inactive)
REMARK    1  A    between atoms: C_5  and  C_8 
REMARK    2  A    between atoms: C_8  and  C_10 
REMARK    3  A    between atoms: N_21  and  C_24 
ROOT
ATOM      1  C   UNK d   1      21.332  35.728  68.250  0.00  0.00     0.193 C 
ATOM      2  N   UNK d   1      22.729  36.110  68.118  0.00  0.00    -0.283 N 
ATOM      3  N   UNK d   1      23.592  37.008  68.712  0.00  0.00    -0.188 NA
ATOM      4  C   UNK d   1      24.853  37.055  68.464  0.00  0.00     0.138 A 
ATOM      5  C   UNK d   1      25.428  36.138  67.507  0.00  0.00     0.019 A 
ATOM      6  C   UNK d   1      24.667  35.272  66.879  0.00  0.00     0.002 A 
ATOM      7  C   UNK d   1      23.234  35.196  67.097  0.00  0.00     0.142 A 
ATOM      8  C   UNK d   1      22.710  33.894  67.589  0.00  0.00     0.122 C 
ATOM      9  C   UNK d   1      21.472  34.232  68.429  0.00  0.00     0.126 C 
ATOM     10  C   UNK d   1      21.852  33.851  69.787  0.00  0.00     0.234 C 
ATOM     11  O   UNK d   1      21.247  34.192  70.841  0.00  0.00    -0.272 OA
ATOM     12  N   UNK d   1      23.009  33.040  69.729  0.00  0.00    -0.288 N 
ATOM     13  C   UNK d   1      23.641  33.169  68.462  0.00  0.00     0.234 C 
ATOM     14  O   UNK d   1      24.778  32.746  68.141  0.00  0.00    -0.272 OA
ENDROOT
BRANCH   1  15
ATOM     15  C   UNK d   1      20.702  36.385  69.403  0.00  0.00     0.184 C 
ATOM     16  O   UNK d   1      21.490  36.886  70.270  0.00  0.00    -0.290 OA
BRANCH  15  17
ATOM     17  C   UNK d   1      19.279  36.507  69.625  0.00  0.00     0.012 A 
ATOM     18  C   UNK d   1      18.597  35.699  70.497  0.00  0.00     0.016 A 
ATOM     19  C   UNK d   1      17.242  35.862  70.673  0.00  0.00     0.020 A 
ATOM     20  C   UNK d   1      16.502  36.816  70.008  0.00  0.00     0.011 A 
ATOM     21 Br   UNK d   1      14.623  36.990  70.297  0.00  0.00    -0.051 Br
ATOM     22  C   UNK d   1      17.191  37.626  69.132  0.00  0.00     0.020 A 
ATOM     23  C   UNK d   1      18.546  37.470  68.950  0.00  0.00     0.016 A 
ENDBRANCH  15  17
ENDBRANCH   1  15
BRANCH  12  24
ATOM     24  C   UNK d   1      23.500  32.192  70.790  0.00  0.00     0.130 C 
ATOM     25  C   UNK d   1      22.649  30.983  71.033  0.00  0.00     0.027 C 
ENDBRANCH  12  24
TORSDOF 3
ENDMDL
