/Users/jonathanwahrer/Desktop/Msc/3_Semester/Drug_Design_Praktikum/waehrer_HTS_screening/HTS_experiment/out/docking_results/vina_output/4x21/0243_docked.pdbqt
 OpenBabel03212201283D

 30 33  0  0  1  0  0  0  0  0999 V2000
   18.8290   37.1400   69.9470 C   0  0  2  0  0  3  0  0  0  0  0  0
   19.0540   37.2100   68.4560 C   0  0  0  0  0  2  0  0  0  0  0  0
   20.4050   36.7250   68.2760 N   0  0  0  0  0  0  0  0  0  0  0  0
   21.1290   36.7920   69.5350 C   0  0  1  0  0  3  0  0  0  0  0  0
   20.1820   37.2260   70.5980 C   0  0  0  0  0  2  0  0  0  0  0  0
   21.6880   35.4390   69.7570 C   0  0  0  0  0  0  0  0  0  0  0  0
   21.5360   34.8860   70.8690 O   0  0  0  0  0  0  0  0  0  0  0  0
   22.3790   34.8180   68.6880 N   0  0  0  0  0  0  0  0  0  0  0  0
   22.2550   35.2260   67.3080 C   0  0  1  0  0  3  0  0  0  0  0  0
   21.1490   36.2180   67.1760 C   0  0  0  0  0  0  0  0  0  0  0  0
   20.8250   36.6550   66.0130 O   0  0  0  0  0  0  0  0  0  0  0  0
   23.0120   34.0170   68.9490 H   0  0  0  0  0  0  0  0  0  0  0  0
   18.2180   35.9000   70.3530 N   0  0  0  0  0  0  0  0  0  0  0  0
   16.8720   35.8510   70.7260 C   0  0  0  0  0  0  0  0  0  0  0  0
   16.1520   36.9060   70.7160 O   0  0  0  0  0  0  0  0  0  0  0  0
   18.7970   35.0440   70.3620 H   0  0  0  0  0  0  0  0  0  0  0  0
   16.1920   34.6190   71.1490 C   0  0  0  0  0  0  0  0  0  0  0  0
   15.0750   34.1440   70.4940 C   0  0  0  0  0  3  0  0  0  0  0  0
   14.4360   32.9870   70.8900 C   0  0  0  0  0  3  0  0  0  0  0  0
   14.8800   32.2430   71.9650 C   0  0  0  0  0  0  0  0  0  0  0  0
   14.0320   30.6450   72.5460 Br  0  0  0  0  0  0  0  0  0  0  0  0
   16.0050   32.7230   72.6240 C   0  0  0  0  0  3  0  0  0  0  0  0
   16.6340   33.8770   72.2200 C   0  0  0  0  0  3  0  0  0  0  0  0
   23.5650   35.7500   66.7700 C   0  0  0  0  0  2  0  0  0  0  0  0
   24.7210   34.9800   67.3100 C   0  0  0  0  0  0  0  0  0  0  0  0
   25.5250   35.5210   68.3150 C   0  0  0  0  0  3  0  0  0  0  0  0
   26.5790   34.7650   68.7760 C   0  0  0  0  0  3  0  0  0  0  0  0
   26.8730   33.5020   68.2900 C   0  0  0  0  0  3  0  0  0  0  0  0
   26.0530   33.0120   67.3010 C   0  0  0  0  0  3  0  0  0  0  0  0
   24.9840   33.7220   66.7990 C   0  0  0  0  0  3  0  0  0  0  0  0
  1 13  1  6  0  0  0
  1  5  1  0  0  0  0
  2  1  1  0  0  0  0
  3  2  1  0  0  0  0
  3  4  1  0  0  0  0
  4  6  1  0  0  0  0
  4  5  1  1  0  0  0
  6  7  2  0  0  0  0
  8 12  1  0  0  0  0
  8  6  1  0  0  0  0
  9 24  1  1  0  0  0
  9  8  1  0  0  0  0
 10  9  1  0  0  0  0
 10  3  1  0  0  0  0
 11 10  2  0  0  0  0
 13 16  1  0  0  0  0
 13 14  1  0  0  0  0
 14 17  1  0  0  0  0
 15 14  2  0  0  0  0
 17 23  1  0  0  0  0
 18 19  1  0  0  0  0
 18 17  2  0  0  0  0
 19 20  2  0  0  0  0
 20 21  1  0  0  0  0
 20 22  1  0  0  0  0
 23 22  2  0  0  0  0
 24 25  1  0  0  0  0
 25 26  1  0  0  0  0
 26 27  2  0  0  0  0
 28 27  1  0  0  0  0
 29 28  2  0  0  0  0
 30 29  1  0  0  0  0
 30 25  2  0  0  0  0
M  END
>  <Pose>
1

>  <Score>
-8.490

$$$$
