/Users/jonathanwahrer/Desktop/Msc/3_Semester/Drug_Design_Praktikum/waehrer_HTS_screening/HTS_experiment/out/docking_results/vina_output/4x21/0247_docked.pdbqt
 OpenBabel03212201283D

 23 26  0  0  1  0  0  0  0  0999 V2000
   16.2490   35.4830   70.6850 N   0  0  0  0  0  0  0  0  0  0  0  0
   14.9220   35.9890   70.5950 C   0  0  0  0  0  0  0  0  0  0  0  0
   14.6090   36.8940   69.7490 O   0  0  0  0  0  0  0  0  0  0  0  0
   14.0400   35.3210   71.5870 C   0  0  2  0  0  3  0  0  0  0  0  0
   14.9560   34.2540   72.1550 C   0  0  1  0  0  3  0  0  0  0  0  0
   14.5040   33.0460   71.3640 C   0  0  1  0  0  3  0  0  0  0  0  0
   12.9900   33.1990   71.6230 C   0  0  0  0  0  2  0  0  0  0  0  0
   12.9330   34.5630   70.9110 C   0  0  2  0  0  3  0  0  0  0  0  0
   13.4870   34.1200   69.5830 C   0  0  0  0  0  2  0  0  0  0  0  0
   14.5040   33.3280   69.9020 C   0  0  0  0  0  2  0  0  0  0  0  0
   16.3360   34.6550   71.8270 C   0  0  0  0  0  0  0  0  0  0  0  0
   17.3630   34.3140   72.4540 O   0  0  0  0  0  0  0  0  0  0  0  0
   17.3550   35.7160   69.8270 N   0  0  0  0  0  0  0  0  0  0  0  0
   17.9410   36.9940   69.7110 C   0  0  0  0  0  0  0  0  0  0  0  0
   17.5060   37.9920   70.3730 O   0  0  0  0  0  0  0  0  0  0  0  0
   17.7350   34.9200   69.2830 H   0  0  0  0  0  0  0  0  0  0  0  0
   19.0640   37.2120   68.8310 C   0  0  0  0  0  0  0  0  0  0  0  0
   20.3520   37.0200   69.3220 C   0  0  0  0  0  3  0  0  0  0  0  0
   21.4560   37.2270   68.5200 C   0  0  0  0  0  3  0  0  0  0  0  0
   21.3060   37.6270   67.2240 C   0  0  0  0  0  0  0  0  0  0  0  0
   22.8520   37.9110   66.1350 Br  0  0  0  0  0  0  0  0  0  0  0  0
   20.0220   37.8230   66.7170 C   0  0  0  0  0  3  0  0  0  0  0  0
   18.9320   37.6140   67.5220 C   0  0  0  0  0  3  0  0  0  0  0  0
  1 11  1  0  0  0  0
  2  1  1  0  0  0  0
  3  2  2  0  0  0  0
  4  2  1  6  0  0  0
  4  5  1  0  0  0  0
  5 11  1  6  0  0  0
  6 10  1  6  0  0  0
  6  7  1  0  0  0  0
  6  5  1  0  0  0  0
  8  9  1  6  0  0  0
  8  4  1  0  0  0  0
  8  7  1  0  0  0  0
  9 10  1  0  0  0  0
 11 12  2  0  0  0  0
 13  1  1  0  0  0  0
 14 13  1  0  0  0  0
 14 15  2  0  0  0  0
 16 13  1  0  0  0  0
 17 18  1  0  0  0  0
 17 14  1  0  0  0  0
 19 18  2  0  0  0  0
 20 19  1  0  0  0  0
 21 20  1  0  0  0  0
 22 20  2  0  0  0  0
 22 23  1  0  0  0  0
 23 17  2  0  0  0  0
M  END
>  <Pose>
1

>  <Score>
-8.387

$$$$
