MODEL 1
REMARK VINA RESULT:    -8.387      0.000      0.000
REMARK INTER + INTRA:          -9.606
REMARK INTER:                  -9.367
REMARK INTRA:                  -0.238
REMARK UNBOUND:                -0.238
REMARK  2 active torsions:
REMARK  status: ('A' for Active; 'I' for Inactive)
REMARK    1  A    between atoms: C_5  and  C_8 
REMARK       I    between atoms: C_8  and  N_10 
REMARK    2  A    between atoms: N_10  and  N_11 
ROOT
ATOM      1  N   UNK d   1      16.249  35.483  70.685  0.00  0.00    -0.187 N 
ATOM      2  C   UNK d   1      14.922  35.989  70.595  0.00  0.00     0.251 C 
ATOM      3  O   UNK d   1      14.609  36.894  69.749  0.00  0.00    -0.271 OA
ATOM      4  C   UNK d   1      14.040  35.321  71.587  0.00  0.00     0.101 C 
ATOM      5  C   UNK d   1      14.956  34.254  72.155  0.00  0.00     0.101 C 
ATOM      6  C   UNK d   1      14.504  33.046  71.364  0.00  0.00     0.022 C 
ATOM      7  C   UNK d   1      12.990  33.199  71.623  0.00  0.00     0.018 C 
ATOM      8  C   UNK d   1      12.933  34.563  70.911  0.00  0.00     0.022 C 
ATOM      9  C   UNK d   1      13.487  34.120  69.583  0.00  0.00    -0.025 C 
ATOM     10  C   UNK d   1      14.504  33.328  69.902  0.00  0.00    -0.025 C 
ATOM     11  C   UNK d   1      16.336  34.655  71.827  0.00  0.00     0.251 C 
ATOM     12  O   UNK d   1      17.363  34.314  72.454  0.00  0.00    -0.271 OA
ENDROOT
BRANCH   1  13
ATOM     13  N   UNK d   1      17.355  35.716  69.827  0.00  0.00    -0.254 N 
ATOM     14  C   UNK d   1      17.941  36.994  69.711  0.00  0.00     0.270 C 
ATOM     15  O   UNK d   1      17.506  37.992  70.373  0.00  0.00    -0.266 OA
ATOM     16  H   UNK d   1      17.735  34.920  69.283  0.00  0.00     0.191 HD
BRANCH  14  17
ATOM     17  C   UNK d   1      19.064  37.212  68.831  0.00  0.00     0.033 A 
ATOM     18  C   UNK d   1      20.352  37.020  69.322  0.00  0.00     0.018 A 
ATOM     19  C   UNK d   1      21.456  37.227  68.520  0.00  0.00     0.020 A 
ATOM     20  C   UNK d   1      21.306  37.627  67.224  0.00  0.00     0.011 A 
ATOM     21 Br   UNK d   1      22.852  37.911  66.135  0.00  0.00    -0.051 Br
ATOM     22  C   UNK d   1      20.022  37.823  66.717  0.00  0.00     0.020 A 
ATOM     23  C   UNK d   1      18.932  37.614  67.522  0.00  0.00     0.018 A 
ENDBRANCH  14  17
ENDBRANCH   1  13
TORSDOF 2
ENDMDL
