MODEL 1
REMARK VINA RESULT:    -8.229      0.000      0.000
REMARK INTER + INTRA:         -11.420
REMARK INTER:                 -11.116
REMARK INTRA:                  -0.304
REMARK UNBOUND:                -0.304
REMARK  6 active torsions:
REMARK  status: ('A' for Active; 'I' for Inactive)
REMARK    1  A    between atoms: C_5  and  C_8 
REMARK    2  A    between atoms: C_10  and  C_24 
REMARK    3  A    between atoms: N_11  and  C_16 
REMARK    4  A    between atoms: C_16  and  C_17 
REMARK    5  A    between atoms: C_17  and  N_18 
REMARK    6  A    between atoms: C_26  and  N_30 
ROOT
ATOM      1  C   UNK d   1      20.521  34.465  70.461  0.00  0.00     0.130 C 
ATOM      2  C   UNK d   1      20.407  35.576  69.782  0.00  0.00     0.062 C 
ATOM      3  C   UNK d   1      21.490  36.290  69.015  0.00  0.00     0.161 C 
ATOM      4  N   UNK d   1      20.785  36.890  67.935  0.00  0.00    -0.331 N 
ATOM      5  C   UNK d   1      19.443  37.165  68.403  0.00  0.00     0.295 C 
ATOM      6  O   UNK d   1      18.615  37.970  67.914  0.00  0.00    -0.264 OA
ATOM      7  C   UNK d   1      19.193  36.334  69.576  0.00  0.00     0.250 C 
ATOM      8  O   UNK d   1      18.107  36.312  70.248  0.00  0.00    -0.282 OA
ATOM      9  O   UNK d   1      21.783  33.833  70.495  0.00  0.00    -0.190 OA
ENDROOT
BRANCH   1  10
ATOM     10  C   UNK d   1      19.384  33.892  71.163  0.00  0.00     0.001 A 
ATOM     11  C   UNK d   1      18.647  32.948  70.449  0.00  0.00     0.015 A 
ATOM     12  C   UNK d   1      17.585  32.309  71.024  0.00  0.00     0.020 A 
ATOM     13  C   UNK d   1      17.252  32.614  72.324  0.00  0.00     0.011 A 
ATOM     14 Br   UNK d   1      15.751  31.697  73.101  0.00  0.00    -0.051 Br
ATOM     15  C   UNK d   1      17.977  33.546  73.036  0.00  0.00     0.020 A 
ATOM     16  C   UNK d   1      19.047  34.183  72.444  0.00  0.00     0.015 A 
ENDBRANCH   1  10
BRANCH   3  17
ATOM     17  C   UNK d   1      22.596  35.396  68.699  0.00  0.00    -0.028 A 
ATOM     18  C   UNK d   1      23.845  35.434  69.260  0.00  0.00     0.045 A 
ATOM     19  C   UNK d   1      24.832  34.548  68.914  0.00  0.00     0.103 A 
ATOM     20  C   UNK d   1      24.575  33.587  67.974  0.00  0.00     0.036 A 
ATOM     21  C   UNK d   1      23.326  33.498  67.369  0.00  0.00     0.003 A 
ATOM     22  C   UNK d   1      22.361  34.399  67.739  0.00  0.00     0.010 A 
BRANCH  19  23
ATOM     23  N   UNK d   1      26.095  34.645  69.532  0.00  0.00    -0.116 N 
ATOM     24  O   UNK d   1      26.830  35.657  69.402  0.00  0.00    -0.532 OA
ATOM     25  O   UNK d   1      26.531  33.591  70.302  0.00  0.00    -0.532 OA
ENDBRANCH  19  23
ENDBRANCH   3  17
BRANCH   4  26
ATOM     26  C   UNK d   1      21.163  37.282  66.590  0.00  0.00     0.155 C 
BRANCH  26  27
ATOM     27  C   UNK d   1      22.053  38.479  66.494  0.00  0.00     0.255 C 
BRANCH  27  28
ATOM     28  N   UNK d   1      23.134  38.303  65.537  0.00  0.00    -0.066 N 
ATOM     29  C   UNK d   1      24.123  37.345  66.042  0.00  0.00     0.261 C 
ATOM     30  C   UNK d   1      25.103  37.141  64.878  0.00  0.00     0.195 C 
ATOM     31  O   UNK d   1      25.721  38.310  64.505  0.00  0.00    -0.388 OA
ATOM     32  C   UNK d   1      24.848  39.354  64.240  0.00  0.00     0.195 C 
ATOM     33  C   UNK d   1      23.839  39.545  65.346  0.00  0.00     0.261 C 
ATOM     34  H   UNK d   1      22.838  37.943  64.627  0.00  0.00     0.280 HD
ENDBRANCH  27  28
ENDBRANCH  26  27
ENDBRANCH   4  26
TORSDOF 6
ENDMDL
