MODEL 1
REMARK VINA RESULT:    -8.525      0.000      0.000
REMARK INTER + INTRA:         -13.430
REMARK INTER:                 -12.013
REMARK INTRA:                  -1.417
REMARK UNBOUND:                -1.417
REMARK  7 active torsions:
REMARK  status: ('A' for Active; 'I' for Inactive)
REMARK    1  A    between atoms: C_5  and  C_8 
REMARK    2  A    between atoms: C_10  and  C_24 
REMARK    3  A    between atoms: N_11  and  C_16 
REMARK    4  A    between atoms: C_16  and  C_17 
REMARK    5  A    between atoms: C_17  and  N_18 
REMARK    6  A    between atoms: C_27  and  C_30 
REMARK    7  A    between atoms: C_30  and  O_32 
ROOT
ATOM      1  C   UNK d   1      19.448  35.901  70.429  0.00  0.00     0.130 C 
ATOM      2  C   UNK d   1      19.471  34.645  70.815  0.00  0.00     0.062 A 
ATOM      3  C   UNK d   1      18.653  34.048  71.932  0.00  0.00     0.161 A 
ATOM      4  N   UNK d   1      19.066  32.692  72.042  0.00  0.00    -0.331 N 
ATOM      5  C   UNK d   1      19.987  32.341  70.988  0.00  0.00     0.295 A 
ATOM      6  O   UNK d   1      20.494  31.239  70.738  0.00  0.00    -0.264 OA
ATOM      7  C   UNK d   1      20.239  33.578  70.214  0.00  0.00     0.250 A 
ATOM      8  O   UNK d   1      21.002  33.658  69.198  0.00  0.00    -0.282 OA
ATOM      9  O   UNK d   1      18.563  36.744  71.141  0.00  0.00    -0.190 OA
ENDROOT
BRANCH   3  10
ATOM     10  C   UNK d   1      17.239  34.156  71.458  0.00  0.00    -0.030 A 
ATOM     11  C   UNK d   1      16.300  34.603  72.333  0.00  0.00     0.011 A 
ATOM     12  C   UNK d   1      14.979  34.717  71.950  0.00  0.00     0.018 A 
ATOM     13  C   UNK d   1      14.606  34.379  70.678  0.00  0.00     0.039 A 
ATOM     14  C   UNK d   1      15.555  33.929  69.797  0.00  0.00     0.018 A 
ATOM     15  C   UNK d   1      16.883  33.813  70.175  0.00  0.00     0.011 A 
BRANCH  13  16
ATOM     16  C   UNK d   1      13.206  34.492  70.260  0.00  0.00     0.292 C 
ATOM     17  O   UNK d   1      12.345  33.733  70.772  0.00  0.00    -0.259 OA
BRANCH  16  18
ATOM     18  O   UNK d   1      12.776  35.394  69.326  0.00  0.00    -0.323 OA
ATOM     19  C   UNK d   1      13.252  36.720  69.261  0.00  0.00     0.213 C 
ENDBRANCH  16  18
ENDBRANCH  13  16
ENDBRANCH   3  10
BRANCH   4  20
ATOM     20  C   UNK d   1      18.668  31.722  73.027  0.00  0.00     0.155 C 
BRANCH  20  21
ATOM     21  C   UNK d   1      17.872  30.575  72.506  0.00  0.00     0.255 C 
BRANCH  21  22
ATOM     22  N   UNK d   1      16.450  30.745  72.548  0.00  0.00    -0.066 N 
ATOM     23  C   UNK d   1      15.788  29.927  73.543  0.00  0.00     0.261 C 
ATOM     24  C   UNK d   1      14.339  30.367  73.589  0.00  0.00     0.195 C 
ATOM     25  O   UNK d   1      13.781  29.977  72.348  0.00  0.00    -0.388 OA
ATOM     26  C   UNK d   1      14.375  30.804  71.391  0.00  0.00     0.195 C 
ATOM     27  C   UNK d   1      15.829  30.382  71.258  0.00  0.00     0.261 C 
ATOM     28  H   UNK d   1      16.176  31.757  72.661  0.00  0.00     0.280 HD
ENDBRANCH  21  22
ENDBRANCH  20  21
ENDBRANCH   4  20
BRANCH   1  29
ATOM     29  C   UNK d   1      20.263  36.431  69.346  0.00  0.00     0.001 A 
ATOM     30  C   UNK d   1      21.609  36.751  69.567  0.00  0.00     0.015 A 
ATOM     31  C   UNK d   1      22.439  37.223  68.573  0.00  0.00     0.020 A 
ATOM     32  C   UNK d   1      21.965  37.403  67.291  0.00  0.00     0.011 A 
ATOM     33 Br   UNK d   1      23.136  38.063  65.930  0.00  0.00    -0.051 Br
ATOM     34  C   UNK d   1      20.647  37.096  67.048  0.00  0.00     0.020 A 
ATOM     35  C   UNK d   1      19.808  36.616  68.062  0.00  0.00     0.015 A 
ENDBRANCH   1  29
TORSDOF 7
ENDMDL
