/Users/jonathanwahrer/Desktop/Msc/3_Semester/Drug_Design_Praktikum/waehrer_HTS_screening/HTS_experiment/out/docking_results/vina_output/4x21/0265_docked.pdbqt
 OpenBabel03212201293D

 35 38  0  0  1  0  0  0  0  0999 V2000
   19.4480   35.9010   70.4290 C   0  0  0  0  0  0  0  0  0  0  0  0
   19.4710   34.6450   70.8150 C   0  0  0  0  0  0  0  0  0  0  0  0
   18.6530   34.0480   71.9320 C   0  0  2  0  0  3  0  0  0  0  0  0
   19.0660   32.6920   72.0420 N   0  0  0  0  0  0  0  0  0  0  0  0
   19.9870   32.3410   70.9880 C   0  0  0  0  0  0  0  0  0  0  0  0
   20.4940   31.2390   70.7380 O   0  0  0  0  0  0  0  0  0  0  0  0
   20.2390   33.5780   70.2140 C   0  0  0  0  0  0  0  0  0  0  0  0
   21.0020   33.6580   69.1980 O   0  0  0  0  0  0  0  0  0  0  0  0
   18.5630   36.7440   71.1410 O   0  0  0  0  0  1  0  0  0  0  0  0
   17.2390   34.1560   71.4580 C   0  0  0  0  0  0  0  0  0  0  0  0
   16.3000   34.6030   72.3330 C   0  0  0  0  0  3  0  0  0  0  0  0
   14.9790   34.7170   71.9500 C   0  0  0  0  0  3  0  0  0  0  0  0
   14.6060   34.3790   70.6780 C   0  0  0  0  0  0  0  0  0  0  0  0
   15.5550   33.9290   69.7970 C   0  0  0  0  0  3  0  0  0  0  0  0
   16.8830   33.8130   70.1750 C   0  0  0  0  0  3  0  0  0  0  0  0
   13.2060   34.4920   70.2600 C   0  0  0  0  0  0  0  0  0  0  0  0
   12.3450   33.7330   70.7720 O   0  0  0  0  0  0  0  0  0  0  0  0
   12.7760   35.3940   69.3260 O   0  0  0  0  0  0  0  0  0  0  0  0
   13.2520   36.7200   69.2610 C   0  0  0  0  0  1  0  0  0  0  0  0
   18.6680   31.7220   73.0270 C   0  0  0  0  0  2  0  0  0  0  0  0
   17.8720   30.5750   72.5060 C   0  0  0  0  0  2  0  0  0  0  0  0
   16.4500   30.7450   72.5480 N   0  0  0  0  0  4  0  0  0  0  0  0
   15.7880   29.9270   73.5430 C   0  0  0  0  0  2  0  0  0  0  0  0
   14.3390   30.3670   73.5890 C   0  0  0  0  0  2  0  0  0  0  0  0
   13.7810   29.9770   72.3480 O   0  0  0  0  0  0  0  0  0  0  0  0
   14.3750   30.8040   71.3910 C   0  0  0  0  0  2  0  0  0  0  0  0
   15.8290   30.3820   71.2580 C   0  0  0  0  0  2  0  0  0  0  0  0
   16.1760   31.7570   72.6610 H   0  0  0  0  0  0  0  0  0  0  0  0
   20.2630   36.4310   69.3460 C   0  0  0  0  0  0  0  0  0  0  0  0
   21.6090   36.7510   69.5670 C   0  0  0  0  0  3  0  0  0  0  0  0
   22.4390   37.2230   68.5730 C   0  0  0  0  0  3  0  0  0  0  0  0
   21.9650   37.4030   67.2910 C   0  0  0  0  0  0  0  0  0  0  0  0
   23.1360   38.0630   65.9300 Br  0  0  0  0  0  0  0  0  0  0  0  0
   20.6470   37.0960   67.0480 C   0  0  0  0  0  3  0  0  0  0  0  0
   19.8080   36.6160   68.0620 C   0  0  0  0  0  3  0  0  0  0  0  0
  1  2  2  0  0  0  0
  1  9  1  0  0  0  0
  2  3  1  0  0  0  0
  3 10  1  6  0  0  0
  3  4  1  0  0  0  0
  4 20  1  0  0  0  0
  5  4  1  0  0  0  0
  6  5  2  0  0  0  0
  7  2  1  0  0  0  0
  7  5  1  0  0  0  0
  8  7  2  0  0  0  0
 10 11  1  0  0  0  0
 12 11  2  0  0  0  0
 13 12  1  0  0  0  0
 14 15  1  0  0  0  0
 14 13  2  0  0  0  0
 15 10  2  0  0  0  0
 16 13  1  0  0  0  0
 16 17  2  0  0  0  0
 18 16  1  0  0  0  0
 19 18  1  0  0  0  0
 21 22  1  0  0  0  0
 21 20  1  0  0  0  0
 22 28  1  0  0  0  0
 22 23  1  0  0  0  0
 23 24  1  0  0  0  0
 25 24  1  0  0  0  0
 26 25  1  0  0  0  0
 27 26  1  0  0  0  0
 27 22  1  0  0  0  0
 29 30  1  0  0  0  0
 29  1  1  0  0  0  0
 31 30  2  0  0  0  0
 32 31  1  0  0  0  0
 33 32  1  0  0  0  0
 34 32  2  0  0  0  0
 34 35  1  0  0  0  0
 35 29  2  0  0  0  0
M  END
>  <Pose>
1

>  <Score>
-8.525

$$$$
