MODEL 1
REMARK VINA RESULT:    -8.077      0.000      0.000
REMARK INTER + INTRA:         -11.380
REMARK INTER:                 -10.437
REMARK INTRA:                  -0.942
REMARK UNBOUND:                -0.942
REMARK  5 active torsions:
REMARK  status: ('A' for Active; 'I' for Inactive)
REMARK    1  A    between atoms: C_5  and  C_8 
REMARK    2  A    between atoms: C_10  and  C_24 
REMARK    3  A    between atoms: N_11  and  C_16 
REMARK    4  A    between atoms: C_16  and  C_17 
REMARK    5  A    between atoms: C_17  and  N_18 
ROOT
ATOM      1  C   UNK d   1      18.083  32.968  72.641  0.00  0.00     0.130 C 
ATOM      2  C   UNK d   1      18.709  33.525  71.622  0.00  0.00     0.062 C 
ATOM      3  C   UNK d   1      19.119  34.942  71.409  0.00  0.00     0.161 C 
ATOM      4  N   UNK d   1      20.374  34.810  70.650  0.00  0.00    -0.331 N 
ATOM      5  C   UNK d   1      20.177  33.682  69.820  0.00  0.00     0.295 C 
ATOM      6  O   UNK d   1      20.800  33.457  68.774  0.00  0.00    -0.264 OA
ATOM      7  C   UNK d   1      19.132  32.847  70.399  0.00  0.00     0.250 C 
ATOM      8  O   UNK d   1      18.637  31.763  70.000  0.00  0.00    -0.282 OA
ATOM      9  O   UNK d   1      17.722  33.805  73.715  0.00  0.00    -0.190 OA
ENDROOT
BRANCH   1  10
ATOM     10  C   UNK d   1      17.740  31.559  72.736  0.00  0.00     0.001 A 
ATOM     11  C   UNK d   1      16.508  31.090  72.339  0.00  0.00     0.015 A 
ATOM     12  C   UNK d   1      16.165  29.752  72.454  0.00  0.00     0.020 A 
ATOM     13  C   UNK d   1      17.053  28.838  72.974  0.00  0.00     0.011 A 
ATOM     14 Br   UNK d   1      16.589  26.984  73.138  0.00  0.00    -0.051 Br
ATOM     15  C   UNK d   1      18.286  29.292  73.376  0.00  0.00     0.020 A 
ATOM     16  C   UNK d   1      18.625  30.644  73.257  0.00  0.00     0.015 A 
ENDBRANCH   1  10
BRANCH   3  17
ATOM     17  C   UNK d   1      18.118  35.760  70.721  0.00  0.00    -0.031 A 
ATOM     18  C   UNK d   1      16.752  35.475  70.839  0.00  0.00     0.009 A 
ATOM     19  C   UNK d   1      15.774  36.195  70.227  0.00  0.00     0.001 A 
ATOM     20  C   UNK d   1      16.110  37.278  69.435  0.00  0.00     0.000 A 
ATOM     21  C   UNK d   1      17.434  37.581  69.300  0.00  0.00     0.001 A 
ATOM     22  C   UNK d   1      18.439  36.840  69.929  0.00  0.00     0.009 A 
ENDBRANCH   3  17
BRANCH   4  23
ATOM     23  C   UNK d   1      21.464  35.701  70.814  0.00  0.00     0.155 C 
BRANCH  23  24
ATOM     24  C   UNK d   1      22.009  36.382  69.626  0.00  0.00     0.255 C 
BRANCH  24  25
ATOM     25  N   UNK d   1      22.808  35.587  68.746  0.00  0.00    -0.066 N 
ATOM     26  C   UNK d   1      23.899  34.901  69.345  0.00  0.00     0.261 C 
ATOM     27  C   UNK d   1      25.187  35.594  68.955  0.00  0.00     0.195 C 
ATOM     28  O   UNK d   1      25.063  36.981  68.957  0.00  0.00    -0.388 OA
ATOM     29  C   UNK d   1      24.219  37.438  67.962  0.00  0.00     0.195 C 
ATOM     30  C   UNK d   1      23.276  36.317  67.588  0.00  0.00     0.261 C 
ATOM     31  H   UNK d   1      22.142  34.847  68.365  0.00  0.00     0.280 HD
ENDBRANCH  24  25
ENDBRANCH  23  24
ENDBRANCH   4  23
TORSDOF 5
ENDMDL
