/Users/jonathanwahrer/Desktop/Msc/3_Semester/Drug_Design_Praktikum/waehrer_HTS_screening/HTS_experiment/out/docking_results/vina_output/4x21/0278_docked.pdbqt
 OpenBabel03212201303D

 30 33  0  0  1  0  0  0  0  0999 V2000
   16.1860   33.9100   71.0080 N   0  0  0  0  0  0  0  0  0  0  0  0
   15.0550   34.4290   70.4760 C   0  0  0  0  0  0  0  0  0  0  0  0
   15.3170   35.7700   70.2440 C   0  0  0  0  0  0  0  0  0  0  0  0
   14.3190   36.5580   69.7030 C   0  0  0  0  0  3  0  0  0  0  0  0
   13.0580   36.0390   69.3850 C   0  0  0  0  0  3  0  0  0  0  0  0
   12.8430   34.6910   69.6350 C   0  0  0  0  0  3  0  0  0  0  0  0
   13.8160   33.8850   70.1720 C   0  0  0  0  0  3  0  0  0  0  0  0
   16.5950   36.0680   70.6270 N   0  0  0  0  0  0  0  0  0  0  0  0
   17.1000   34.8950   71.0950 C   0  0  1  0  0  3  0  0  0  0  0  0
   16.2880   32.5280   71.3770 C   0  0  0  0  0  2  0  0  0  0  0  0
   16.0980   32.2870   72.8440 C   0  0  1  0  0  3  0  0  0  0  0  0
   15.8890   30.8160   73.1200 C   0  0  0  0  0  0  0  0  0  0  0  0
   16.7520   29.8860   72.5960 C   0  0  0  0  0  3  0  0  0  0  0  0
   16.5670   28.5530   72.8480 C   0  0  0  0  0  3  0  0  0  0  0  0
   15.5050   28.1640   73.6330 C   0  0  0  0  0  0  0  0  0  0  0  0
   15.2380   26.3020   73.9910 Br  0  0  0  0  0  0  0  0  0  0  0  0
   14.6120   29.0530   74.1830 C   0  0  0  0  0  3  0  0  0  0  0  0
   14.8400   30.3900   73.9000 C   0  0  0  0  0  3  0  0  0  0  0  0
   17.1580   32.6990   73.6280 O   0  0  0  0  0  0  0  0  0  0  0  0
   17.9650   32.1610   73.5130 H   0  0  0  0  0  0  0  0  0  0  0  0
   18.3000   34.7760   71.5550 N   0  0  0  0  0  0  0  0  0  0  0  0
   18.6580   33.8070   71.8100 H   0  0  0  0  0  0  0  0  0  0  0  0
   18.9700   35.5310   71.7140 H   0  0  0  0  0  0  0  0  0  0  0  0
   17.1870   37.3660   70.5060 C   0  0  0  0  0  2  0  0  0  0  0  0
   17.8960   37.5850   69.1990 C   0  0  0  0  0  0  0  0  0  0  0  0
   19.1760   37.0820   69.0370 C   0  0  0  0  0  3  0  0  0  0  0  0
   19.8910   37.2400   67.8660 C   0  0  0  0  0  3  0  0  0  0  0  0
   19.2850   37.9260   66.8420 C   0  0  0  0  0  3  0  0  0  0  0  0
   18.0200   38.4350   66.9760 C   0  0  0  0  0  3  0  0  0  0  0  0
   17.3380   38.2600   68.1500 C   0  0  0  0  0  3  0  0  0  0  0  0
  1  9  1  0  0  0  0
  1 10  1  0  0  0  0
  2  1  1  0  0  0  0
  3  2  1  0  0  0  0
  3  8  1  0  0  0  0
  4  3  2  0  0  0  0
  5  6  2  0  0  0  0
  5  4  1  0  0  0  0
  6  7  1  0  0  0  0
  7  2  2  0  0  0  0
  8  9  1  0  0  0  0
  9 21  1  1  0  0  0
 11 10  1  6  0  0  0
 11 12  1  0  0  0  0
 11 19  1  0  0  0  0
 12 18  1  0  0  0  0
 13 14  1  0  0  0  0
 13 12  2  0  0  0  0
 14 15  2  0  0  0  0
 15 16  1  0  0  0  0
 15 17  1  0  0  0  0
 18 17  2  0  0  0  0
 20 19  1  0  0  0  0
 21 23  1  0  0  0  0
 21 22  1  0  0  0  0
 24  8  1  0  0  0  0
 25 24  1  0  0  0  0
 26 25  1  0  0  0  0
 27 26  2  0  0  0  0
 28 29  2  0  0  0  0
 28 27  1  0  0  0  0
 29 30  1  0  0  0  0
 30 25  2  0  0  0  0
M  END
>  <Pose>
1

>  <Score>
-9.059

$$$$
