MODEL 1
REMARK VINA RESULT:    -9.059      0.000      0.000
REMARK INTER + INTRA:         -13.389
REMARK INTER:                 -12.237
REMARK INTRA:                  -1.152
REMARK UNBOUND:                -1.152
REMARK  7 active torsions:
REMARK  status: ('A' for Active; 'I' for Inactive)
REMARK    1  A    between atoms: C_5  and  C_8 
REMARK    2  A    between atoms: C_8  and  O_9 
REMARK    3  A    between atoms: C_8  and  C_10 
REMARK    4  A    between atoms: C_10  and  N_11 
REMARK    5  A    between atoms: N_18  and  C_21 
REMARK    6  A    between atoms: C_19  and  N_20 
REMARK    7  A    between atoms: C_21  and  C_22 
ROOT
ATOM      1  N   UNK d   1      16.186  33.910  71.008  0.00  0.00    -0.178 N 
ATOM      2  C   UNK d   1      15.055  34.429  70.476  0.00  0.00     0.079 A 
ATOM      3  C   UNK d   1      15.317  35.770  70.244  0.00  0.00     0.079 A 
ATOM      4  C   UNK d   1      14.319  36.558  69.703  0.00  0.00     0.032 A 
ATOM      5  C   UNK d   1      13.058  36.039  69.385  0.00  0.00     0.002 A 
ATOM      6  C   UNK d   1      12.843  34.691  69.635  0.00  0.00     0.002 A 
ATOM      7  C   UNK d   1      13.816  33.885  70.172  0.00  0.00     0.032 A 
ATOM      8  N   UNK d   1      16.595  36.068  70.627  0.00  0.00    -0.177 N 
ATOM      9  C   UNK d   1      17.100  34.895  71.095  0.00  0.00     0.681 A 
ENDROOT
BRANCH   1  10
ATOM     10  C   UNK d   1      16.288  32.528  71.377  0.00  0.00     0.184 C 
BRANCH  10  11
ATOM     11  C   UNK d   1      16.098  32.287  72.844  0.00  0.00     0.170 C 
BRANCH  11  12
ATOM     12  C   UNK d   1      15.889  30.816  73.120  0.00  0.00    -0.028 A 
ATOM     13  C   UNK d   1      16.752  29.886  72.596  0.00  0.00     0.011 A 
ATOM     14  C   UNK d   1      16.567  28.553  72.848  0.00  0.00     0.019 A 
ATOM     15  C   UNK d   1      15.505  28.164  73.633  0.00  0.00     0.011 A 
ATOM     16 Br   UNK d   1      15.238  26.302  73.991  0.00  0.00    -0.051 Br
ATOM     17  C   UNK d   1      14.612  29.053  74.183  0.00  0.00     0.019 A 
ATOM     18  C   UNK d   1      14.840  30.390  73.900  0.00  0.00     0.011 A 
ENDBRANCH  11  12
BRANCH  11  19
ATOM     19  O   UNK d   1      17.158  32.699  73.628  0.00  0.00    -0.389 OA
ATOM     20  H   UNK d   1      17.965  32.161  73.513  0.00  0.00     0.210 HD
ENDBRANCH  11  19
ENDBRANCH  10  11
ENDBRANCH   1  10
BRANCH   9  21
ATOM     21  N   UNK d   1      18.300  34.776  71.555  0.00  0.00    -0.234 N 
ATOM     22  H   UNK d   1      18.658  33.807  71.810  0.00  0.00     0.174 HD
ATOM     23  H   UNK d   1      18.970  35.531  71.714  0.00  0.00     0.174 HD
ENDBRANCH   9  21
BRANCH   8  24
ATOM     24  C   UNK d   1      17.187  37.366  70.506  0.00  0.00     0.186 C 
BRANCH  24  25
ATOM     25  C   UNK d   1      17.896  37.585  69.199  0.00  0.00    -0.039 A 
ATOM     26  C   UNK d   1      19.176  37.082  69.037  0.00  0.00     0.009 A 
ATOM     27  C   UNK d   1      19.891  37.240  67.866  0.00  0.00     0.001 A 
ATOM     28  C   UNK d   1      19.285  37.926  66.842  0.00  0.00     0.000 A 
ATOM     29  C   UNK d   1      18.020  38.435  66.976  0.00  0.00     0.001 A 
ATOM     30  C   UNK d   1      17.338  38.260  68.150  0.00  0.00     0.009 A 
ENDBRANCH  24  25
ENDBRANCH   8  24
TORSDOF 7
ENDMDL
