MODEL 1
REMARK VINA RESULT:    -8.393      0.000      0.000
REMARK INTER + INTRA:         -12.419
REMARK INTER:                 -11.338
REMARK INTRA:                  -1.081
REMARK UNBOUND:                -1.081
REMARK  6 active torsions:
REMARK  status: ('A' for Active; 'I' for Inactive)
REMARK    1  A    between atoms: C_5  and  C_8 
REMARK    2  A    between atoms: C_8  and  N_9 
REMARK    3  A    between atoms: N_12  and  C_15 
REMARK    4  A    between atoms: N_16  and  C_27 
REMARK    5  A    between atoms: C_27  and  C_28 
REMARK    6  A    between atoms: C_28  and  O_29 
ROOT
ATOM      1  C   UNK d   1      17.356  33.234  71.785  0.00  0.00     0.707 A 
ATOM      2  N   UNK d   1      16.485  32.305  72.215  0.00  0.00    -0.170 N 
ATOM      3  C   UNK d   1      15.225  32.714  71.938  0.00  0.00     0.166 A 
ATOM      4  C   UNK d   1      15.288  33.941  71.314  0.00  0.00     0.185 A 
ATOM      5  N   UNK d   1      16.586  34.232  71.235  0.00  0.00    -0.044 NA
ATOM      6  N   UNK d   1      14.149  34.553  70.938  0.00  0.00    -0.286 N 
ATOM      7  C   UNK d   1      12.947  34.003  71.152  0.00  0.00     0.330 A 
ATOM      8  O   UNK d   1      11.892  34.611  70.780  0.00  0.00    -0.246 OA
ATOM      9  N   UNK d   1      12.863  32.807  71.759  0.00  0.00    -0.273 N 
ATOM     10  C   UNK d   1      13.977  32.170  72.147  0.00  0.00     0.280 A 
ATOM     11  O   UNK d   1      13.896  31.053  72.714  0.00  0.00    -0.265 OA
ATOM     12  C   UNK d   1      14.256  35.855  70.271  0.00  0.00     0.163 C 
ATOM     13  H   UNK d   1      11.914  32.366  71.933  0.00  0.00     0.173 HD
ENDROOT
BRANCH   1  14
ATOM     14  N   UNK d   1      18.760  33.196  71.831  0.00  0.00    -0.213 N 
ATOM     15  C   UNK d   1      19.534  33.855  72.825  0.00  0.00     0.160 C 
ATOM     16  C   UNK d   1      20.408  34.879  72.108  0.00  0.00     0.137 C 
ATOM     17  N   UNK d   1      20.297  34.799  70.713  0.00  0.00    -0.405 N 
ATOM     18  C   UNK d   1      20.264  33.558  70.054  0.00  0.00     0.137 C 
ATOM     19  C   UNK d   1      19.494  32.475  70.820  0.00  0.00     0.160 C 
BRANCH  17  20
ATOM     20  C   UNK d   1      19.697  35.916  70.063  0.00  0.00     0.155 C 
BRANCH  20  21
ATOM     21  C   UNK d   1      20.523  36.529  69.006  0.00  0.00    -0.041 A 
ATOM     22  C   UNK d   1      21.867  36.680  69.240  0.00  0.00     0.010 A 
ATOM     23  C   UNK d   1      22.685  37.239  68.270  0.00  0.00     0.019 A 
ATOM     24  C   UNK d   1      22.165  37.652  67.060  0.00  0.00     0.011 A 
ATOM     25 Br   UNK d   1      23.303  38.423  65.717  0.00  0.00    -0.051 Br
ATOM     26  C   UNK d   1      20.815  37.492  66.847  0.00  0.00     0.019 A 
ATOM     27  C   UNK d   1      19.988  36.937  67.802  0.00  0.00     0.010 A 
ENDBRANCH  20  21
ENDBRANCH  17  20
ENDBRANCH   1  14
BRANCH   2  28
ATOM     28  C   UNK d   1      16.758  31.076  72.910  0.00  0.00     0.174 C 
BRANCH  28  29
ATOM     29  C   UNK d   1      17.045  29.935  71.959  0.00  0.00     0.187 C 
BRANCH  29  30
ATOM     30  O   UNK d   1      16.246  28.827  72.156  0.00  0.00    -0.394 OA
ATOM     31  C   UNK d   1      17.011  27.938  72.946  0.00  0.00     0.201 C 
ENDBRANCH  29  30
ENDBRANCH  28  29
ENDBRANCH   2  28
TORSDOF 6
ENDMDL
