MODEL 1
REMARK VINA RESULT:    -9.295      0.000      0.000
REMARK INTER + INTRA:         -11.813
REMARK INTER:                 -10.925
REMARK INTRA:                  -0.888
REMARK UNBOUND:                -0.888
REMARK  3 active torsions:
REMARK  status: ('A' for Active; 'I' for Inactive)
REMARK    1  A    between atoms: C_5  and  C_8 
REMARK    2  A    between atoms: C_16  and  C_17 
REMARK    3  A    between atoms: C_17  and  N_18 
ROOT
ATOM      1  C   UNK d   1      16.630  37.495  69.455  0.00  0.00     0.053 C 
ATOM      2  C   UNK d   1      15.904  36.473  69.924  0.00  0.00     0.127 A 
ATOM      3  O   UNK d   1      16.449  35.253  70.290  0.00  0.00    -0.305 OA
ATOM      4  C   UNK d   1      15.474  34.371  70.743  0.00  0.00     0.101 A 
ATOM      5  C   UNK d   1      14.270  35.004  70.678  0.00  0.00     0.051 A 
ATOM      6  C   UNK d   1      13.123  34.347  71.073  0.00  0.00     0.021 A 
ATOM      7  C   UNK d   1      13.252  33.059  71.522  0.00  0.00     0.041 A 
ATOM      8  C   UNK d   1      14.490  32.406  71.590  0.00  0.00     0.118 A 
ATOM      9  C   UNK d   1      15.642  33.041  71.200  0.00  0.00     0.039 A 
ATOM     10  O   UNK d   1      14.535  31.092  72.059  0.00  0.00    -0.191 OA
ATOM     11  C   UNK d   1      14.490  36.360  70.157  0.00  0.00     0.218 A 
ATOM     12  O   UNK d   1      13.643  37.265  69.945  0.00  0.00    -0.284 OA
ENDROOT
BRANCH   1  13
ATOM     13  C   UNK d   1      18.075  37.346  69.311  0.00  0.00    -0.033 A 
ATOM     14  C   UNK d   1      18.664  37.406  68.059  0.00  0.00     0.013 A 
ATOM     15  C   UNK d   1      20.028  37.265  67.888  0.00  0.00     0.020 A 
ATOM     16  C   UNK d   1      20.862  37.058  68.962  0.00  0.00     0.011 A 
ATOM     17 Br   UNK d   1      22.760  36.866  68.723  0.00  0.00    -0.051 Br
ATOM     18  C   UNK d   1      20.293  36.995  70.217  0.00  0.00     0.020 A 
ATOM     19  C   UNK d   1      18.913  37.138  70.384  0.00  0.00     0.013 A 
ENDBRANCH   1  13
BRANCH   9  20
ATOM     20  C   UNK d   1      17.002  32.490  71.212  0.00  0.00     0.279 C 
BRANCH  20  21
ATOM     21  N   UNK d   1      18.071  33.342  71.564  0.00  0.00    -0.063 N 
ATOM     22  C   UNK d   1      18.299  33.383  72.994  0.00  0.00     0.261 C 
ATOM     23  C   UNK d   1      19.223  32.246  73.391  0.00  0.00     0.195 C 
ATOM     24  O   UNK d   1      20.518  32.613  73.061  0.00  0.00    -0.388 OA
ATOM     25  C   UNK d   1      20.464  33.364  71.882  0.00  0.00     0.195 C 
ATOM     26  C   UNK d   1      19.339  32.857  70.993  0.00  0.00     0.261 C 
ATOM     27  H   UNK d   1      17.960  34.297  71.167  0.00  0.00     0.280 HD
ENDBRANCH  20  21
ENDBRANCH   9  20
TORSDOF 3
ENDMDL
