MODEL 1
REMARK VINA RESULT:    -8.472      0.000      0.000
REMARK INTER + INTRA:         -13.336
REMARK INTER:                 -11.939
REMARK INTRA:                  -1.396
REMARK UNBOUND:                -1.396
REMARK  8 active torsions:
REMARK  status: ('A' for Active; 'I' for Inactive)
REMARK    1  A    between atoms: C_5  and  C_8 
REMARK    2  A    between atoms: N_9  and  N_10 
REMARK       I    between atoms: N_10  and  C_11 
REMARK    3  A    between atoms: C_11  and  C_13 
REMARK    4  A    between atoms: C_13  and  N_14 
REMARK    5  A    between atoms: C_16  and  C_25 
REMARK    6  A    between atoms: C_18  and  C_19 
REMARK    7  A    between atoms: C_23  and  N_24 
REMARK    8  A    between atoms: C_29  and  N_30 
ROOT
ATOM      1  N   UNK d   1      21.570  34.830  68.802  0.00  0.00    -0.239 N 
ATOM      2  N   UNK d   1      20.502  35.642  69.070  0.00  0.00    -0.147 NA
ATOM      3  C   UNK d   1      20.273  36.420  68.004  0.00  0.00     0.206 A 
ATOM      4  N   UNK d   1      21.195  36.079  67.105  0.00  0.00    -0.203 NA
ATOM      5  C   UNK d   1      22.017  35.078  67.599  0.00  0.00     0.184 A 
ENDROOT
BRANCH   1   6
ATOM      6  C   UNK d   1      22.010  33.872  69.797  0.00  0.00     0.257 C 
BRANCH   6   7
ATOM      7  C   UNK d   1      20.866  33.355  70.593  0.00  0.00     0.257 C 
ATOM      8  N   UNK d   1      19.773  32.711  69.964  0.00  0.00    -0.246 N 
ATOM      9  H   UNK d   1      19.747  32.583  68.907  0.00  0.00     0.192 HD
ATOM     10  O   UNK d   1      20.863  33.488  71.837  0.00  0.00    -0.270 OA
BRANCH   8  11
ATOM     11  N   UNK d   1      18.729  32.243  70.731  0.00  0.00    -0.184 NA
ATOM     12  C   UNK d   1      17.540  32.703  70.731  0.00  0.00     0.150 C 
BRANCH  12  13
ATOM     13  C   UNK d   1      16.471  32.166  71.566  0.00  0.00    -0.017 A 
ATOM     14  C   UNK d   1      15.149  32.490  71.344  0.00  0.00     0.014 A 
ATOM     15  C   UNK d   1      14.152  31.969  72.149  0.00  0.00     0.020 A 
ATOM     16  C   UNK d   1      14.432  31.109  73.200  0.00  0.00     0.011 A 
ATOM     17 Br   UNK d   1      13.034  30.406  74.293  0.00  0.00    -0.051 Br
ATOM     18  C   UNK d   1      15.754  30.785  73.424  0.00  0.00     0.020 A 
ATOM     19  C   UNK d   1      16.739  31.311  72.614  0.00  0.00     0.014 A 
ENDBRANCH  12  13
ENDBRANCH   8  11
ENDBRANCH   6   7
ENDBRANCH   1   6
BRANCH   5  20
ATOM     20  C   UNK d   1      23.108  34.520  66.827  0.00  0.00     0.181 A 
ATOM     21  N   UNK d   1      23.609  33.246  67.078  0.00  0.00    -0.097 NA
ATOM     22  O   UNK d   1      24.549  32.985  66.256  0.00  0.00    -0.104 OA
ATOM     23  N   UNK d   1      24.728  33.971  65.469  0.00  0.00    -0.085 NA
ATOM     24  C   UNK d   1      23.839  34.957  65.799  0.00  0.00     0.186 A 
BRANCH  24  25
ATOM     25  N   UNK d   1      23.809  36.157  65.079  0.00  0.00    -0.380 N 
ATOM     26  H   UNK d   1      22.971  36.383  64.495  0.00  0.00     0.158 HD
ATOM     27  H   UNK d   1      24.571  36.867  65.088  0.00  0.00     0.158 HD
ENDBRANCH  24  25
ENDBRANCH   5  20
BRANCH   3  28
ATOM     28  C   UNK d   1      19.235  37.432  67.850  0.00  0.00     0.183 A 
ATOM     29  N   UNK d   1      19.132  38.343  66.877  0.00  0.00    -0.097 NA
ATOM     30  O   UNK d   1      18.056  39.081  67.085  0.00  0.00    -0.104 OA
ATOM     31  N   UNK d   1      17.439  38.690  68.164  0.00  0.00    -0.085 NA
ATOM     32  C   UNK d   1      18.160  37.645  68.675  0.00  0.00     0.186 A 
BRANCH  32  33
ATOM     33  N   UNK d   1      17.803  36.946  69.857  0.00  0.00    -0.380 N 
ATOM     34  H   UNK d   1      17.271  36.034  69.787  0.00  0.00     0.158 HD
ATOM     35  H   UNK d   1      18.034  37.274  70.815  0.00  0.00     0.158 HD
ENDBRANCH  32  33
ENDBRANCH   3  28
TORSDOF 8
ENDMDL
