/Users/jonathanwahrer/Desktop/Msc/3_Semester/Drug_Design_Praktikum/waehrer_HTS_screening/HTS_experiment/out/docking_results/vina_output/4x21/0294_docked.pdbqt
 OpenBabel03212201303D

 35 38  0  0  0  0  0  0  0  0999 V2000
   21.5700   34.8300   68.8020 N   0  0  0  0  0  0  0  0  0  0  0  0
   20.5020   35.6420   69.0700 N   0  0  0  0  0  0  0  0  0  0  0  0
   20.2730   36.4200   68.0040 C   0  0  0  0  0  0  0  0  0  0  0  0
   21.1950   36.0790   67.1050 N   0  0  0  0  0  0  0  0  0  0  0  0
   22.0170   35.0780   67.5990 C   0  0  0  0  0  0  0  0  0  0  0  0
   22.0100   33.8720   69.7970 C   0  0  0  0  0  2  0  0  0  0  0  0
   20.8660   33.3550   70.5930 C   0  0  0  0  0  0  0  0  0  0  0  0
   19.7730   32.7110   69.9640 N   0  0  0  0  0  0  0  0  0  0  0  0
   19.7470   32.5830   68.9070 H   0  0  0  0  0  0  0  0  0  0  0  0
   20.8630   33.4880   71.8370 O   0  0  0  0  0  0  0  0  0  0  0  0
   18.7290   32.2430   70.7310 N   0  0  0  0  0  0  0  0  0  0  0  0
   17.5400   32.7030   70.7310 C   0  0  0  0  0  3  0  0  0  0  0  0
   16.4710   32.1660   71.5660 C   0  0  0  0  0  0  0  0  0  0  0  0
   15.1490   32.4900   71.3440 C   0  0  0  0  0  3  0  0  0  0  0  0
   14.1520   31.9690   72.1490 C   0  0  0  0  0  3  0  0  0  0  0  0
   14.4320   31.1090   73.2000 C   0  0  0  0  0  0  0  0  0  0  0  0
   13.0340   30.4060   74.2930 Br  0  0  0  0  0  0  0  0  0  0  0  0
   15.7540   30.7850   73.4240 C   0  0  0  0  0  3  0  0  0  0  0  0
   16.7390   31.3110   72.6140 C   0  0  0  0  0  3  0  0  0  0  0  0
   23.1080   34.5200   66.8270 C   0  0  0  0  0  0  0  0  0  0  0  0
   23.6090   33.2460   67.0780 N   0  0  0  0  0  0  0  0  0  0  0  0
   24.5490   32.9850   66.2560 O   0  0  0  0  0  0  0  0  0  0  0  0
   24.7280   33.9710   65.4690 N   0  0  0  0  0  0  0  0  0  0  0  0
   23.8390   34.9570   65.7990 C   0  0  0  0  0  0  0  0  0  0  0  0
   23.8090   36.1570   65.0790 N   0  0  0  0  0  0  0  0  0  0  0  0
   22.9710   36.3830   64.4950 H   0  0  0  0  0  0  0  0  0  0  0  0
   24.5710   36.8670   65.0880 H   0  0  0  0  0  0  0  0  0  0  0  0
   19.2350   37.4320   67.8500 C   0  0  0  0  0  0  0  0  0  0  0  0
   19.1320   38.3430   66.8770 N   0  0  0  0  0  0  0  0  0  0  0  0
   18.0560   39.0810   67.0850 O   0  0  0  0  0  0  0  0  0  0  0  0
   17.4390   38.6900   68.1640 N   0  0  0  0  0  0  0  0  0  0  0  0
   18.1600   37.6450   68.6750 C   0  0  0  0  0  0  0  0  0  0  0  0
   17.8030   36.9460   69.8570 N   0  0  0  0  0  0  0  0  0  0  0  0
   17.2710   36.0340   69.7870 H   0  0  0  0  0  0  0  0  0  0  0  0
   18.0340   37.2740   70.8150 H   0  0  0  0  0  0  0  0  0  0  0  0
  1  2  1  0  0  0  0
  1  6  1  0  0  0  0
  3  2  2  0  0  0  0
  4  5  2  0  0  0  0
  4  3  1  0  0  0  0
  5  1  1  0  0  0  0
  6  7  1  0  0  0  0
  7 10  2  0  0  0  0
  8  7  1  0  0  0  0
  8 11  1  0  0  0  0
  9  8  1  0  0  0  0
 11 12  2  0  0  0  0
 12 13  1  0  0  0  0
 13 19  1  0  0  0  0
 14 13  2  0  0  0  0
 14 15  1  0  0  0  0
 15 16  2  0  0  0  0
 16 18  1  0  0  0  0
 16 17  1  0  0  0  0
 19 18  2  0  0  0  0
 20 21  2  0  0  0  0
 20  5  1  0  0  0  0
 22 21  1  0  0  0  0
 23 24  2  0  0  0  0
 23 22  1  0  0  0  0
 24 20  1  0  0  0  0
 25 27  1  0  0  0  0
 25 24  1  0  0  0  0
 26 25  1  0  0  0  0
 28  3  1  0  0  0  0
 28 32  1  0  0  0  0
 29 30  1  0  0  0  0
 29 28  2  0  0  0  0
 30 31  1  0  0  0  0
 31 32  2  0  0  0  0
 32 33  1  0  0  0  0
 33 35  1  0  0  0  0
 34 33  1  0  0  0  0
M  END
>  <Pose>
1

>  <Score>
-8.472

$$$$
