MODEL 1
REMARK VINA RESULT:    -8.233      0.000      0.000
REMARK INTER + INTRA:         -10.929
REMARK INTER:                 -10.159
REMARK INTRA:                  -0.771
REMARK UNBOUND:                -0.771
REMARK  4 active torsions:
REMARK  status: ('A' for Active; 'I' for Inactive)
REMARK    1  A    between atoms: C_5  and  C_8 
REMARK    2  A    between atoms: N_19  and  C_20 
REMARK    3  A    between atoms: C_20  and  C_21 
REMARK    4  A    between atoms: C_21  and  N_22 
ROOT
ATOM      1  C   UNK d   1      16.331  32.099  72.171  0.00  0.00     0.076 A 
ATOM      2  N   UNK d   1      17.552  32.521  71.784  0.00  0.00    -0.189 N 
ATOM      3  C   UNK d   1      17.475  33.783  71.293  0.00  0.00     0.692 A 
ATOM      4  N   UNK d   1      16.194  34.184  71.363  0.00  0.00    -0.153 N 
ATOM      5  C   UNK d   1      15.491  33.159  71.897  0.00  0.00     0.146 A 
ATOM      6  C   UNK d   1      16.170  35.437  70.868  0.00  0.00     0.084 A 
ATOM      7  C   UNK d   1      17.438  35.822  70.487  0.00  0.00     0.079 A 
ATOM      8  C   UNK d   1      17.698  37.073  69.940  0.00  0.00     0.032 A 
ATOM      9  C   UNK d   1      16.667  37.967  69.768  0.00  0.00     0.002 A 
ATOM     10  C   UNK d   1      15.403  37.574  70.152  0.00  0.00     0.002 A 
ATOM     11  C   UNK d   1      15.116  36.340  70.696  0.00  0.00     0.033 A 
ATOM     12  N   UNK d   1      18.235  34.757  70.768  0.00  0.00    -0.179 N 
ATOM     13  H   UNK d   1      18.437  31.977  71.841  0.00  0.00     0.184 HD
ENDROOT
BRANCH  12  14
ATOM     14  C   UNK d   1      19.660  34.765  70.510  0.00  0.00     0.175 C 
BRANCH  14  15
ATOM     15  C   UNK d   1      20.459  34.540  71.775  0.00  0.00     0.256 C 
BRANCH  15  16
ATOM     16  N   UNK d   1      21.572  33.672  71.515  0.00  0.00    -0.066 N 
ATOM     17  C   UNK d   1      22.357  34.177  70.407  0.00  0.00     0.261 C 
ATOM     18  C   UNK d   1      22.738  33.097  69.424  0.00  0.00     0.195 C 
ATOM     19  O   UNK d   1      23.319  32.036  70.122  0.00  0.00    -0.388 OA
ATOM     20  C   UNK d   1      22.470  31.508  71.071  0.00  0.00     0.195 C 
ATOM     21  C   UNK d   1      21.209  32.319  71.218  0.00  0.00     0.261 C 
ATOM     22  H   UNK d   1      22.218  33.645  72.344  0.00  0.00     0.280 HD
ENDBRANCH  15  16
ENDBRANCH  14  15
ENDBRANCH  12  14
BRANCH   1  23
ATOM     23  C   UNK d   1      15.998  30.801  72.748  0.00  0.00    -0.007 A 
ATOM     24  C   UNK d   1      14.991  30.656  73.675  0.00  0.00     0.015 A 
ATOM     25  C   UNK d   1      14.674  29.416  74.225  0.00  0.00     0.020 A 
ATOM     26  C   UNK d   1      15.374  28.287  73.846  0.00  0.00     0.011 A 
ATOM     27 Br   UNK d   1      14.945  26.597  74.594  0.00  0.00    -0.051 Br
ATOM     28  C   UNK d   1      16.386  28.419  72.918  0.00  0.00     0.020 A 
ATOM     29  C   UNK d   1      16.691  29.671  72.377  0.00  0.00     0.015 A 
ENDBRANCH   1  23
TORSDOF 4
ENDMDL
