MODEL 1
REMARK VINA RESULT:    -7.930      0.000      0.000
REMARK INTER + INTRA:         -10.529
REMARK INTER:                  -9.785
REMARK INTRA:                  -0.744
REMARK UNBOUND:                -0.744
REMARK  4 active torsions:
REMARK  status: ('A' for Active; 'I' for Inactive)
REMARK    1  A    between atoms: C_5  and  C_8 
REMARK    2  A    between atoms: N_13  and  C_23 
REMARK    3  A    between atoms: C_23  and  C_24 
REMARK    4  A    between atoms: C_24  and  O_25 
ROOT
ATOM      1  C   UNK d   1      18.915  37.237  68.742  0.00  0.00     0.185 A 
ATOM      2  N   UNK d   1      18.047  36.640  69.548  0.00  0.00    -0.107 N 
ATOM      3  C   UNK d   1      16.860  37.296  69.544  0.00  0.00     0.736 A 
ATOM      4  N   UNK d   1      17.005  38.330  68.694  0.00  0.00     0.045 NA
ATOM      5  N   UNK d   1      18.203  38.314  68.208  0.00  0.00    -0.114 NA
ATOM      6  N   UNK d   1      15.962  36.713  70.347  0.00  0.00    -0.168 N 
ATOM      7  C   UNK d   1      16.592  35.655  70.869  0.00  0.00     0.165 A 
ATOM      8  C   UNK d   1      17.905  35.574  70.384  0.00  0.00     0.170 A 
ATOM      9  N   UNK d   1      18.705  34.581  70.737  0.00  0.00    -0.287 N 
ATOM     10  C   UNK d   1      18.205  33.645  71.602  0.00  0.00     0.330 A 
ATOM     11  O   UNK d   1      18.932  32.690  71.965  0.00  0.00    -0.246 OA
ATOM     12  N   UNK d   1      16.959  33.698  72.088  0.00  0.00    -0.273 N 
ATOM     13  C   UNK d   1      16.129  34.694  71.736  0.00  0.00     0.280 A 
ATOM     14  O   UNK d   1      14.951  34.777  72.172  0.00  0.00    -0.265 OA
ATOM     15  C   UNK d   1      20.022  34.305  70.225  0.00  0.00     0.163 C 
ATOM     16  H   UNK d   1      16.580  32.988  72.747  0.00  0.00     0.173 HD
ENDROOT
BRANCH   1  17
ATOM     17  C   UNK d   1      20.292  37.033  68.335  0.00  0.00     0.013 A 
ATOM     18  C   UNK d   1      20.533  36.738  66.992  0.00  0.00     0.017 A 
ATOM     19  C   UNK d   1      21.789  36.673  66.474  0.00  0.00     0.020 A 
ATOM     20  C   UNK d   1      22.879  36.905  67.287  0.00  0.00     0.011 A 
ATOM     21 Br   UNK d   1      24.627  36.814  66.563  0.00  0.00    -0.051 Br
ATOM     22  C   UNK d   1      22.707  37.203  68.621  0.00  0.00     0.020 A 
ATOM     23  C   UNK d   1      21.417  37.254  69.087  0.00  0.00     0.017 A 
ENDBRANCH   1  17
BRANCH   6  24
ATOM     24  C   UNK d   1      14.604  37.136  70.601  0.00  0.00     0.174 C 
BRANCH  24  25
ATOM     25  C   UNK d   1      13.652  36.739  69.494  0.00  0.00     0.187 C 
BRANCH  25  26
ATOM     26  O   UNK d   1      12.793  35.720  69.888  0.00  0.00    -0.394 OA
ATOM     27  C   UNK d   1      13.166  34.569  69.193  0.00  0.00     0.201 C 
ENDBRANCH  25  26
ENDBRANCH  24  25
ENDBRANCH   6  24
TORSDOF 4
ENDMDL
