MODEL 1
REMARK VINA RESULT:    -8.796      0.000      0.000
REMARK INTER + INTRA:         -13.668
REMARK INTER:                 -11.881
REMARK INTRA:                  -1.787
REMARK UNBOUND:                -1.787
REMARK  6 active torsions:
REMARK  status: ('A' for Active; 'I' for Inactive)
REMARK    1  A    between atoms: C_5  and  C_8 
REMARK    2  A    between atoms: N_15  and  C_16 
REMARK    3  A    between atoms: C_16  and  C_17 
REMARK    4  A    between atoms: C_17  and  C_18 
REMARK    5  A    between atoms: C_18  and  N_19 
REMARK    6  A    between atoms: N_19  and  C_20 
ROOT
ATOM      1  C   UNK d   1      19.691  34.170  70.196  0.00  0.00     0.078 A 
ATOM      2  C   UNK d   1      20.695  33.459  69.517  0.00  0.00     0.146 A 
ATOM      3  N   UNK d   1      21.429  34.358  68.873  0.00  0.00    -0.153 N 
ATOM      4  C   UNK d   1      22.516  34.405  68.043  0.00  0.00     0.083 A 
ATOM      5  C   UNK d   1      22.698  35.736  67.761  0.00  0.00     0.077 A 
ATOM      6  N   UNK d   1      21.755  36.408  68.403  0.00  0.00    -0.189 N 
ATOM      7  C   UNK d   1      20.952  35.558  69.105  0.00  0.00     0.692 A 
ATOM      8  N   UNK d   1      19.867  35.469  69.930  0.00  0.00    -0.180 N 
ATOM      9  C   UNK d   1      23.733  36.168  66.928  0.00  0.00     0.032 A 
ATOM     10  C   UNK d   1      24.595  35.245  66.375  0.00  0.00     0.002 A 
ATOM     11  C   UNK d   1      24.391  33.917  66.674  0.00  0.00     0.002 A 
ATOM     12  C   UNK d   1      23.363  33.479  67.501  0.00  0.00     0.033 A 
ATOM     13  H   UNK d   1      21.662  37.440  68.347  0.00  0.00     0.184 HD
ENDROOT
BRANCH   8  14
ATOM     14  C   UNK d   1      19.141  36.634  70.333  0.00  0.00     0.149 C 
BRANCH  14  15
ATOM     15  C   UNK d   1      18.220  37.235  69.349  0.00  0.00     0.048 C 
BRANCH  15  16
ATOM     16  C   UNK d   1      16.774  37.324  69.682  0.00  0.00     0.234 C 
BRANCH  16  17
ATOM     17  N   UNK d   1      16.401  36.399  70.729  0.00  0.00    -0.071 N 
ATOM     18  H   UNK d   1      17.142  35.808  71.099  0.00  0.00     0.277 HD
ATOM     19  H   UNK d   1      16.133  37.025  71.574  0.00  0.00     0.277 HD
BRANCH  17  20
ATOM     20  C   UNK d   1      15.210  35.658  70.433  0.00  0.00     0.185 C 
ATOM     21  C   UNK d   1      14.610  34.925  71.600  0.00  0.00     0.033 C 
ATOM     22  C   UNK d   1      13.693  33.849  71.000  0.00  0.00     0.002 C 
ATOM     23  C   UNK d   1      12.613  34.523  70.227  0.00  0.00     0.000 C 
ATOM     24  C   UNK d   1      13.122  35.511  69.203  0.00  0.00     0.002 C 
ATOM     25  C   UNK d   1      14.089  36.509  69.851  0.00  0.00     0.033 C 
ENDBRANCH  17  20
ENDBRANCH  16  17
ENDBRANCH  15  16
ENDBRANCH  14  15
ENDBRANCH   8  14
BRANCH   1  26
ATOM     26  C   UNK d   1      18.680  33.521  71.002  0.00  0.00    -0.007 A 
ATOM     27  C   UNK d   1      17.876  32.567  70.412  0.00  0.00     0.015 A 
ATOM     28  C   UNK d   1      16.907  31.904  71.109  0.00  0.00     0.020 A 
ATOM     29  C   UNK d   1      16.686  32.154  72.428  0.00  0.00     0.011 A 
ATOM     30 Br   UNK d   1      15.321  31.222  73.418  0.00  0.00    -0.051 Br
ATOM     31  C   UNK d   1      17.461  33.091  73.051  0.00  0.00     0.020 A 
ATOM     32  C   UNK d   1      18.462  33.770  72.314  0.00  0.00     0.015 A 
ENDBRANCH   1  26
TORSDOF 6
ENDMDL
