/Users/jonathanwahrer/Desktop/Msc/3_Semester/Drug_Design_Praktikum/waehrer_HTS_screening/HTS_experiment/out/docking_results/vina_output/4x21/0324_docked.pdbqt
 OpenBabel03212201323D

 34 38  0  0  1  0  0  0  0  0999 V2000
   15.6690   31.7140   72.5280 C   0  0  0  0  0  0  0  0  0  0  0  0
   14.6440   32.1390   71.6620 C   0  0  0  0  0  3  0  0  0  0  0  0
   14.8020   33.4260   71.3340 N   0  0  0  0  0  0  0  0  0  0  0  0
   14.2740   34.4490   70.6170 C   0  0  0  0  0  0  0  0  0  0  0  0
   15.0980   35.5280   70.8270 C   0  0  0  0  0  0  0  0  0  0  0  0
   16.0990   35.1350   71.6630 N   0  0  0  0  0  0  0  0  0  0  0  0
   15.8990   33.8380   71.9620 C   0  0  1  0  0  3  0  0  0  0  0  0
   16.4330   32.7960   72.6940 N   0  0  0  0  0  0  0  0  0  0  0  0
   14.7810   36.7160   70.2030 C   0  0  0  0  0  3  0  0  0  0  0  0
   13.6670   36.8370   69.3820 C   0  0  0  0  0  3  0  0  0  0  0  0
   12.8460   35.7580   69.1740 C   0  0  0  0  0  3  0  0  0  0  0  0
   13.1680   34.5530   69.8080 C   0  0  0  0  0  3  0  0  0  0  0  0
   16.8710   35.7560   71.9920 H   0  0  0  0  0  0  0  0  0  0  0  0
   17.6220   32.9400   73.5060 C   0  0  0  0  0  2  0  0  0  0  0  0
   18.8340   32.2280   72.9530 C   0  0  0  0  0  2  0  0  0  0  0  0
   19.9330   33.2040   72.6150 C   0  0  0  0  0  2  0  0  0  0  0  0
   20.4200   33.1220   71.2650 N   0  0  0  0  0  0  0  0  0  0  0  0
   21.5990   33.9720   71.2160 C   0  0  0  0  0  2  0  0  0  0  0  0
   21.6680   34.8710   70.0390 C   0  0  0  0  0  2  0  0  0  0  0  0
   20.4540   35.5640   69.7010 N   0  0  0  0  0  4  0  0  0  0  0  0
   19.2620   34.9310   70.2240 C   0  0  0  0  0  2  0  0  0  0  0  0
   20.3570   35.4730   68.6410 H   0  0  0  0  0  0  0  0  0  0  0  0
   19.4840   33.4330   70.2370 C   0  0  0  0  0  2  0  0  0  0  0  0
   20.5480   36.9670   69.9520 C   0  0  0  0  0  2  0  0  0  0  0  0
   21.9070   37.4840   70.2810 C   0  0  0  0  0  2  0  0  0  0  0  0
   21.9960   38.0690   71.5430 O   0  0  0  0  0  0  0  0  0  0  0  0
   21.5150   37.5270   72.1920 H   0  0  0  0  0  0  0  0  0  0  0  0
   15.7460   30.3650   73.0870 C   0  0  0  0  0  0  0  0  0  0  0  0
   15.0290   29.8910   74.1390 C   0  0  0  0  0  3  0  0  0  0  0  0
   15.1240   28.5650   74.5930 C   0  0  0  0  0  3  0  0  0  0  0  0
   15.9640   27.6710   73.9800 C   0  0  0  0  0  0  0  0  0  0  0  0
   16.0960   25.8600   74.5970 Br  0  0  0  0  0  0  0  0  0  0  0  0
   16.6960   28.1280   72.9200 C   0  0  0  0  0  3  0  0  0  0  0  0
   16.5950   29.4390   72.4800 C   0  0  0  0  0  3  0  0  0  0  0  0
  1  8  1  0  0  0  0
  1 28  1  0  0  0  0
  2  1  2  0  0  0  0
  3  2  1  0  0  0  0
  4  5  1  0  0  0  0
  4  3  1  0  0  0  0
  5  6  1  0  0  0  0
  6  7  1  0  0  0  0
  6 13  1  0  0  0  0
  7  3  1  1  0  0  0
  7  8  1  0  0  0  0
  8 14  1  0  0  0  0
  9  5  2  0  0  0  0
 10  9  1  0  0  0  0
 11 10  2  0  0  0  0
 11 12  1  0  0  0  0
 12  4  2  0  0  0  0
 15 14  1  0  0  0  0
 16 15  1  0  0  0  0
 17 16  1  0  0  0  0
 18 17  1  0  0  0  0
 19 18  1  0  0  0  0
 20 24  1  0  0  0  0
 20 19  1  0  0  0  0
 20 21  1  0  0  0  0
 21 23  1  0  0  0  0
 22 20  1  0  0  0  0
 23 17  1  0  0  0  0
 24 25  1  0  0  0  0
 25 26  1  0  0  0  0
 26 27  1  0  0  0  0
 28 29  1  0  0  0  0
 29 30  2  0  0  0  0
 31 30  1  0  0  0  0
 31 32  1  0  0  0  0
 33 31  2  0  0  0  0
 34 33  1  0  0  0  0
 34 28  2  0  0  0  0
M  END
>  <Pose>
1

>  <Score>
-8.232

$$$$
