MODEL 1
REMARK VINA RESULT:    -8.232      0.000      0.000
REMARK INTER + INTRA:         -13.149
REMARK INTER:                 -11.842
REMARK INTRA:                  -1.308
REMARK UNBOUND:                -1.308
REMARK  8 active torsions:
REMARK  status: ('A' for Active; 'I' for Inactive)
REMARK    1  A    between atoms: C_5  and  C_8 
REMARK    2  A    between atoms: N_15  and  C_16 
REMARK    3  A    between atoms: C_16  and  C_17 
REMARK    4  A    between atoms: C_17  and  C_18 
REMARK    5  A    between atoms: C_18  and  N_19 
REMARK    6  A    between atoms: N_22  and  C_25 
REMARK    7  A    between atoms: C_25  and  C_26 
REMARK    8  A    between atoms: C_26  and  O_27 
ROOT
ATOM      1  C   UNK d   1      15.669  31.714  72.528  0.00  0.00     0.078 A 
ATOM      2  C   UNK d   1      14.644  32.139  71.662  0.00  0.00     0.146 A 
ATOM      3  N   UNK d   1      14.802  33.426  71.334  0.00  0.00    -0.153 N 
ATOM      4  C   UNK d   1      14.274  34.449  70.617  0.00  0.00     0.083 A 
ATOM      5  C   UNK d   1      15.098  35.528  70.827  0.00  0.00     0.077 A 
ATOM      6  N   UNK d   1      16.099  35.135  71.663  0.00  0.00    -0.189 N 
ATOM      7  C   UNK d   1      15.899  33.838  71.962  0.00  0.00     0.692 A 
ATOM      8  N   UNK d   1      16.433  32.796  72.694  0.00  0.00    -0.180 N 
ATOM      9  C   UNK d   1      14.781  36.716  70.203  0.00  0.00     0.032 A 
ATOM     10  C   UNK d   1      13.667  36.837  69.382  0.00  0.00     0.002 A 
ATOM     11  C   UNK d   1      12.846  35.758  69.174  0.00  0.00     0.002 A 
ATOM     12  C   UNK d   1      13.168  34.553  69.808  0.00  0.00     0.033 A 
ATOM     13  H   UNK d   1      16.871  35.756  71.992  0.00  0.00     0.184 HD
ENDROOT
BRANCH   8  14
ATOM     14  C   UNK d   1      17.622  32.940  73.506  0.00  0.00     0.149 C 
BRANCH  14  15
ATOM     15  C   UNK d   1      18.834  32.228  72.953  0.00  0.00     0.051 C 
BRANCH  15  16
ATOM     16  C   UNK d   1      19.933  33.204  72.615  0.00  0.00     0.274 C 
BRANCH  16  17
ATOM     17  N   UNK d   1      20.420  33.122  71.265  0.00  0.00     0.091 N 
ATOM     18  C   UNK d   1      21.599  33.972  71.216  0.00  0.00     0.300 C 
ATOM     19  C   UNK d   1      21.668  34.871  70.039  0.00  0.00     0.265 C 
ATOM     20  N   UNK d   1      20.454  35.564  69.701  0.00  0.00    -0.066 N 
ATOM     21  C   UNK d   1      19.262  34.931  70.224  0.00  0.00     0.265 C 
ATOM     22  H   UNK d   1      20.357  35.473  68.641  0.00  0.00     0.280 HD
ATOM     23  C   UNK d   1      19.484  33.433  70.237  0.00  0.00     0.300 C 
BRANCH  20  24
ATOM     24  C   UNK d   1      20.548  36.967  69.952  0.00  0.00     0.260 C 
BRANCH  24  25
ATOM     25  C   UNK d   1      21.907  37.484  70.281  0.00  0.00     0.192 C 
BRANCH  25  26
ATOM     26  O   UNK d   1      21.996  38.069  71.543  0.00  0.00    -0.399 OA
ATOM     27  H   UNK d   1      21.515  37.527  72.192  0.00  0.00     0.209 HD
ENDBRANCH  25  26
ENDBRANCH  24  25
ENDBRANCH  20  24
ENDBRANCH  16  17
ENDBRANCH  15  16
ENDBRANCH  14  15
ENDBRANCH   8  14
BRANCH   1  28
ATOM     28  C   UNK d   1      15.746  30.365  73.087  0.00  0.00    -0.007 A 
ATOM     29  C   UNK d   1      15.029  29.891  74.139  0.00  0.00     0.015 A 
ATOM     30  C   UNK d   1      15.124  28.565  74.593  0.00  0.00     0.020 A 
ATOM     31  C   UNK d   1      15.964  27.671  73.980  0.00  0.00     0.011 A 
ATOM     32 Br   UNK d   1      16.096  25.860  74.597  0.00  0.00    -0.051 Br
ATOM     33  C   UNK d   1      16.696  28.128  72.920  0.00  0.00     0.020 A 
ATOM     34  C   UNK d   1      16.595  29.439  72.480  0.00  0.00     0.015 A 
ENDBRANCH   1  28
TORSDOF 8
ENDMDL
