MODEL 1
REMARK VINA RESULT:    -9.483      0.000      0.000
REMARK INTER + INTRA:         -16.424
REMARK INTER:                 -13.918
REMARK INTRA:                  -2.506
REMARK UNBOUND:                -2.506
REMARK  8 active torsions:
REMARK  status: ('A' for Active; 'I' for Inactive)
REMARK    1  A    between atoms: C_5  and  C_8 
REMARK    2  A    between atoms: N_9  and  C_26 
REMARK    3  A    between atoms: C_14  and  C_15 
REMARK    4  A    between atoms: C_15  and  C_17 
REMARK    5  A    between atoms: C_20  and  O_23 
REMARK    6  A    between atoms: C_26  and  C_27 
REMARK    7  A    between atoms: C_27  and  C_28 
REMARK    8  A    between atoms: C_28  and  N_29 
ROOT
ATOM      1  C   UNK d   1      15.015  35.082  71.652  0.00  0.00     0.161 A 
ATOM      2  N   UNK d   1      13.899  34.257  71.276  0.00  0.00    -0.332 N 
ATOM      3  C   UNK d   1      13.186  34.825  70.194  0.00  0.00     0.295 A 
ATOM      4  O   UNK d   1      12.141  34.384  69.623  0.00  0.00    -0.264 OA
ATOM      5  C   UNK d   1      13.855  36.080  69.784  0.00  0.00     0.250 A 
ATOM      6  O   UNK d   1      13.476  36.830  68.856  0.00  0.00    -0.282 OA
ATOM      7  C   UNK d   1      14.989  36.218  70.672  0.00  0.00     0.062 A 
ENDROOT
BRANCH   7   8
ATOM      8  C   UNK d   1      15.817  37.238  70.619  0.00  0.00     0.130 C 
ATOM      9  O   UNK d   1      15.484  38.391  71.360  0.00  0.00    -0.190 OA
BRANCH   8  10
ATOM     10  C   UNK d   1      17.052  37.294  69.878  0.00  0.00     0.002 A 
ATOM     11  C   UNK d   1      18.257  36.830  70.275  0.00  0.00     0.024 A 
ATOM     12  C   UNK d   1      19.357  36.917  69.448  0.00  0.00    -0.028 A 
ATOM     13  C   UNK d   1      19.310  37.469  68.186  0.00  0.00     0.074 A 
ATOM     14  C   UNK d   1      20.673  36.386  69.935  0.00  0.00     0.051 C 
ATOM     15  C   UNK d   1      18.068  37.937  67.804  0.00  0.00     0.038 A 
ATOM     16  C   UNK d   1      16.958  37.866  68.600  0.00  0.00     0.017 A 
BRANCH  13  17
ATOM     17  O   UNK d   1      20.422  37.554  67.358  0.00  0.00    -0.355 OA
ATOM     18  C   UNK d   1      20.619  36.593  66.331  0.00  0.00     0.210 C 
ENDBRANCH  13  17
ENDBRANCH   8  10
ENDBRANCH   7   8
BRANCH   1  19
ATOM     19  C   UNK d   1      16.294  34.368  71.638  0.00  0.00    -0.030 A 
ATOM     20  C   UNK d   1      17.056  34.259  72.782  0.00  0.00     0.011 A 
ATOM     21  C   UNK d   1      18.278  33.580  72.771  0.00  0.00     0.019 A 
ATOM     22  C   UNK d   1      18.753  33.003  71.614  0.00  0.00     0.011 A 
ATOM     23 Br   UNK d   1      20.438  32.081  71.637  0.00  0.00    -0.051 Br
ATOM     24  C   UNK d   1      18.003  33.108  70.475  0.00  0.00     0.019 A 
ATOM     25  C   UNK d   1      16.804  33.779  70.503  0.00  0.00     0.011 A 
ENDBRANCH   1  19
BRANCH   2  26
ATOM     26  C   UNK d   1      13.564  33.011  71.941  0.00  0.00     0.129 C 
BRANCH  26  27
ATOM     27  C   UNK d   1      13.932  31.790  71.144  0.00  0.00     0.048 C 
BRANCH  27  28
ATOM     28  C   UNK d   1      13.659  30.528  71.903  0.00  0.00     0.236 C 
BRANCH  28  29
ATOM     29  N   UNK d   1      14.834  29.736  72.127  0.00  0.00    -0.067 N 
ATOM     30  C   UNK d   1      14.799  28.995  73.371  0.00  0.00     0.261 C 
ATOM     31  C   UNK d   1      15.986  28.027  73.341  0.00  0.00     0.195 C 
ATOM     32  O   UNK d   1      16.840  28.330  72.290  0.00  0.00    -0.388 OA
ATOM     33  C   UNK d   1      17.212  29.691  72.340  0.00  0.00     0.195 C 
ATOM     34  C   UNK d   1      16.002  30.563  72.020  0.00  0.00     0.261 C 
ATOM     35  H   UNK d   1      14.898  29.007  71.355  0.00  0.00     0.280 HD
ENDBRANCH  28  29
ENDBRANCH  27  28
ENDBRANCH  26  27
ENDBRANCH   2  26
TORSDOF 8
ENDMDL
