MODEL 1
REMARK VINA RESULT:    -8.347      0.000      0.000
REMARK INTER + INTRA:         -12.062
REMARK INTER:                 -10.787
REMARK INTRA:                  -1.276
REMARK UNBOUND:                -1.276
REMARK  5 active torsions:
REMARK  status: ('A' for Active; 'I' for Inactive)
REMARK    1  A    between atoms: C_5  and  C_8 
REMARK    2  A    between atoms: N_9  and  C_24 
REMARK    3  A    between atoms: C_15  and  C_17 
REMARK    4  A    between atoms: C_24  and  C_25 
REMARK    5  A    between atoms: C_25  and  N_26 
ROOT
ATOM      1  C   UNK d   1      15.809  31.804  72.973  0.00  0.00     0.161 C 
ATOM      2  N   UNK d   1      14.490  31.683  72.523  0.00  0.00    -0.331 N 
ATOM      3  C   UNK d   1      13.843  30.868  73.573  0.00  0.00     0.295 C 
ATOM      4  O   UNK d   1      12.633  30.908  73.930  0.00  0.00    -0.264 OA
ATOM      5  C   UNK d   1      14.920  30.018  74.089  0.00  0.00     0.250 C 
ATOM      6  O   UNK d   1      14.856  29.135  74.999  0.00  0.00    -0.282 OA
ATOM      7  C   UNK d   1      16.124  30.391  73.323  0.00  0.00     0.062 C 
ATOM      8  C   UNK d   1      17.148  29.628  73.013  0.00  0.00     0.130 C 
ATOM      9  O   UNK d   1      18.177  30.119  72.218  0.00  0.00    -0.190 OA
ENDROOT
BRANCH   2  10
ATOM     10  C   UNK d   1      13.670  32.144  71.413  0.00  0.00     0.155 C 
BRANCH  10  11
ATOM     11  C   UNK d   1      13.173  33.559  71.564  0.00  0.00     0.255 C 
BRANCH  11  12
ATOM     12  N   UNK d   1      13.840  34.498  70.723  0.00  0.00    -0.066 N 
ATOM     13  C   UNK d   1      14.646  35.402  71.521  0.00  0.00     0.261 C 
ATOM     14  C   UNK d   1      15.366  36.349  70.597  0.00  0.00     0.195 C 
ATOM     15  O   UNK d   1      14.383  37.189  70.049  0.00  0.00    -0.388 OA
ATOM     16  C   UNK d   1      13.547  36.411  69.283  0.00  0.00     0.195 C 
ATOM     17  C   UNK d   1      12.825  35.359  70.084  0.00  0.00     0.261 C 
ATOM     18  H   UNK d   1      14.402  34.055  69.981  0.00  0.00     0.280 HD
ENDBRANCH  11  12
ENDBRANCH  10  11
ENDBRANCH   2  10
BRANCH   1  19
ATOM     19  C   UNK d   1      16.834  32.635  72.468  0.00  0.00    -0.030 A 
ATOM     20  C   UNK d   1      17.633  33.312  73.402  0.00  0.00     0.011 A 
ATOM     21  C   UNK d   1      18.645  34.149  73.027  0.00  0.00     0.019 A 
ATOM     22  C   UNK d   1      18.923  34.364  71.694  0.00  0.00     0.011 A 
ATOM     23 Br   UNK d   1      20.335  35.531  71.136  0.00  0.00    -0.051 Br
ATOM     24  C   UNK d   1      18.143  33.704  70.776  0.00  0.00     0.019 A 
ATOM     25  C   UNK d   1      17.110  32.850  71.165  0.00  0.00     0.011 A 
ENDBRANCH   1  19
BRANCH   8  26
ATOM     26  C   UNK d   1      17.283  28.255  73.474  0.00  0.00     0.001 A 
ATOM     27  C   UNK d   1      17.882  27.851  74.626  0.00  0.00     0.015 A 
ATOM     28  C   UNK d   1      17.904  26.507  74.973  0.00  0.00     0.007 A 
ATOM     29  C   UNK d   1      17.319  25.566  74.156  0.00  0.00    -0.062 A 
ATOM     30  C   UNK d   1      16.703  25.934  72.983  0.00  0.00     0.007 A 
ATOM     31  C   UNK d   1      17.323  24.112  74.496  0.00  0.00     0.048 C 
ATOM     32  C   UNK d   1      16.694  27.283  72.657  0.00  0.00     0.015 A 
ENDBRANCH   8  26
TORSDOF 5
ENDMDL
