/Users/jonathanwahrer/Desktop/Msc/3_Semester/Drug_Design_Praktikum/waehrer_HTS_screening/HTS_experiment/out/docking_results/vina_output/4x21/0351_docked.pdbqt
 OpenBabel03212201333D

 32 35  0  0  1  0  0  0  0  0999 V2000
   15.8060   31.3720   73.1700 C   0  0  1  0  0  3  0  0  0  0  0  0
   14.4460   31.4110   72.7720 N   0  0  0  0  0  0  0  0  0  0  0  0
   13.7580   30.7190   73.8570 C   0  0  0  0  0  0  0  0  0  0  0  0
   12.5680   30.9150   74.2270 O   0  0  0  0  0  0  0  0  0  0  0  0
   14.7280   29.7710   74.4030 C   0  0  0  0  0  0  0  0  0  0  0  0
   14.5750   28.9550   75.3480 O   0  0  0  0  0  0  0  0  0  0  0  0
   15.9500   29.9540   73.6160 C   0  0  0  0  0  0  0  0  0  0  0  0
   16.8850   29.0580   73.3550 C   0  0  0  0  0  0  0  0  0  0  0  0
   17.9530   29.3800   72.5340 O   0  0  0  0  0  1  0  0  0  0  0  0
   13.7370   32.0050   71.6350 C   0  0  0  0  0  2  0  0  0  0  0  0
   13.9260   33.4830   71.4910 C   0  0  0  0  0  2  0  0  0  0  0  0
   14.5850   33.8460   70.2570 N   0  0  0  0  0  4  0  0  0  0  0  0
   15.4790   34.9610   70.4060 C   0  0  0  0  0  2  0  0  0  0  0  0
   14.7850   36.2700   70.6440 C   0  0  0  0  0  2  0  0  0  0  0  0
   13.8010   36.5250   69.6870 O   0  0  0  0  0  0  0  0  0  0  0  0
   12.8710   35.4790   69.7950 C   0  0  0  0  0  2  0  0  0  0  0  0
   13.5620   34.2270   69.3000 C   0  0  0  0  0  2  0  0  0  0  0  0
   15.1150   33.0570   69.8390 H   0  0  0  0  0  0  0  0  0  0  0  0
   16.8540   31.9000   72.3840 C   0  0  0  0  0  0  0  0  0  0  0  0
   17.0380   31.5810   71.0680 C   0  0  0  0  0  3  0  0  0  0  0  0
   18.0870   32.1470   70.3290 C   0  0  0  0  0  3  0  0  0  0  0  0
   18.9670   33.0400   70.8970 C   0  0  0  0  0  0  0  0  0  0  0  0
   20.4060   33.8350   69.9400 Br  0  0  0  0  0  0  0  0  0  0  0  0
   18.7870   33.3610   72.2160 C   0  0  0  0  0  3  0  0  0  0  0  0
   17.7520   32.7970   72.9260 C   0  0  0  0  0  3  0  0  0  0  0  0
   16.8770   27.7050   73.8950 C   0  0  0  0  0  0  0  0  0  0  0  0
   16.2400   26.7570   73.0830 C   0  0  0  0  0  3  0  0  0  0  0  0
   16.1800   25.4260   73.4260 C   0  0  0  0  0  3  0  0  0  0  0  0
   16.7740   25.0270   74.6180 C   0  0  0  0  0  0  0  0  0  0  0  0
   17.3990   25.9650   75.4110 C   0  0  0  0  0  3  0  0  0  0  0  0
   16.6900   23.3330   75.0450 Cl  0  0  0  0  0  0  0  0  0  0  0  0
   17.4540   27.2970   75.0570 C   0  0  0  0  0  3  0  0  0  0  0  0
  1 19  1  6  0  0  0
  1  7  1  0  0  0  0
  2  1  1  0  0  0  0
  2  3  1  0  0  0  0
  3  4  2  0  0  0  0
  3  5  1  0  0  0  0
  5  6  2  0  0  0  0
  7  5  1  0  0  0  0
  8  7  2  0  0  0  0
  8 26  1  0  0  0  0
  9  8  1  0  0  0  0
 10  2  1  0  0  0  0
 11 10  1  0  0  0  0
 12 13  1  0  0  0  0
 12 11  1  0  0  0  0
 13 14  1  0  0  0  0
 15 16  1  0  0  0  0
 15 14  1  0  0  0  0
 17 16  1  0  0  0  0
 17 12  1  0  0  0  0
 18 12  1  0  0  0  0
 19 25  1  0  0  0  0
 20 19  2  0  0  0  0
 21 22  2  0  0  0  0
 21 20  1  0  0  0  0
 22 24  1  0  0  0  0
 23 22  1  0  0  0  0
 24 25  2  0  0  0  0
 26 32  1  0  0  0  0
 27 28  1  0  0  0  0
 27 26  2  0  0  0  0
 28 29  2  0  0  0  0
 29 31  1  0  0  0  0
 29 30  1  0  0  0  0
 32 30  2  0  0  0  0
M  END
>  <Pose>
1

>  <Score>
-7.997

$$$$
