/Users/jonathanwahrer/Desktop/Msc/3_Semester/Drug_Design_Praktikum/waehrer_HTS_screening/HTS_experiment/out/docking_results/vina_output/4x21/0354_docked.pdbqt
 OpenBabel03212201343D

 32 35  0  0  1  0  0  0  0  0999 V2000
   18.7440   35.6080   70.8420 C   0  0  1  0  0  3  0  0  0  0  0  0
   19.1530   36.3460   69.6900 N   0  0  0  0  0  0  0  0  0  0  0  0
   18.0430   37.2280   69.3790 C   0  0  0  0  0  0  0  0  0  0  0  0
   18.1350   38.2720   68.6820 O   0  0  0  0  0  0  0  0  0  0  0  0
   16.8530   36.6850   70.0060 C   0  0  0  0  0  0  0  0  0  0  0  0
   15.6750   37.1540   69.9730 O   0  0  0  0  0  0  0  0  0  0  0  0
   17.2700   35.4790   70.6930 C   0  0  0  0  0  0  0  0  0  0  0  0
   16.4810   34.4860   71.0620 C   0  0  0  0  0  0  0  0  0  0  0  0
   17.1180   33.3820   71.6800 O   0  0  0  0  0  1  0  0  0  0  0  0
   20.4090   36.3760   68.9390 C   0  0  0  0  0  2  0  0  0  0  0  0
   21.5700   36.9610   69.6690 C   0  0  0  0  0  2  0  0  0  0  0  0
   22.8970   36.4400   69.1380 C   0  0  0  0  0  2  0  0  0  0  0  0
   22.7660   35.0950   68.6290 N   0  0  0  0  0  4  0  0  0  0  0  0
   23.3520   34.9390   67.3170 C   0  0  0  0  0  2  0  0  0  0  0  0
   23.5300   33.4350   67.0930 C   0  0  0  0  0  2  0  0  0  0  0  0
   24.6250   33.0050   67.8410 O   0  0  0  0  0  0  0  0  0  0  0  0
   24.6610   33.6140   69.0950 C   0  0  0  0  0  2  0  0  0  0  0  0
   23.2900   34.1020   69.5150 C   0  0  0  0  0  2  0  0  0  0  0  0
   21.7380   34.9170   68.5240 H   0  0  0  0  0  0  0  0  0  0  0  0
   19.4090   34.3530   71.1310 C   0  0  0  0  0  0  0  0  0  0  0  0
   19.7150   33.3660   70.2570 C   0  0  0  0  0  3  0  0  0  0  0  0
   20.3750   32.2150   70.6420 C   0  0  0  0  0  3  0  0  0  0  0  0
   20.7610   32.0080   71.9480 C   0  0  0  0  0  0  0  0  0  0  0  0
   21.6750   30.4250   72.5010 Br  0  0  0  0  0  0  0  0  0  0  0  0
   20.4650   32.9920   72.8660 C   0  0  0  0  0  3  0  0  0  0  0  0
   19.8070   34.1310   72.4600 C   0  0  0  0  0  3  0  0  0  0  0  0
   15.0440   34.4680   70.8820 C   0  0  0  0  0  0  0  0  0  0  0  0
   14.5890   34.1750   69.5900 C   0  0  0  0  0  3  0  0  0  0  0  0
   13.2470   34.0820   69.2860 C   0  0  0  0  0  3  0  0  0  0  0  0
   12.3320   34.2780   70.2520 N   0  0  0  0  0  0  0  0  0  0  0  0
   12.7420   34.5620   71.5060 C   0  0  0  0  0  3  0  0  0  0  0  0
   14.0950   34.6570   71.8260 C   0  0  0  0  0  3  0  0  0  0  0  0
  1 20  1  6  0  0  0
  2  1  1  0  0  0  0
  3  2  1  0  0  0  0
  3  5  1  0  0  0  0
  4  3  2  0  0  0  0
  5  7  1  0  0  0  0
  6  5  2  0  0  0  0
  7  1  1  0  0  0  0
  7  8  2  0  0  0  0
  8  9  1  0  0  0  0
 10 11  1  0  0  0  0
 10  2  1  0  0  0  0
 12 11  1  0  0  0  0
 13 12  1  0  0  0  0
 13 18  1  0  0  0  0
 14 13  1  0  0  0  0
 15 14  1  0  0  0  0
 15 16  1  0  0  0  0
 16 17  1  0  0  0  0
 17 18  1  0  0  0  0
 19 13  1  0  0  0  0
 20 26  1  0  0  0  0
 21 22  1  0  0  0  0
 21 20  2  0  0  0  0
 22 23  2  0  0  0  0
 23 24  1  0  0  0  0
 23 25  1  0  0  0  0
 26 25  2  0  0  0  0
 27  8  1  0  0  0  0
 27 32  1  0  0  0  0
 28 27  2  0  0  0  0
 29 28  1  0  0  0  0
 29 30  2  0  0  0  0
 30 31  1  0  0  0  0
 31 32  2  0  0  0  0
M  END
>  <Pose>
1

>  <Score>
-8.481

$$$$
