MODEL 1
REMARK VINA RESULT:    -9.088      0.000      0.000
REMARK INTER + INTRA:         -13.326
REMARK INTER:                 -12.276
REMARK INTRA:                  -1.050
REMARK UNBOUND:                -1.050
REMARK  6 active torsions:
REMARK  status: ('A' for Active; 'I' for Inactive)
REMARK    1  A    between atoms: C_5  and  C_8 
REMARK    2  A    between atoms: N_9  and  C_27 
REMARK    3  A    between atoms: C_15  and  C_17 
REMARK    4  A    between atoms: C_27  and  C_28 
REMARK    5  A    between atoms: C_28  and  C_29 
REMARK    6  A    between atoms: C_29  and  N_30 
ROOT
ATOM      1  C   UNK d   1      16.652  32.855  72.764  0.00  0.00     0.161 C 
ATOM      2  N   UNK d   1      16.129  31.477  72.705  0.00  0.00    -0.332 N 
ATOM      3  C   UNK d   1      16.527  31.000  71.425  0.00  0.00     0.295 C 
ATOM      4  O   UNK d   1      15.935  30.078  70.793  0.00  0.00    -0.264 OA
ATOM      5  C   UNK d   1      17.705  31.744  70.991  0.00  0.00     0.251 C 
ATOM      6  O   UNK d   1      18.335  31.597  69.924  0.00  0.00    -0.282 OA
ATOM      7  C   UNK d   1      17.979  32.679  72.067  0.00  0.00     0.064 C 
ATOM      8  C   UNK d   1      19.122  33.224  72.395  0.00  0.00     0.149 C 
ATOM      9  O   UNK d   1      19.224  34.066  73.493  0.00  0.00    -0.189 OA
ENDROOT
BRANCH   1  10
ATOM     10  C   UNK d   1      15.841  33.760  71.920  0.00  0.00    -0.030 A 
ATOM     11  C   UNK d   1      14.519  33.494  71.650  0.00  0.00     0.011 A 
ATOM     12  C   UNK d   1      13.735  34.341  70.868  0.00  0.00     0.019 A 
ATOM     13  C   UNK d   1      14.282  35.493  70.334  0.00  0.00     0.011 A 
ATOM     14 Br   UNK d   1      13.219  36.674  69.253  0.00  0.00    -0.051 Br
ATOM     15  C   UNK d   1      15.601  35.756  70.605  0.00  0.00     0.019 A 
ATOM     16  C   UNK d   1      16.365  34.913  71.378  0.00  0.00     0.011 A 
ENDBRANCH   1  10
BRANCH   8  17
ATOM     17  C   UNK d   1      20.331  32.981  71.632  0.00  0.00     0.102 A 
ATOM     18  N   UNK d   1      20.826  33.574  70.526  0.00  0.00    -0.302 N 
ATOM     19  C   UNK d   1      21.971  32.990  70.144  0.00  0.00     0.134 A 
ATOM     20  C   UNK d   1      20.389  34.626  69.788  0.00  0.00     0.099 A 
ATOM     21  N   UNK d   1      22.202  32.002  71.035  0.00  0.00    -0.233 NA
ATOM     22  C   UNK d   1      22.710  33.414  69.038  0.00  0.00     0.051 A 
ATOM     23  C   UNK d   1      21.250  31.956  71.946  0.00  0.00     0.063 A 
ATOM     24  C   UNK d   1      21.092  31.035  73.117  0.00  0.00     0.073 C 
ATOM     25  C   UNK d   1      22.271  34.479  68.285  0.00  0.00     0.005 A 
ATOM     26  C   UNK d   1      21.096  35.067  68.694  0.00  0.00     0.018 A 
ENDBRANCH   8  17
BRANCH   2  27
ATOM     27  C   UNK d   1      15.373  30.806  73.730  0.00  0.00     0.129 C 
BRANCH  27  28
ATOM     28  C   UNK d   1      13.974  30.413  73.461  0.00  0.00     0.048 C 
BRANCH  28  29
ATOM     29  C   UNK d   1      12.901  30.736  74.423  0.00  0.00     0.235 C 
BRANCH  29  30
ATOM     30  N   UNK d   1      11.965  29.706  74.760  0.00  0.00    -0.079 N 
ATOM     31  C   UNK d   1      12.627  28.850  75.785  0.00  0.00     0.269 C 
ATOM     32  C   UNK d   1      10.832  30.279  75.457  0.00  0.00     0.269 C 
ATOM     33  H   UNK d   1      11.644  29.107  74.000  0.00  0.00     0.278 HD
ENDBRANCH  29  30
ENDBRANCH  28  29
ENDBRANCH  27  28
ENDBRANCH   2  27
TORSDOF 6
ENDMDL
