MODEL 1
REMARK VINA RESULT:    -8.775      0.000      0.000
REMARK INTER + INTRA:         -11.806
REMARK INTER:                 -11.341
REMARK INTRA:                  -0.465
REMARK UNBOUND:                -0.465
REMARK  5 active torsions:
REMARK  status: ('A' for Active; 'I' for Inactive)
REMARK    1  A    between atoms: C_5  and  C_8 
REMARK    2  A    between atoms: N_9  and  C_27 
REMARK    3  A    between atoms: C_15  and  C_17 
REMARK    4  A    between atoms: C_27  and  C_28 
REMARK    5  A    between atoms: C_28  and  N_29 
ROOT
ATOM      1  C   UNK d   1      18.933  34.981  71.252  0.00  0.00     0.161 C 
ATOM      2  N   UNK d   1      19.361  33.674  71.668  0.00  0.00    -0.331 N 
ATOM      3  C   UNK d   1      20.136  33.126  70.617  0.00  0.00     0.295 C 
ATOM      4  O   UNK d   1      20.516  31.923  70.532  0.00  0.00    -0.264 OA
ATOM      5  C   UNK d   1      20.430  34.176  69.638  0.00  0.00     0.251 C 
ATOM      6  O   UNK d   1      21.095  34.071  68.578  0.00  0.00    -0.282 OA
ATOM      7  C   UNK d   1      19.803  35.390  70.129  0.00  0.00     0.064 C 
ATOM      8  C   UNK d   1      20.030  36.613  69.677  0.00  0.00     0.149 C 
ATOM      9  O   UNK d   1      19.379  37.673  70.338  0.00  0.00    -0.189 OA
ENDROOT
BRANCH   1  10
ATOM     10  C   UNK d   1      17.493  35.007  70.876  0.00  0.00    -0.030 A 
ATOM     11  C   UNK d   1      16.783  33.867  70.576  0.00  0.00     0.011 A 
ATOM     12  C   UNK d   1      15.453  33.855  70.225  0.00  0.00     0.019 A 
ATOM     13  C   UNK d   1      14.765  35.033  70.163  0.00  0.00     0.011 A 
ATOM     14 Br   UNK d   1      12.918  34.996  69.674  0.00  0.00    -0.051 Br
ATOM     15  C   UNK d   1      15.431  36.199  70.454  0.00  0.00     0.019 A 
ATOM     16  C   UNK d   1      16.761  36.193  70.803  0.00  0.00     0.011 A 
ENDBRANCH   1  10
BRANCH   8  17
ATOM     17  C   UNK d   1      20.875  36.970  68.565  0.00  0.00     0.102 A 
ATOM     18  N   UNK d   1      22.203  37.001  68.397  0.00  0.00    -0.302 N 
ATOM     19  C   UNK d   1      22.522  37.452  67.172  0.00  0.00     0.134 A 
ATOM     20  C   UNK d   1      23.211  36.647  69.223  0.00  0.00     0.099 A 
ATOM     21  N   UNK d   1      21.366  37.716  66.539  0.00  0.00    -0.233 NA
ATOM     22  C   UNK d   1      23.829  37.574  66.714  0.00  0.00     0.051 A 
ATOM     23  C   UNK d   1      20.348  37.435  67.353  0.00  0.00     0.063 A 
ATOM     24  C   UNK d   1      18.906  37.595  67.011  0.00  0.00     0.073 C 
ATOM     25  C   UNK d   1      24.846  37.215  67.555  0.00  0.00     0.005 A 
ATOM     26  C   UNK d   1      24.521  36.749  68.816  0.00  0.00     0.018 A 
ENDBRANCH   8  17
BRANCH   2  27
ATOM     27  C   UNK d   1      19.056  33.013  72.956  0.00  0.00     0.155 C 
BRANCH  27  28
ATOM     28  C   UNK d   1      18.285  31.734  72.710  0.00  0.00     0.254 C 
BRANCH  28  29
ATOM     29  N   UNK d   1      18.593  30.700  73.635  0.00  0.00    -0.077 N 
ATOM     30  C   UNK d   1      17.767  29.541  73.297  0.00  0.00     0.269 C 
ATOM     31  C   UNK d   1      19.964  30.293  73.661  0.00  0.00     0.269 C 
ATOM     32  H   UNK d   1      18.327  30.963  74.626  0.00  0.00     0.279 HD
ENDBRANCH  28  29
ENDBRANCH  27  28
ENDBRANCH   2  27
TORSDOF 5
ENDMDL
