/Users/jonathanwahrer/Desktop/Msc/3_Semester/Drug_Design_Praktikum/waehrer_HTS_screening/HTS_experiment/out/docking_results/vina_output/4x21/0364_docked.pdbqt
 OpenBabel03212201353D

 32 35  0  0  1  0  0  0  0  0999 V2000
   18.9330   34.9810   71.2520 C   0  0  1  0  0  3  0  0  0  0  0  0
   19.3610   33.6740   71.6680 N   0  0  0  0  0  0  0  0  0  0  0  0
   20.1360   33.1260   70.6170 C   0  0  0  0  0  0  0  0  0  0  0  0
   20.5160   31.9230   70.5320 O   0  0  0  0  0  0  0  0  0  0  0  0
   20.4300   34.1760   69.6380 C   0  0  0  0  0  0  0  0  0  0  0  0
   21.0950   34.0710   68.5780 O   0  0  0  0  0  0  0  0  0  0  0  0
   19.8030   35.3900   70.1290 C   0  0  0  0  0  0  0  0  0  0  0  0
   20.0300   36.6130   69.6770 C   0  0  0  0  0  0  0  0  0  0  0  0
   19.3790   37.6730   70.3380 O   0  0  0  0  0  1  0  0  0  0  0  0
   17.4930   35.0070   70.8760 C   0  0  0  0  0  0  0  0  0  0  0  0
   16.7830   33.8670   70.5760 C   0  0  0  0  0  3  0  0  0  0  0  0
   15.4530   33.8550   70.2250 C   0  0  0  0  0  3  0  0  0  0  0  0
   14.7650   35.0330   70.1630 C   0  0  0  0  0  0  0  0  0  0  0  0
   12.9180   34.9960   69.6740 Br  0  0  0  0  0  0  0  0  0  0  0  0
   15.4310   36.1990   70.4540 C   0  0  0  0  0  3  0  0  0  0  0  0
   16.7610   36.1930   70.8030 C   0  0  0  0  0  3  0  0  0  0  0  0
   20.8750   36.9700   68.5650 C   0  0  0  0  0  0  0  0  0  0  0  0
   22.2030   37.0010   68.3970 N   0  0  0  0  0  0  0  0  0  0  0  0
   22.5220   37.4520   67.1720 C   0  0  0  0  0  0  0  0  0  0  0  0
   23.2110   36.6470   69.2230 C   0  0  0  0  0  3  0  0  0  0  0  0
   21.3660   37.7160   66.5390 N   0  0  0  0  0  0  0  0  0  0  0  0
   23.8290   37.5740   66.7140 C   0  0  0  0  0  3  0  0  0  0  0  0
   20.3480   37.4350   67.3530 C   0  0  0  0  0  0  0  0  0  0  0  0
   18.9060   37.5950   67.0110 C   0  0  0  0  0  1  0  0  0  0  0  0
   24.8460   37.2150   67.5550 C   0  0  0  0  0  3  0  0  0  0  0  0
   24.5210   36.7490   68.8160 C   0  0  0  0  0  3  0  0  0  0  0  0
   19.0560   33.0130   72.9560 C   0  0  0  0  0  2  0  0  0  0  0  0
   18.2850   31.7340   72.7100 C   0  0  0  0  0  2  0  0  0  0  0  0
   18.5930   30.7000   73.6350 N   0  0  0  0  0  4  0  0  0  0  0  0
   17.7670   29.5410   73.2970 C   0  0  0  0  0  1  0  0  0  0  0  0
   19.9640   30.2930   73.6610 C   0  0  0  0  0  1  0  0  0  0  0  0
   18.3270   30.9630   74.6260 H   0  0  0  0  0  0  0  0  0  0  0  0
  1 10  1  6  0  0  0
  1  2  1  0  0  0  0
  2 27  1  0  0  0  0
  3  2  1  0  0  0  0
  4  3  2  0  0  0  0
  5  7  1  0  0  0  0
  5  3  1  0  0  0  0
  6  5  2  0  0  0  0
  7  1  1  0  0  0  0
  8  7  2  0  0  0  0
  8  9  1  0  0  0  0
 11 10  2  0  0  0  0
 12 11  1  0  0  0  0
 13 12  2  0  0  0  0
 13 15  1  0  0  0  0
 14 13  1  0  0  0  0
 15 16  2  0  0  0  0
 16 10  1  0  0  0  0
 17  8  1  0  0  0  0
 18 17  1  0  0  0  0
 18 20  1  0  0  0  0
 19 18  1  0  0  0  0
 21 19  2  0  0  0  0
 21 23  1  0  0  0  0
 22 19  1  0  0  0  0
 22 25  2  0  0  0  0
 23 17  2  0  0  0  0
 24 23  1  0  0  0  0
 25 26  1  0  0  0  0
 26 20  2  0  0  0  0
 28 27  1  0  0  0  0
 28 29  1  0  0  0  0
 29 31  1  0  0  0  0
 29 32  1  0  0  0  0
 30 29  1  0  0  0  0
M  END
>  <Pose>
1

>  <Score>
-8.775

$$$$
