/Users/jonathanwahrer/Desktop/Msc/3_Semester/Drug_Design_Praktikum/waehrer_HTS_screening/HTS_experiment/out/docking_results/vina_output/4x21/0381_docked.pdbqt
 OpenBabel03212201353D

 29 32  0  0  0  0  0  0  0  0999 V2000
   21.8510   33.4970   69.9890 N   0  0  0  0  0  0  0  0  0  0  0  0
   21.1190   34.5590   69.6650 N   0  0  0  0  0  0  0  0  0  0  0  0
   21.6070   35.5480   68.8630 C   0  0  0  0  0  0  0  0  0  0  0  0
   22.8580   35.4510   68.3870 N   0  0  0  0  0  0  0  0  0  0  0  0
   23.1850   36.6070   67.5830 C   0  0  0  0  0  3  0  0  0  0  0  0
   21.9740   37.4910   67.5760 C   0  0  0  0  0  3  0  0  0  0  0  0
   21.0110   36.7370   68.3560 N   0  0  0  0  0  0  0  0  0  0  0  0
   23.6430   34.4050   68.6780 C   0  0  0  0  0  0  0  0  0  0  0  0
   24.8120   34.3160   68.2330 O   0  0  0  0  0  0  0  0  0  0  0  0
   23.0990   33.4320   69.4930 C   0  0  0  0  0  0  0  0  0  0  0  0
   23.7980   32.4320   69.7950 O   0  0  0  0  0  0  0  0  0  0  0  0
   21.3280   32.4050   70.8270 C   0  0  0  0  0  2  0  0  0  0  0  0
   19.8680   32.4600   70.8960 C   0  0  0  0  0  0  0  0  0  0  0  0
   19.0720   33.4330   71.5110 N   0  0  0  0  0  0  0  0  0  0  0  0
   19.5840   34.2240   71.9940 H   0  0  0  0  0  0  0  0  0  0  0  0
   19.2930   31.4640   70.3010 O   0  0  0  0  0  0  0  0  0  0  0  0
   17.6740   33.4430   71.5440 C   0  0  0  0  0  0  0  0  0  0  0  0
   16.8560   32.6850   72.3430 C   0  0  0  0  0  3  0  0  0  0  0  0
   15.4580   32.7890   72.3200 C   0  0  0  0  0  3  0  0  0  0  0  0
   14.8230   33.6710   71.4860 C   0  0  0  0  0  0  0  0  0  0  0  0
   12.9200   33.8290   71.4450 Br  0  0  0  0  0  0  0  0  0  0  0  0
   15.6260   34.4450   70.6720 C   0  0  0  0  0  3  0  0  0  0  0  0
   16.9890   34.3370   70.6980 C   0  0  0  0  0  3  0  0  0  0  0  0
   19.6780   37.1690   68.5530 C   0  0  0  0  0  0  0  0  0  0  0  0
   19.0410   37.1490   69.7640 C   0  0  0  0  0  3  0  0  0  0  0  0
   17.7310   37.5640   69.9210 C   0  0  0  0  0  3  0  0  0  0  0  0
   17.0240   38.0190   68.8250 C   0  0  0  0  0  3  0  0  0  0  0  0
   17.6380   38.0480   67.6120 C   0  0  0  0  0  3  0  0  0  0  0  0
   18.9440   37.6320   67.4650 C   0  0  0  0  0  3  0  0  0  0  0  0
  1 12  1  0  0  0  0
  2  1  1  0  0  0  0
  3  2  2  0  0  0  0
  4  8  1  0  0  0  0
  4  3  1  0  0  0  0
  5  4  1  0  0  0  0
  6  5  2  0  0  0  0
  6  7  1  0  0  0  0
  7 24  1  0  0  0  0
  7  3  1  0  0  0  0
  8 10  1  0  0  0  0
  9  8  2  0  0  0  0
 10 11  2  0  0  0  0
 10  1  1  0  0  0  0
 12 13  1  0  0  0  0
 13 14  1  0  0  0  0
 14 17  1  0  0  0  0
 14 15  1  0  0  0  0
 16 13  2  0  0  0  0
 17 18  1  0  0  0  0
 19 18  2  0  0  0  0
 20 19  1  0  0  0  0
 21 20  1  0  0  0  0
 22 23  1  0  0  0  0
 22 20  2  0  0  0  0
 23 17  2  0  0  0  0
 24 25  1  0  0  0  0
 25 26  2  0  0  0  0
 27 26  1  0  0  0  0
 28 27  2  0  0  0  0
 29 28  1  0  0  0  0
 29 24  2  0  0  0  0
M  END
>  <Pose>
1

>  <Score>
-8.811

$$$$
