/Users/jonathanwahrer/Desktop/Msc/3_Semester/Drug_Design_Praktikum/waehrer_HTS_screening/HTS_experiment/out/docking_results/vina_output/4x21/0382_docked.pdbqt
 OpenBabel03212201353D

 31 34  0  0  0  0  0  0  0  0999 V2000
   21.9480   34.4000   69.3990 N   0  0  0  0  0  0  0  0  0  0  0  0
   22.2890   33.2530   68.8100 N   0  0  0  0  0  0  0  0  0  0  0  0
   22.7620   33.5020   67.6110 N   0  0  0  0  0  0  0  0  0  0  0  0
   22.7340   34.8410   67.4080 C   0  0  0  0  0  0  0  0  0  0  0  0
   22.2280   35.3810   68.5230 C   0  0  0  0  0  0  0  0  0  0  0  0
   22.2150   36.7380   68.2770 C   0  0  0  0  0  0  0  0  0  0  0  0
   21.7940   37.5800   69.1250 O   0  0  0  0  0  0  0  0  0  0  0  0
   22.6940   37.0340   67.0590 N   0  0  0  0  0  0  0  0  0  0  0  0
   23.0240   35.8340   66.5020 C   0  0  0  0  0  0  0  0  0  0  0  0
   23.5110   35.7290   65.3430 O   0  0  0  0  0  0  0  0  0  0  0  0
   22.1790   32.3250   69.2680 H   0  0  0  0  0  0  0  0  0  0  0  0
   23.1170   32.8220   66.8930 H   0  0  0  0  0  0  0  0  0  0  0  0
   21.3870   34.5030   70.7310 C   0  0  0  0  0  2  0  0  0  0  0  0
   19.9060   34.1680   70.6590 C   0  0  0  0  0  0  0  0  0  0  0  0
   18.9670   35.0190   71.2560 N   0  0  0  0  0  0  0  0  0  0  0  0
   19.3200   35.8930   71.7580 H   0  0  0  0  0  0  0  0  0  0  0  0
   19.5490   33.1280   70.0650 O   0  0  0  0  0  0  0  0  0  0  0  0
   17.5650   34.8370   71.2600 C   0  0  0  0  0  0  0  0  0  0  0  0
   16.6730   35.4740   70.4250 C   0  0  0  0  0  3  0  0  0  0  0  0
   15.3050   35.2410   70.4530 C   0  0  0  0  0  3  0  0  0  0  0  0
   14.7730   34.3400   71.3400 C   0  0  0  0  0  0  0  0  0  0  0  0
   12.9110   33.9700   71.4320 Br  0  0  0  0  0  0  0  0  0  0  0  0
   15.6450   33.6900   72.1860 C   0  0  0  0  0  3  0  0  0  0  0  0
   16.9830   33.9210   72.1570 C   0  0  0  0  0  3  0  0  0  0  0  0
   22.8440   38.3190   66.4370 C   0  0  0  0  0  0  0  0  0  0  0  0
   21.7520   39.1270   66.2070 C   0  0  0  0  0  3  0  0  0  0  0  0
   21.8900   40.3690   65.6200 C   0  0  0  0  0  3  0  0  0  0  0  0
   23.1210   40.8640   65.2320 C   0  0  0  0  0  0  0  0  0  0  0  0
   24.2160   40.0570   65.4620 C   0  0  0  0  0  3  0  0  0  0  0  0
   23.2350   42.2090   64.6060 C   0  0  0  0  0  1  0  0  0  0  0  0
   24.0720   38.8120   66.0520 C   0  0  0  0  0  3  0  0  0  0  0  0
  1 13  1  0  0  0  0
  2 11  1  0  0  0  0
  2  1  1  0  0  0  0
  3  2  1  0  0  0  0
  4  3  1  0  0  0  0
  4  5  2  0  0  0  0
  5  1  1  0  0  0  0
  6  5  1  0  0  0  0
  6  7  2  0  0  0  0
  8  6  1  0  0  0  0
  9  8  1  0  0  0  0
  9  4  1  0  0  0  0
 10  9  2  0  0  0  0
 12  3  1  0  0  0  0
 14 13  1  0  0  0  0
 14 15  1  0  0  0  0
 15 18  1  0  0  0  0
 15 16  1  0  0  0  0
 17 14  2  0  0  0  0
 18 24  1  0  0  0  0
 19 20  1  0  0  0  0
 19 18  2  0  0  0  0
 20 21  2  0  0  0  0
 21 22  1  0  0  0  0
 21 23  1  0  0  0  0
 24 23  2  0  0  0  0
 25  8  1  0  0  0  0
 26 25  1  0  0  0  0
 27 26  2  0  0  0  0
 28 29  2  0  0  0  0
 28 27  1  0  0  0  0
 29 31  1  0  0  0  0
 30 28  1  0  0  0  0
 31 25  2  0  0  0  0
M  END
>  <Pose>
1

>  <Score>
-9.251

$$$$
