MODEL 1
REMARK VINA RESULT:    -9.251      0.000      0.000
REMARK INTER + INTRA:         -12.185
REMARK INTER:                 -11.415
REMARK INTRA:                  -0.770
REMARK UNBOUND:                -0.770
REMARK  4 active torsions:
REMARK  status: ('A' for Active; 'I' for Inactive)
REMARK    1  A    between atoms: C_5  and  N_8 
REMARK       I    between atoms: N_8  and  C_9 
REMARK    2  A    between atoms: C_9  and  C_11 
REMARK    3  A    between atoms: C_11  and  N_12 
REMARK    4  A    between atoms: N_19  and  C_22 
ROOT
ATOM      1  N   UNK d   1      21.948  34.400  69.399  0.00  0.00    -0.261 N 
ATOM      2  N   UNK d   1      22.289  33.253  68.810  0.00  0.00    -0.239 N 
ATOM      3  N   UNK d   1      22.762  33.502  67.611  0.00  0.00    -0.279 N 
ATOM      4  C   UNK d   1      22.734  34.841  67.408  0.00  0.00     0.152 A 
ATOM      5  C   UNK d   1      22.228  35.381  68.523  0.00  0.00     0.155 A 
ATOM      6  C   UNK d   1      22.215  36.738  68.277  0.00  0.00     0.286 A 
ATOM      7  O   UNK d   1      21.794  37.580  69.125  0.00  0.00    -0.265 OA
ATOM      8  N   UNK d   1      22.694  37.034  67.059  0.00  0.00    -0.241 N 
ATOM      9  C   UNK d   1      23.024  35.834  66.502  0.00  0.00     0.286 A 
ATOM     10  O   UNK d   1      23.511  35.729  65.343  0.00  0.00    -0.265 OA
ATOM     11  H   UNK d   1      22.179  32.325  69.268  0.00  0.00     0.208 HD
ATOM     12  H   UNK d   1      23.117  32.822  66.893  0.00  0.00     0.189 HD
ENDROOT
BRANCH   1  13
ATOM     13  C   UNK d   1      21.387  34.503  70.731  0.00  0.00     0.254 C 
BRANCH  13  14
ATOM     14  C   UNK d   1      19.906  34.168  70.659  0.00  0.00     0.242 C 
ATOM     15  N   UNK d   1      18.967  35.019  71.256  0.00  0.00    -0.326 N 
ATOM     16  H   UNK d   1      19.320  35.893  71.758  0.00  0.00     0.169 HD
ATOM     17  O   UNK d   1      19.549  33.128  70.065  0.00  0.00    -0.271 OA
BRANCH  15  18
ATOM     18  C   UNK d   1      17.565  34.837  71.260  0.00  0.00     0.034 A 
ATOM     19  C   UNK d   1      16.673  35.474  70.425  0.00  0.00     0.031 A 
ATOM     20  C   UNK d   1      15.305  35.241  70.453  0.00  0.00     0.021 A 
ATOM     21  C   UNK d   1      14.773  34.340  71.340  0.00  0.00     0.011 A 
ATOM     22 Br   UNK d   1      12.911  33.970  71.432  0.00  0.00    -0.051 Br
ATOM     23  C   UNK d   1      15.645  33.690  72.186  0.00  0.00     0.021 A 
ATOM     24  C   UNK d   1      16.983  33.921  72.157  0.00  0.00     0.031 A 
ENDBRANCH  15  18
ENDBRANCH  13  14
ENDBRANCH   1  13
BRANCH   8  25
ATOM     25  C   UNK d   1      22.844  38.319  66.437  0.00  0.00     0.046 A 
ATOM     26  C   UNK d   1      21.752  39.127  66.207  0.00  0.00     0.031 A 
ATOM     27  C   UNK d   1      21.890  40.369  65.620  0.00  0.00     0.009 A 
ATOM     28  C   UNK d   1      23.121  40.864  65.232  0.00  0.00    -0.062 A 
ATOM     29  C   UNK d   1      24.216  40.057  65.462  0.00  0.00     0.009 A 
ATOM     30  C   UNK d   1      23.235  42.209  64.606  0.00  0.00     0.048 C 
ATOM     31  C   UNK d   1      24.072  38.812  66.052  0.00  0.00     0.031 A 
ENDBRANCH   8  25
TORSDOF 4
ENDMDL
