MODEL 1
REMARK VINA RESULT:    -8.548      0.000      0.000
REMARK INTER + INTRA:         -11.073
REMARK INTER:                 -10.297
REMARK INTRA:                  -0.776
REMARK UNBOUND:                -0.776
REMARK  4 active torsions:
REMARK  status: ('A' for Active; 'I' for Inactive)
REMARK    1  A    between atoms: C_5  and  N_8 
REMARK       I    between atoms: N_8  and  C_9 
REMARK    2  A    between atoms: C_9  and  C_11 
REMARK    3  A    between atoms: C_18  and  N_23 
REMARK    4  A    between atoms: C_20  and  N_22 
ROOT
ATOM      1  C   UNK d   1      18.735  37.260  70.118  0.00  0.00     0.127 C 
ATOM      2  C   UNK d   1      20.097  37.303  70.745  0.00  0.00     0.122 C 
ATOM      3  C   UNK d   1      20.663  35.987  71.066  0.00  0.00     0.224 C 
ATOM      4  O   UNK d   1      21.917  35.858  71.026  0.00  0.00    -0.273 OA
ATOM      5  N   UNK d   1      19.812  34.907  71.404  0.00  0.00    -0.310 N 
ATOM      6  C   UNK d   1      18.431  34.980  71.121  0.00  0.00     0.160 A 
ATOM      7  N   UNK d   1      17.624  33.930  71.470  0.00  0.00    -0.044 NA
ATOM      8  C   UNK d   1      16.309  33.938  71.244  0.00  0.00     0.728 A 
ATOM      9  N   UNK d   1      15.786  35.022  70.656  0.00  0.00    -0.045 NA
ATOM     10  C   UNK d   1      16.545  36.095  70.286  0.00  0.00     0.151 A 
ATOM     11  C   UNK d   1      17.907  36.111  70.509  0.00  0.00     0.048 A 
ATOM     12  H   UNK d   1      20.183  34.029  71.872  0.00  0.00     0.170 HD
ENDROOT
BRANCH   1  13
ATOM     13  C   UNK d   1      18.990  37.291  68.595  0.00  0.00     0.231 C 
ATOM     14  N   UNK d   1      20.027  36.644  68.090  0.00  0.00    -0.327 N 
ATOM     15  H   UNK d   1      19.787  37.202  66.871  0.00  0.00     0.169 HD
ATOM     16  O   UNK d   1      18.076  38.003  68.018  0.00  0.00    -0.272 OA
BRANCH  14  17
ATOM     17  C   UNK d   1      21.103  35.973  67.564  0.00  0.00     0.034 A 
ATOM     18  C   UNK d   1      21.934  36.713  66.664  0.00  0.00     0.031 A 
ATOM     19  C   UNK d   1      23.058  36.182  66.143  0.00  0.00     0.021 A 
ATOM     20  C   UNK d   1      23.459  34.905  66.449  0.00  0.00     0.011 A 
ATOM     21 Br   UNK d   1      25.066  34.168  65.702  0.00  0.00    -0.051 Br
ATOM     22  C   UNK d   1      22.686  34.159  67.310  0.00  0.00     0.021 A 
ATOM     23  C   UNK d   1      21.541  34.698  67.844  0.00  0.00     0.031 A 
ENDBRANCH  14  17
ENDBRANCH   1  13
BRANCH  10  24
ATOM     24  N   UNK d   1      15.943  37.218  69.652  0.00  0.00    -0.383 N 
ATOM     25  H   UNK d   1      15.538  38.005  70.168  0.00  0.00     0.157 HD
ATOM     26  H   UNK d   1      15.908  37.239  68.601  0.00  0.00     0.157 HD
ENDBRANCH  10  24
BRANCH   8  27
ATOM     27  N   UNK d   1      15.478  32.816  71.619  0.00  0.00    -0.210 N 
ATOM     28  C   UNK d   1      14.288  32.612  70.869  0.00  0.00     0.167 C 
ATOM     29  C   UNK d   1      13.713  31.230  70.985  0.00  0.00     0.188 C 
ATOM     30  O   UNK d   1      14.515  30.381  71.740  0.00  0.00    -0.388 OA
ATOM     31  C   UNK d   1      14.851  30.942  72.965  0.00  0.00     0.188 C 
ATOM     32  C   UNK d   1      15.914  31.981  72.719  0.00  0.00     0.167 C 
ENDBRANCH   8  27
TORSDOF 4
ENDMDL
