MODEL 1
REMARK VINA RESULT:    -7.916      0.000      0.000
REMARK INTER + INTRA:         -10.352
REMARK INTER:                  -9.304
REMARK INTRA:                  -1.048
REMARK UNBOUND:                -1.048
REMARK  3 active torsions:
REMARK  status: ('A' for Active; 'I' for Inactive)
REMARK    1  A    between atoms: C_5  and  N_8 
REMARK    2  A    between atoms: C_11  and  C_18 
REMARK    3  A    between atoms: C_12  and  N_13 
REMARK       I    between atoms: C_18  and  N_20 
ROOT
ATOM      1  N   UNK d   1      18.934  36.183  70.061  0.00  0.00    -0.216 N 
ATOM      2  N   UNK d   1      17.912  36.990  69.914  0.00  0.00    -0.177 NA
ATOM      3  C   UNK d   1      16.786  36.502  70.470  0.00  0.00     0.160 A 
ATOM      4  C   UNK d   1      17.128  35.292  71.008  0.00  0.00     0.097 A 
ATOM      5  C   UNK d   1      18.469  35.115  70.741  0.00  0.00     0.153 A 
ENDROOT
BRANCH   4   6
ATOM      6  C   UNK d   1      16.220  34.399  71.716  0.00  0.00     0.259 C 
ATOM      7  O   UNK d   1      16.429  34.246  72.943  0.00  0.00    -0.267 OA
ATOM      8  N   UNK d   1      15.149  33.722  71.093  0.00  0.00    -0.338 N 
ATOM      9  C   UNK d   1      14.308  32.859  71.887  0.00  0.00     0.146 C 
ATOM     10  C   UNK d   1      14.809  33.816  69.691  0.00  0.00     0.228 C 
ATOM     11  C   UNK d   1      12.942  33.474  71.950  0.00  0.00     0.142 C 
ATOM     12  N   UNK d   1      12.710  34.414  70.859  0.00  0.00    -0.358 N 
ATOM     13  C   UNK d   1      13.431  34.357  69.633  0.00  0.00     0.235 C 
ATOM     14  H   UNK d   1      11.968  35.162  71.007  0.00  0.00     0.162 HD
ATOM     15  O   UNK d   1      12.891  34.758  68.572  0.00  0.00    -0.272 OA
ENDBRANCH   4   6
BRANCH   5  16
ATOM     16  N   UNK d   1      19.270  33.972  71.121  0.00  0.00    -0.317 N 
ATOM     17  C   UNK d   1      19.469  32.848  70.450  0.00  0.00     0.098 A 
ATOM     18  C   UNK d   1      20.298  32.006  71.154  0.00  0.00     0.019 A 
ATOM     19  C   UNK d   1      20.603  32.680  72.312  0.00  0.00     0.019 A 
ATOM     20  C   UNK d   1      19.957  33.896  72.272  0.00  0.00     0.098 A 
ENDBRANCH   5  16
BRANCH   1  21
ATOM     21  C   UNK d   1      20.260  36.421  69.582  0.00  0.00     0.060 A 
ATOM     22  C   UNK d   1      20.656  36.054  68.310  0.00  0.00     0.033 A 
ATOM     23  C   UNK d   1      21.930  36.273  67.825  0.00  0.00     0.021 A 
ATOM     24  C   UNK d   1      22.871  36.884  68.627  0.00  0.00     0.011 A 
ATOM     25 Br   UNK d   1      24.642  37.198  67.978  0.00  0.00    -0.051 Br
ATOM     26  C   UNK d   1      22.492  37.257  69.903  0.00  0.00     0.021 A 
ATOM     27  C   UNK d   1      21.214  37.032  70.374  0.00  0.00     0.033 A 
ENDBRANCH   1  21
TORSDOF 3
ENDMDL
