/Users/jonathanwahrer/Desktop/Msc/3_Semester/Drug_Design_Praktikum/waehrer_HTS_screening/HTS_experiment/out/docking_results/vina_output/4x21/0395_docked.pdbqt
 OpenBabel03212201363D

 28 31  0  0  1  0  0  0  0  0999 V2000
   14.0960   32.8970   71.3410 N   0  0  0  0  0  0  0  0  0  0  0  0
   12.8790   33.2020   70.9240 N   0  0  0  0  0  0  0  0  0  0  0  0
   12.8170   34.4470   70.4830 N   0  0  0  0  0  0  0  0  0  0  0  0
   14.0470   35.0130   70.6070 C   0  0  0  0  0  0  0  0  0  0  0  0
   14.8280   34.0090   71.1520 C   0  0  0  0  0  0  0  0  0  0  0  0
   16.1130   34.2970   71.3850 N   0  0  0  0  0  0  0  0  0  0  0  0
   16.6100   35.5130   71.0980 C   0  0  0  0  0  3  0  0  0  0  0  0
   15.8530   36.5000   70.5660 N   0  0  0  0  0  0  0  0  0  0  0  0
   14.5620   36.2540   70.3170 C   0  0  0  0  0  0  0  0  0  0  0  0
   13.8590   37.1650   69.8260 O   0  0  0  0  0  0  0  0  0  0  0  0
   16.4800   37.7800   70.2930 C   0  0  0  0  0  2  0  0  0  0  0  0
   17.1510   37.7520   68.9430 C   0  0  0  0  0  0  0  0  0  0  0  0
   16.4830   37.9340   67.8910 O   0  0  0  0  0  0  0  0  0  0  0  0
   18.5420   37.5210   68.8310 N   0  0  0  0  0  0  0  0  0  0  0  0
   19.1960   37.4910   67.5440 C   0  0  0  0  0  2  0  0  0  0  0  0
   19.3420   37.3060   70.0140 C   0  0  0  0  0  2  0  0  0  0  0  0
   20.1260   36.2890   67.5500 C   0  0  2  0  0  3  0  0  0  0  0  0
   21.0130   36.2870   68.5950 O   0  0  0  0  0  0  0  0  0  0  0  0
   20.9490   36.3830   66.2610 C   0  0  0  0  0  1  0  0  0  0  0  0
   20.7840   37.2450   69.5520 C   0  0  2  0  0  3  0  0  0  0  0  0
   21.6910   37.1320   70.7410 C   0  0  0  0  0  1  0  0  0  0  0  0
   14.5590   31.6580   71.8840 C   0  0  0  0  0  0  0  0  0  0  0  0
   13.9590   31.1230   73.0040 C   0  0  0  0  0  3  0  0  0  0  0  0
   14.4030   29.9210   73.5360 C   0  0  0  0  0  3  0  0  0  0  0  0
   15.4490   29.2170   72.9780 C   0  0  0  0  0  0  0  0  0  0  0  0
   16.0440   27.5590   73.7310 Br  0  0  0  0  0  0  0  0  0  0  0  0
   16.0500   29.7520   71.8580 C   0  0  0  0  0  3  0  0  0  0  0  0
   15.6060   30.9470   71.3310 C   0  0  0  0  0  3  0  0  0  0  0  0
  1 22  1  0  0  0  0
  2  1  1  0  0  0  0
  3  4  1  0  0  0  0
  3  2  2  0  0  0  0
  4  5  2  0  0  0  0
  5  1  1  0  0  0  0
  5  6  1  0  0  0  0
  7  6  2  0  0  0  0
  8  7  1  0  0  0  0
  9  8  1  0  0  0  0
  9  4  1  0  0  0  0
 10  9  2  0  0  0  0
 11  8  1  0  0  0  0
 12 11  1  0  0  0  0
 13 12  2  0  0  0  0
 14 12  1  0  0  0  0
 14 16  1  0  0  0  0
 15 17  1  0  0  0  0
 15 14  1  0  0  0  0
 17 19  1  6  0  0  0
 17 18  1  0  0  0  0
 18 20  1  0  0  0  0
 20 16  1  0  0  0  0
 20 21  1  1  0  0  0
 22 23  1  0  0  0  0
 23 24  2  0  0  0  0
 25 24  1  0  0  0  0
 25 26  1  0  0  0  0
 27 25  2  0  0  0  0
 28 27  1  0  0  0  0
 28 22  2  0  0  0  0
M  END
>  <Pose>
1

>  <Score>
-9.084

$$$$
