MODEL 1
REMARK VINA RESULT:    -8.360      0.000      0.000
REMARK INTER + INTRA:         -10.372
REMARK INTER:                  -9.826
REMARK INTRA:                  -0.546
REMARK UNBOUND:                -0.546
REMARK  3 active torsions:
REMARK  status: ('A' for Active; 'I' for Inactive)
REMARK    1  A    between atoms: C_5  and  N_8 
REMARK    2  A    between atoms: C_11  and  N_15 
REMARK    3  A    between atoms: N_18  and  C_21 
ROOT
ATOM      1  N   UNK d   1      21.231  33.879  70.592  0.00  0.00    -0.251 N 
ATOM      2  C   UNK d   1      20.271  34.026  71.632  0.00  0.00     0.262 C 
ATOM      3  O   UNK d   1      19.633  35.073  71.876  0.00  0.00    -0.270 OA
ATOM      4  C   UNK d   1      20.119  32.780  72.399  0.00  0.00     0.289 C 
ATOM      5  C   UNK d   1      21.451  32.085  72.142  0.00  0.00     0.146 C 
ATOM      6  C   UNK d   1      21.811  32.572  70.773  0.00  0.00     0.233 C 
ATOM      7  O   UNK d   1      22.501  31.878  70.004  0.00  0.00    -0.273 OA
ENDROOT
BRANCH   4   8
ATOM      8  N   UNK d   1      19.023  31.933  71.986  0.00  0.00    -0.055 N 
ATOM      9  C   UNK d   1      18.007  31.812  73.004  0.00  0.00     0.255 C 
ATOM     10  C   UNK d   1      16.822  32.734  72.815  0.00  0.00     0.150 C 
ATOM     11  N   UNK d   1      16.433  32.811  71.430  0.00  0.00    -0.378 N 
ATOM     12  C   UNK d   1      17.070  31.838  70.575  0.00  0.00     0.150 C 
ATOM     13  C   UNK d   1      18.568  32.185  70.667  0.00  0.00     0.255 C 
ATOM     14  H   UNK d   1      19.465  30.952  71.958  0.00  0.00     0.281 HD
BRANCH  11  15
ATOM     15  C   UNK d   1      15.530  33.752  70.924  0.00  0.00     0.030 A 
ATOM     16  C   UNK d   1      14.314  33.461  70.339  0.00  0.00     0.032 A 
ATOM     17  C   UNK d   1      13.467  34.433  69.831  0.00  0.00     0.042 A 
ATOM     18  C   UNK d   1      13.822  35.754  69.896  0.00  0.00     0.107 A 
ATOM     19  C   UNK d   1      15.027  36.102  70.471  0.00  0.00     0.042 A 
ATOM     20  O   UNK d   1      13.015  36.781  69.404  0.00  0.00    -0.192 OA
ATOM     21  C   UNK d   1      15.856  35.113  70.971  0.00  0.00     0.032 A 
ENDBRANCH  11  15
ENDBRANCH   4   8
BRANCH   1  22
ATOM     22  C   UNK d   1      21.584  34.797  69.555  0.00  0.00     0.045 A 
ATOM     23  C   UNK d   1      22.334  35.909  69.809  0.00  0.00     0.031 A 
ATOM     24  C   UNK d   1      22.676  36.806  68.791  0.00  0.00     0.021 A 
ATOM     25  C   UNK d   1      22.273  36.605  67.499  0.00  0.00     0.011 A 
ATOM     26 Br   UNK d   1      22.737  37.827  66.100  0.00  0.00    -0.051 Br
ATOM     27  C   UNK d   1      21.518  35.485  67.239  0.00  0.00     0.021 A 
ATOM     28  C   UNK d   1      21.180  34.592  68.268  0.00  0.00     0.031 A 
ENDBRANCH   1  22
TORSDOF 3
ENDMDL
