MODEL 1
REMARK VINA RESULT:    -8.202      0.000      0.000
REMARK INTER + INTRA:         -11.546
REMARK INTER:                 -10.119
REMARK INTRA:                  -1.427
REMARK UNBOUND:                -1.427
REMARK  4 active torsions:
REMARK  status: ('A' for Active; 'I' for Inactive)
REMARK    1  A    between atoms: C_5  and  N_8 
REMARK    2  A    between atoms: C_11  and  N_15 
REMARK    3  A    between atoms: C_18  and  N_21 
REMARK    4  A    between atoms: C_18  and  C_27 
REMARK       I    between atoms: C_27  and  N_29 
ROOT
ATOM      1  N   UNK d   1      21.491  36.269  69.189  0.00  0.00    -0.399 N 
ATOM      2  C   UNK d   1      22.807  36.735  69.359  0.00  0.00     0.120 C 
ATOM      3  C   UNK d   1      23.705  36.057  68.316  0.00  0.00     0.060 C 
ATOM      4  C   UNK d   1      23.360  36.516  66.916  0.00  0.00     0.112 C 
ATOM      5  C   UNK d   1      21.895  36.608  66.773  0.00  0.00     0.060 C 
ATOM      6  C   UNK d   1      21.170  35.871  67.871  0.00  0.00     0.120 C 
ENDROOT
BRANCH   1   7
ATOM      7  C   UNK d   1      20.454  36.833  69.953  0.00  0.00     0.181 C 
ATOM      8  C   UNK d   1      20.051  35.887  71.026  0.00  0.00     0.254 C 
ATOM      9  N   UNK d   1      18.735  35.415  70.717  0.00  0.00    -0.251 N 
ATOM     10  O   UNK d   1      20.764  35.580  72.012  0.00  0.00    -0.270 OA
ATOM     11  C   UNK d   1      18.145  36.444  69.934  0.00  0.00     0.233 C 
ATOM     12  C   UNK d   1      19.203  37.150  69.164  0.00  0.00     0.138 C 
ATOM     13  O   UNK d   1      16.891  36.706  69.910  0.00  0.00    -0.273 OA
BRANCH   9  14
ATOM     14  C   UNK d   1      18.155  34.171  71.121  0.00  0.00     0.045 A 
ATOM     15  C   UNK d   1      18.515  33.012  70.487  0.00  0.00     0.031 A 
ATOM     16  C   UNK d   1      17.958  31.785  70.869  0.00  0.00     0.021 A 
ATOM     17  C   UNK d   1      17.037  31.692  71.887  0.00  0.00     0.011 A 
ATOM     18 Br   UNK d   1      16.271  30.022  72.417  0.00  0.00    -0.051 Br
ATOM     19  C   UNK d   1      16.675  32.859  72.524  0.00  0.00     0.021 A 
ATOM     20  C   UNK d   1      17.233  34.067  72.138  0.00  0.00     0.031 A 
ENDBRANCH   9  14
ENDBRANCH   1   7
BRANCH   4  21
ATOM     21  N   UNK d   1      24.099  37.677  66.634  0.00  0.00    -0.396 N 
ATOM     22  C   UNK d   1      23.435  38.789  66.098  0.00  0.00     0.118 C 
ATOM     23  C   UNK d   1      24.168  39.160  64.797  0.00  0.00     0.019 C 
ATOM     24  C   UNK d   1      25.552  39.609  65.220  0.00  0.00     0.003 C 
ATOM     25  C   UNK d   1      25.912  39.196  66.609  0.00  0.00     0.019 C 
ATOM     26  C   UNK d   1      25.441  37.775  66.950  0.00  0.00     0.118 C 
ENDBRANCH   4  21
BRANCH   4  27
ATOM     27  C   UNK d   1      23.857  35.425  66.005  0.00  0.00     0.243 C 
ATOM     28  O   UNK d   1      23.821  35.587  64.748  0.00  0.00    -0.271 OA
ATOM     29  N   UNK d   1      24.373  34.198  66.486  0.00  0.00    -0.368 N 
ATOM     30  H   UNK d   1      23.896  33.319  66.252  0.00  0.00     0.159 HD
ATOM     31  H   UNK d   1      25.230  34.172  67.072  0.00  0.00     0.159 HD
ENDBRANCH   4  27
TORSDOF 4
ENDMDL
