/Users/jonathanwahrer/Desktop/Msc/3_Semester/Drug_Design_Praktikum/waehrer_HTS_screening/HTS_experiment/out/docking_results/vina_output/4x21/0400_docked.pdbqt
 OpenBabel03212201363D

 31 34  0  0  1  0  0  0  0  0999 V2000
   21.4910   36.2690   69.1890 N   0  0  2  0  0  0  0  0  0  0  0  0
   22.8070   36.7350   69.3590 C   0  0  0  0  0  2  0  0  0  0  0  0
   23.7050   36.0570   68.3160 C   0  0  0  0  0  2  0  0  0  0  0  0
   23.3600   36.5160   66.9160 C   0  0  1  0  0  0  0  0  0  0  0  0
   21.8950   36.6080   66.7730 C   0  0  0  0  0  2  0  0  0  0  0  0
   21.1700   35.8710   67.8710 C   0  0  0  0  0  2  0  0  0  0  0  0
   20.4540   36.8330   69.9530 C   0  0  2  0  0  3  0  0  0  0  0  0
   20.0510   35.8870   71.0260 C   0  0  0  0  0  0  0  0  0  0  0  0
   18.7350   35.4150   70.7170 N   0  0  0  0  0  0  0  0  0  0  0  0
   20.7640   35.5800   72.0120 O   0  0  0  0  0  0  0  0  0  0  0  0
   18.1450   36.4440   69.9340 C   0  0  0  0  0  0  0  0  0  0  0  0
   19.2030   37.1500   69.1640 C   0  0  0  0  0  2  0  0  0  0  0  0
   16.8910   36.7060   69.9100 O   0  0  0  0  0  0  0  0  0  0  0  0
   18.1550   34.1710   71.1210 C   0  0  0  0  0  0  0  0  0  0  0  0
   18.5150   33.0120   70.4870 C   0  0  0  0  0  3  0  0  0  0  0  0
   17.9580   31.7850   70.8690 C   0  0  0  0  0  3  0  0  0  0  0  0
   17.0370   31.6920   71.8870 C   0  0  0  0  0  0  0  0  0  0  0  0
   16.2710   30.0220   72.4170 Br  0  0  0  0  0  0  0  0  0  0  0  0
   16.6750   32.8590   72.5240 C   0  0  0  0  0  3  0  0  0  0  0  0
   17.2330   34.0670   72.1380 C   0  0  0  0  0  3  0  0  0  0  0  0
   24.0990   37.6770   66.6340 N   0  0  0  0  0  0  0  0  0  0  0  0
   23.4350   38.7890   66.0980 C   0  0  0  0  0  2  0  0  0  0  0  0
   24.1680   39.1600   64.7970 C   0  0  0  0  0  2  0  0  0  0  0  0
   25.5520   39.6090   65.2200 C   0  0  0  0  0  2  0  0  0  0  0  0
   25.9120   39.1960   66.6090 C   0  0  0  0  0  2  0  0  0  0  0  0
   25.4410   37.7750   66.9500 C   0  0  0  0  0  2  0  0  0  0  0  0
   23.8570   35.4250   66.0050 C   0  0  0  0  0  0  0  0  0  0  0  0
   23.8210   35.5870   64.7480 O   0  0  0  0  0  0  0  0  0  0  0  0
   24.3730   34.1980   66.4860 N   0  0  0  0  0  0  0  0  0  0  0  0
   23.8960   33.3190   66.2520 H   0  0  0  0  0  0  0  0  0  0  0  0
   25.2300   34.1720   67.0720 H   0  0  0  0  0  0  0  0  0  0  0  0
  1  6  1  6  0  0  0
  1  2  1  0  0  0  0
  1  7  1  0  0  0  0
  3  2  1  0  0  0  0
  4 27  1  6  0  0  0
  4  3  1  0  0  0  0
  5  4  1  0  0  0  0
  5  6  1  0  0  0  0
  7 12  1  6  0  0  0
  7  8  1  0  0  0  0
  8 10  2  0  0  0  0
  9  8  1  0  0  0  0
  9 14  1  0  0  0  0
 11  9  1  0  0  0  0
 12 11  1  0  0  0  0
 13 11  2  0  0  0  0
 14 20  1  0  0  0  0
 15 16  1  0  0  0  0
 15 14  2  0  0  0  0
 16 17  2  0  0  0  0
 17 18  1  0  0  0  0
 17 19  1  0  0  0  0
 20 19  2  0  0  0  0
 21  4  1  0  0  0  0
 21 26  1  0  0  0  0
 22 21  1  0  0  0  0
 23 24  1  0  0  0  0
 23 22  1  0  0  0  0
 24 25  1  0  0  0  0
 25 26  1  0  0  0  0
 27 29  1  0  0  0  0
 28 27  2  0  0  0  0
 29 31  1  0  0  0  0
 30 29  1  0  0  0  0
M  END
>  <Pose>
1

>  <Score>
-8.202

$$$$
