MODEL 1
REMARK VINA RESULT:    -8.997      0.000      0.000
REMARK INTER + INTRA:         -12.737
REMARK INTER:                 -12.153
REMARK INTRA:                  -0.584
REMARK UNBOUND:                -0.584
REMARK  6 active torsions:
REMARK  status: ('A' for Active; 'I' for Inactive)
REMARK    1  A    between atoms: C_5  and  N_8 
REMARK    2  A    between atoms: N_15  and  C_16 
REMARK    3  A    between atoms: C_16  and  C_17 
REMARK       I    between atoms: C_17  and  N_19 
REMARK    4  A    between atoms: N_19  and  C_20 
REMARK    5  A    between atoms: C_22  and  O_28 
REMARK    6  A    between atoms: C_24  and  O_26 
ROOT
ATOM      1  N   UNK d   1      22.650  37.015  67.030  0.00  0.00    -0.241 N 
ATOM      2  C   UNK d   1      22.123  36.698  68.215  0.00  0.00     0.286 A 
ATOM      3  O   UNK d   1      21.616  37.546  69.022  0.00  0.00    -0.265 OA
ATOM      4  C   UNK d   1      22.178  35.352  68.497  0.00  0.00     0.155 A 
ATOM      5  C   UNK d   1      22.775  34.816  67.414  0.00  0.00     0.152 A 
ATOM      6  N   UNK d   1      22.841  33.487  67.666  0.00  0.00    -0.279 N 
ATOM      7  N   UNK d   1      22.309  33.220  68.845  0.00  0.00    -0.239 N 
ATOM      8  N   UNK d   1      21.900  34.362  69.359  0.00  0.00    -0.261 N 
ATOM      9  C   UNK d   1      23.066  35.816  66.516  0.00  0.00     0.286 A 
ATOM     10  O   UNK d   1      23.621  35.721  65.395  0.00  0.00    -0.265 OA
ATOM     11  H   UNK d   1      23.261  32.793  67.004  0.00  0.00     0.189 HD
ATOM     12  H   UNK d   1      22.255  32.246  69.246  0.00  0.00     0.208 HD
ENDROOT
BRANCH   8  13
ATOM     13  C   UNK d   1      21.260  34.501  70.635  0.00  0.00     0.254 C 
BRANCH  13  14
ATOM     14  C   UNK d   1      19.827  34.216  70.611  0.00  0.00     0.242 C 
ATOM     15  O   UNK d   1      19.342  33.214  70.010  0.00  0.00    -0.271 OA
ATOM     16  N   UNK d   1      18.959  35.105  71.284  0.00  0.00    -0.326 N 
ATOM     17  H   UNK d   1      19.346  35.960  71.793  0.00  0.00     0.169 HD
BRANCH  16  18
ATOM     18  C   UNK d   1      17.565  34.845  71.272  0.00  0.00     0.040 A 
ATOM     19  C   UNK d   1      16.775  35.766  70.630  0.00  0.00     0.066 A 
ATOM     20  C   UNK d   1      15.386  35.598  70.599  0.00  0.00     0.073 A 
ATOM     21  C   UNK d   1      14.817  34.512  71.211  0.00  0.00     0.073 A 
ATOM     22  C   UNK d   1      15.606  33.569  71.867  0.00  0.00     0.073 A 
ATOM     23  C   UNK d   1      16.978  33.765  71.878  0.00  0.00     0.066 A 
BRANCH  20  24
ATOM     24  O   UNK d   1      14.694  36.577  69.927  0.00  0.00    -0.356 OA
ATOM     25  C   UNK d   1      13.367  36.487  69.558  0.00  0.00     0.210 C 
ENDBRANCH  20  24
BRANCH  22  26
ATOM     26  O   UNK d   1      14.963  32.505  72.464  0.00  0.00    -0.356 OA
ATOM     27  C   UNK d   1      15.550  31.459  73.173  0.00  0.00     0.210 C 
ENDBRANCH  22  26
ENDBRANCH  16  18
ENDBRANCH  13  14
ENDBRANCH   8  13
BRANCH   1  28
ATOM     28  C   UNK d   1      22.773  38.289  66.391  0.00  0.00     0.046 A 
ATOM     29  C   UNK d   1      21.666  39.061  66.138  0.00  0.00     0.031 A 
ATOM     30  C   UNK d   1      21.795  40.310  65.512  0.00  0.00     0.021 A 
ATOM     31  C   UNK d   1      23.027  40.791  65.138  0.00  0.00     0.011 A 
ATOM     32 Br   UNK d   1      23.208  42.509  64.282  0.00  0.00    -0.051 Br
ATOM     33  C   UNK d   1      24.134  40.016  65.393  0.00  0.00     0.021 A 
ATOM     34  C   UNK d   1      23.997  38.792  66.005  0.00  0.00     0.031 A 
ENDBRANCH   1  28
TORSDOF 6
ENDMDL
