/Users/jonathanwahrer/Desktop/Msc/3_Semester/Drug_Design_Praktikum/waehrer_HTS_screening/HTS_experiment/out/docking_results/vina_output/4x21/0412_docked.pdbqt
 OpenBabel03212201373D

 34 37  0  0  0  0  0  0  0  0999 V2000
   22.6500   37.0150   67.0300 N   0  0  0  0  0  0  0  0  0  0  0  0
   22.1230   36.6980   68.2150 C   0  0  0  0  0  0  0  0  0  0  0  0
   21.6160   37.5460   69.0220 O   0  0  0  0  0  0  0  0  0  0  0  0
   22.1780   35.3520   68.4970 C   0  0  0  0  0  0  0  0  0  0  0  0
   22.7750   34.8160   67.4140 C   0  0  0  0  0  0  0  0  0  0  0  0
   22.8410   33.4870   67.6660 N   0  0  0  0  0  0  0  0  0  0  0  0
   22.3090   33.2200   68.8450 N   0  0  0  0  0  0  0  0  0  0  0  0
   21.9000   34.3620   69.3590 N   0  0  0  0  0  0  0  0  0  0  0  0
   23.0660   35.8160   66.5160 C   0  0  0  0  0  0  0  0  0  0  0  0
   23.6210   35.7210   65.3950 O   0  0  0  0  0  0  0  0  0  0  0  0
   23.2610   32.7930   67.0040 H   0  0  0  0  0  0  0  0  0  0  0  0
   22.2550   32.2460   69.2460 H   0  0  0  0  0  0  0  0  0  0  0  0
   21.2600   34.5010   70.6350 C   0  0  0  0  0  2  0  0  0  0  0  0
   19.8270   34.2160   70.6110 C   0  0  0  0  0  0  0  0  0  0  0  0
   19.3420   33.2140   70.0100 O   0  0  0  0  0  0  0  0  0  0  0  0
   18.9590   35.1050   71.2840 N   0  0  0  0  0  0  0  0  0  0  0  0
   19.3460   35.9600   71.7930 H   0  0  0  0  0  0  0  0  0  0  0  0
   17.5650   34.8450   71.2720 C   0  0  0  0  0  0  0  0  0  0  0  0
   16.7750   35.7660   70.6300 C   0  0  0  0  0  3  0  0  0  0  0  0
   15.3860   35.5980   70.5990 C   0  0  0  0  0  0  0  0  0  0  0  0
   14.8170   34.5120   71.2110 C   0  0  0  0  0  3  0  0  0  0  0  0
   15.6060   33.5690   71.8670 C   0  0  0  0  0  0  0  0  0  0  0  0
   16.9780   33.7650   71.8780 C   0  0  0  0  0  3  0  0  0  0  0  0
   14.6940   36.5770   69.9270 O   0  0  0  0  0  0  0  0  0  0  0  0
   13.3670   36.4870   69.5580 C   0  0  0  0  0  1  0  0  0  0  0  0
   14.9630   32.5050   72.4640 O   0  0  0  0  0  0  0  0  0  0  0  0
   15.5500   31.4590   73.1730 C   0  0  0  0  0  1  0  0  0  0  0  0
   22.7730   38.2890   66.3910 C   0  0  0  0  0  0  0  0  0  0  0  0
   21.6660   39.0610   66.1380 C   0  0  0  0  0  3  0  0  0  0  0  0
   21.7950   40.3100   65.5120 C   0  0  0  0  0  3  0  0  0  0  0  0
   23.0270   40.7910   65.1380 C   0  0  0  0  0  0  0  0  0  0  0  0
   23.2080   42.5090   64.2820 Br  0  0  0  0  0  0  0  0  0  0  0  0
   24.1340   40.0160   65.3930 C   0  0  0  0  0  3  0  0  0  0  0  0
   23.9970   38.7920   66.0050 C   0  0  0  0  0  3  0  0  0  0  0  0
  1  2  1  0  0  0  0
  2  4  1  0  0  0  0
  2  3  2  0  0  0  0
  4  8  1  0  0  0  0
  5  6  1  0  0  0  0
  5  4  2  0  0  0  0
  6  7  1  0  0  0  0
  7 12  1  0  0  0  0
  7  8  1  0  0  0  0
  8 13  1  0  0  0  0
  9  1  1  0  0  0  0
  9  5  1  0  0  0  0
 10  9  2  0  0  0  0
 11  6  1  0  0  0  0
 14 13  1  0  0  0  0
 14 16  1  0  0  0  0
 15 14  2  0  0  0  0
 16 17  1  0  0  0  0
 18 16  1  0  0  0  0
 18 23  1  0  0  0  0
 19 18  2  0  0  0  0
 20 19  1  0  0  0  0
 20 21  2  0  0  0  0
 21 22  1  0  0  0  0
 22 23  2  0  0  0  0
 22 26  1  0  0  0  0
 24 20  1  0  0  0  0
 25 24  1  0  0  0  0
 26 27  1  0  0  0  0
 28  1  1  0  0  0  0
 29 28  1  0  0  0  0
 30 29  2  0  0  0  0
 31 33  2  0  0  0  0
 31 30  1  0  0  0  0
 32 31  1  0  0  0  0
 33 34  1  0  0  0  0
 34 28  2  0  0  0  0
M  END
>  <Pose>
1

>  <Score>
-8.997

$$$$
