MODEL 1
REMARK VINA RESULT:    -9.514      0.000      0.000
REMARK INTER + INTRA:         -14.507
REMARK INTER:                 -13.407
REMARK INTRA:                  -1.100
REMARK UNBOUND:                -1.100
REMARK  7 active torsions:
REMARK  status: ('A' for Active; 'I' for Inactive)
REMARK    1  A    between atoms: C_5  and  N_8 
REMARK    2  A    between atoms: N_15  and  C_16 
REMARK    3  A    between atoms: C_16  and  C_17 
REMARK       I    between atoms: C_17  and  N_19 
REMARK    4  A    between atoms: N_19  and  C_20 
REMARK    5  A    between atoms: C_23  and  C_26 
REMARK    6  A    between atoms: C_26  and  O_28 
REMARK    7  A    between atoms: O_28  and  C_29 
ROOT
ATOM      1  N   UNK d   1      23.384  36.650  66.657  0.00  0.00    -0.241 N 
ATOM      2  C   UNK d   1      22.975  36.287  67.899  0.00  0.00     0.286 A 
ATOM      3  O   UNK d   1      22.543  37.068  68.804  0.00  0.00    -0.265 OA
ATOM      4  C   UNK d   1      23.097  34.916  68.046  0.00  0.00     0.155 A 
ATOM      5  C   UNK d   1      23.579  34.474  66.887  0.00  0.00     0.152 A 
ATOM      6  N   UNK d   1      23.709  33.131  67.004  0.00  0.00    -0.279 N 
ATOM      7  N   UNK d   1      23.303  32.797  68.226  0.00  0.00    -0.239 N 
ATOM      8  N   UNK d   1      22.921  33.868  68.895  0.00  0.00    -0.261 N 
ATOM      9  C   UNK d   1      23.760  35.529  66.025  0.00  0.00     0.286 A 
ATOM     10  O   UNK d   1      24.196  35.481  64.853  0.00  0.00    -0.265 OA
ATOM     11  H   UNK d   1      24.062  32.490  66.265  0.00  0.00     0.189 HD
ATOM     12  H   UNK d   1      23.293  31.830  68.594  0.00  0.00     0.208 HD
ENDROOT
BRANCH   8  13
ATOM     13  C   UNK d   1      22.407  33.973  70.255  0.00  0.00     0.254 C 
BRANCH  13  14
ATOM     14  C   UNK d   1      20.909  34.148  70.204  0.00  0.00     0.242 C 
ATOM     15  O   UNK d   1      20.308  33.078  69.934  0.00  0.00    -0.271 OA
ATOM     16  N   UNK d   1      20.347  35.400  70.444  0.00  0.00    -0.326 N 
ATOM     17  H   UNK d   1      21.041  36.184  70.657  0.00  0.00     0.169 HD
BRANCH  16  18
ATOM     18  C   UNK d   1      18.971  35.738  70.435  0.00  0.00     0.034 A 
ATOM     19  C   UNK d   1      17.963  34.973  70.973  0.00  0.00     0.030 A 
ATOM     20  C   UNK d   1      16.622  35.378  70.924  0.00  0.00     0.020 A 
ATOM     21  C   UNK d   1      16.254  36.563  70.333  0.00  0.00     0.039 A 
ATOM     22  C   UNK d   1      17.253  37.336  69.793  0.00  0.00     0.020 A 
ATOM     23  C   UNK d   1      18.574  36.935  69.842  0.00  0.00     0.030 A 
BRANCH  21  24
ATOM     24  C   UNK d   1      14.846  36.944  70.306  0.00  0.00     0.293 C 
ATOM     25  O   UNK d   1      14.469  37.876  71.060  0.00  0.00    -0.259 OA
BRANCH  24  26
ATOM     26  O   UNK d   1      13.902  36.354  69.513  0.00  0.00    -0.318 OA
BRANCH  26  27
ATOM     27  C   UNK d   1      12.959  35.402  69.915  0.00  0.00     0.174 C 
ATOM     28  C   UNK d   1      13.498  34.037  69.464  0.00  0.00     0.034 C 
ENDBRANCH  26  27
ENDBRANCH  24  26
ENDBRANCH  21  24
ENDBRANCH  16  18
ENDBRANCH  13  14
ENDBRANCH   8  13
BRANCH   1  29
ATOM     29  C   UNK d   1      23.384  37.995  66.187  0.00  0.00     0.046 A 
ATOM     30  C   UNK d   1      22.201  38.718  66.179  0.00  0.00     0.031 A 
ATOM     31  C   UNK d   1      22.164  40.003  65.737  0.00  0.00     0.021 A 
ATOM     32  C   UNK d   1      23.295  40.646  65.279  0.00  0.00     0.011 A 
ATOM     33 Br   UNK d   1      23.289  42.441  64.653  0.00  0.00    -0.051 Br
ATOM     34  C   UNK d   1      24.463  39.917  65.292  0.00  0.00     0.021 A 
ATOM     35  C   UNK d   1      24.516  38.622  65.733  0.00  0.00     0.031 A 
ENDBRANCH   1  29
TORSDOF 7
ENDMDL
