MODEL 1
REMARK VINA RESULT:    -9.348      0.000      0.000
REMARK INTER + INTRA:         -13.199
REMARK INTER:                 -12.627
REMARK INTRA:                  -0.572
REMARK UNBOUND:                -0.572
REMARK  6 active torsions:
REMARK  status: ('A' for Active; 'I' for Inactive)
REMARK    1  A    between atoms: C_5  and  N_8 
REMARK    2  A    between atoms: N_15  and  C_16 
REMARK    3  A    between atoms: C_16  and  C_17 
REMARK       I    between atoms: C_17  and  N_19 
REMARK    4  A    between atoms: N_19  and  C_20 
REMARK    5  A    between atoms: C_23  and  O_26 
REMARK    6  A    between atoms: O_26  and  C_27 
ROOT
ATOM      1  N   UNK d   1      22.982  36.826  66.789  0.00  0.00    -0.241 N 
ATOM      2  C   UNK d   1      22.469  36.474  68.001  0.00  0.00     0.286 A 
ATOM      3  O   UNK d   1      21.958  37.291  68.804  0.00  0.00    -0.265 OA
ATOM      4  C   UNK d   1      22.591  35.118  68.212  0.00  0.00     0.155 A 
ATOM      5  C   UNK d   1      23.180  34.634  67.128  0.00  0.00     0.152 A 
ATOM      6  N   UNK d   1      23.313  33.308  67.306  0.00  0.00    -0.279 N 
ATOM      7  N   UNK d   1      22.807  33.000  68.492  0.00  0.00    -0.239 N 
ATOM      8  N   UNK d   1      22.352  34.092  69.077  0.00  0.00    -0.261 N 
ATOM      9  C   UNK d   1      23.419  35.675  66.259  0.00  0.00     0.286 A 
ATOM     10  O   UNK d   1      23.968  35.598  65.115  0.00  0.00    -0.265 OA
ATOM     11  H   UNK d   1      23.729  32.618  66.656  0.00  0.00     0.189 HD
ATOM     12  H   UNK d   1      22.775  32.020  68.898  0.00  0.00     0.208 HD
ENDROOT
BRANCH   8  13
ATOM     13  C   UNK d   1      21.739  34.217  70.367  0.00  0.00     0.254 C 
BRANCH  13  14
ATOM     14  C   UNK d   1      20.241  34.402  70.303  0.00  0.00     0.242 C 
ATOM     15  O   UNK d   1      19.571  33.351  70.200  0.00  0.00    -0.271 OA
ATOM     16  N   UNK d   1      19.651  35.662  70.362  0.00  0.00    -0.326 N 
ATOM     17  H   UNK d   1      20.341  36.489  70.444  0.00  0.00     0.169 HD
BRANCH  16  18
ATOM     18  C   UNK d   1      18.295  36.030  70.328  0.00  0.00     0.034 A 
ATOM     19  C   UNK d   1      17.347  35.266  71.008  0.00  0.00     0.032 A 
ATOM     20  C   UNK d   1      16.014  35.577  70.987  0.00  0.00     0.039 A 
ATOM     21  C   UNK d   1      15.560  36.686  70.271  0.00  0.00     0.068 A 
ATOM     22  C   UNK d   1      16.518  37.419  69.614  0.00  0.00     0.039 A 
ATOM     23  C   UNK d   1      17.859  37.112  69.633  0.00  0.00     0.032 A 
BRANCH  21  24
ATOM     24  O   UNK d   1      14.212  36.960  70.274  0.00  0.00    -0.352 OA
BRANCH  24  25
ATOM     25  C   UNK d   1      13.289  36.613  69.294  0.00  0.00     0.171 C 
ATOM     26  C   UNK d   1      12.941  35.165  69.259  0.00  0.00     0.034 C 
ENDBRANCH  24  25
ENDBRANCH  21  24
ENDBRANCH  16  18
ENDBRANCH  13  14
ENDBRANCH   8  13
BRANCH   1  27
ATOM     27  C   UNK d   1      23.048  38.128  66.213  0.00  0.00     0.046 A 
ATOM     28  C   UNK d   1      24.191  38.660  65.653  0.00  0.00     0.031 A 
ATOM     29  C   UNK d   1      24.215  39.934  65.106  0.00  0.00     0.021 A 
ATOM     30  C   UNK d   1      23.092  40.734  65.095  0.00  0.00     0.011 A 
ATOM     31 Br   UNK d   1      23.103  42.492  64.352  0.00  0.00    -0.051 Br
ATOM     32  C   UNK d   1      21.942  40.194  65.659  0.00  0.00     0.021 A 
ATOM     33  C   UNK d   1      21.919  38.927  66.203  0.00  0.00     0.031 A 
ENDBRANCH   1  27
TORSDOF 6
ENDMDL
