/Users/jonathanwahrer/Desktop/Msc/3_Semester/Drug_Design_Praktikum/waehrer_HTS_screening/HTS_experiment/out/docking_results/vina_output/4x21/0416_docked.pdbqt
 OpenBabel03212201383D

 33 36  0  0  0  0  0  0  0  0999 V2000
   22.9820   36.8260   66.7890 N   0  0  0  0  0  0  0  0  0  0  0  0
   22.4690   36.4740   68.0010 C   0  0  0  0  0  0  0  0  0  0  0  0
   21.9580   37.2910   68.8040 O   0  0  0  0  0  0  0  0  0  0  0  0
   22.5910   35.1180   68.2120 C   0  0  0  0  0  0  0  0  0  0  0  0
   23.1800   34.6340   67.1280 C   0  0  0  0  0  0  0  0  0  0  0  0
   23.3130   33.3080   67.3060 N   0  0  0  0  0  0  0  0  0  0  0  0
   22.8070   33.0000   68.4920 N   0  0  0  0  0  0  0  0  0  0  0  0
   22.3520   34.0920   69.0770 N   0  0  0  0  0  0  0  0  0  0  0  0
   23.4190   35.6750   66.2590 C   0  0  0  0  0  0  0  0  0  0  0  0
   23.9680   35.5980   65.1150 O   0  0  0  0  0  0  0  0  0  0  0  0
   23.7290   32.6180   66.6560 H   0  0  0  0  0  0  0  0  0  0  0  0
   22.7750   32.0200   68.8980 H   0  0  0  0  0  0  0  0  0  0  0  0
   21.7390   34.2170   70.3670 C   0  0  0  0  0  2  0  0  0  0  0  0
   20.2410   34.4020   70.3030 C   0  0  0  0  0  0  0  0  0  0  0  0
   19.5710   33.3510   70.2000 O   0  0  0  0  0  0  0  0  0  0  0  0
   19.6510   35.6620   70.3620 N   0  0  0  0  0  0  0  0  0  0  0  0
   20.3410   36.4890   70.4440 H   0  0  0  0  0  0  0  0  0  0  0  0
   18.2950   36.0300   70.3280 C   0  0  0  0  0  0  0  0  0  0  0  0
   17.3470   35.2660   71.0080 C   0  0  0  0  0  3  0  0  0  0  0  0
   16.0140   35.5770   70.9870 C   0  0  0  0  0  3  0  0  0  0  0  0
   15.5600   36.6860   70.2710 C   0  0  0  0  0  0  0  0  0  0  0  0
   16.5180   37.4190   69.6140 C   0  0  0  0  0  3  0  0  0  0  0  0
   17.8590   37.1120   69.6330 C   0  0  0  0  0  3  0  0  0  0  0  0
   14.2120   36.9600   70.2740 O   0  0  0  0  0  0  0  0  0  0  0  0
   13.2890   36.6130   69.2940 C   0  0  0  0  0  2  0  0  0  0  0  0
   12.9410   35.1650   69.2590 C   0  0  0  0  0  1  0  0  0  0  0  0
   23.0480   38.1280   66.2130 C   0  0  0  0  0  0  0  0  0  0  0  0
   24.1910   38.6600   65.6530 C   0  0  0  0  0  3  0  0  0  0  0  0
   24.2150   39.9340   65.1060 C   0  0  0  0  0  3  0  0  0  0  0  0
   23.0920   40.7340   65.0950 C   0  0  0  0  0  0  0  0  0  0  0  0
   23.1030   42.4920   64.3520 Br  0  0  0  0  0  0  0  0  0  0  0  0
   21.9420   40.1940   65.6590 C   0  0  0  0  0  3  0  0  0  0  0  0
   21.9190   38.9270   66.2030 C   0  0  0  0  0  3  0  0  0  0  0  0
  1  2  1  0  0  0  0
  2  4  1  0  0  0  0
  2  3  2  0  0  0  0
  4  8  1  0  0  0  0
  5  6  1  0  0  0  0
  5  4  2  0  0  0  0
  6  7  1  0  0  0  0
  7 12  1  0  0  0  0
  7  8  1  0  0  0  0
  8 13  1  0  0  0  0
  9  1  1  0  0  0  0
  9  5  1  0  0  0  0
 10  9  2  0  0  0  0
 11  6  1  0  0  0  0
 14 16  1  0  0  0  0
 14 13  1  0  0  0  0
 15 14  2  0  0  0  0
 16 17  1  0  0  0  0
 18 16  1  0  0  0  0
 18 19  1  0  0  0  0
 20 19  2  0  0  0  0
 21 24  1  0  0  0  0
 21 20  1  0  0  0  0
 22 23  1  0  0  0  0
 22 21  2  0  0  0  0
 23 18  2  0  0  0  0
 25 24  1  0  0  0  0
 26 25  1  0  0  0  0
 27  1  1  0  0  0  0
 28 27  2  0  0  0  0
 29 28  1  0  0  0  0
 30 29  2  0  0  0  0
 30 32  1  0  0  0  0
 31 30  1  0  0  0  0
 32 33  2  0  0  0  0
 33 27  1  0  0  0  0
M  END
>  <Pose>
1

>  <Score>
-9.348

$$$$
