MODEL 1
REMARK VINA RESULT:    -8.441      0.000      0.000
REMARK INTER + INTRA:         -10.543
REMARK INTER:                  -9.921
REMARK INTRA:                  -0.622
REMARK UNBOUND:                -0.622
REMARK  3 active torsions:
REMARK  status: ('A' for Active; 'I' for Inactive)
REMARK    1  A    between atoms: C_5  and  N_8 
REMARK    2  A    between atoms: N_15  and  C_16 
REMARK    3  A    between atoms: C_19  and  N_22 
ROOT
ATOM      1  N   UNK d   1      16.092  34.125  71.297  0.00  0.00    -0.241 N 
ATOM      2  C   UNK d   1      17.269  34.597  70.829  0.00  0.00     0.286 A 
ATOM      3  O   UNK d   1      18.367  33.964  70.715  0.00  0.00    -0.265 OA
ATOM      4  C   UNK d   1      17.155  35.925  70.462  0.00  0.00     0.160 A 
ATOM      5  C   UNK d   1      15.885  36.248  70.717  0.00  0.00     0.152 A 
ATOM      6  N   UNK d   1      15.771  37.549  70.357  0.00  0.00    -0.278 N 
ATOM      7  N   UNK d   1      16.943  37.966  69.907  0.00  0.00    -0.234 N 
ATOM      8  N   UNK d   1      17.822  36.979  69.960  0.00  0.00    -0.234 N 
ATOM      9  C   UNK d   1      15.226  35.151  71.229  0.00  0.00     0.286 A 
ATOM     10  O   UNK d   1      14.025  35.065  71.587  0.00  0.00    -0.265 OA
ATOM     11  H   UNK d   1      14.883  38.111  70.434  0.00  0.00     0.189 HD
ATOM     12  H   UNK d   1      17.186  38.927  69.551  0.00  0.00     0.209 HD
ENDROOT
BRANCH   8  13
ATOM     13  C   UNK d   1      19.198  37.033  69.562  0.00  0.00     0.058 A 
ATOM     14  C   UNK d   1      20.212  36.956  70.494  0.00  0.00     0.034 A 
ATOM     15  C   UNK d   1      21.554  37.005  70.139  0.00  0.00     0.038 A 
ATOM     16  C   UNK d   1      21.913  37.135  68.815  0.00  0.00     0.103 A 
ATOM     17  C   UNK d   1      20.902  37.212  67.881  0.00  0.00     0.038 A 
ATOM     18  C   UNK d   1      19.563  37.163  68.239  0.00  0.00     0.034 A 
BRANCH  16  19
ATOM     19  N   UNK d   1      23.281  37.188  68.420  0.00  0.00    -0.116 N 
ATOM     20  O   UNK d   1      23.625  37.223  67.223  0.00  0.00    -0.532 OA
ATOM     21  O   UNK d   1      24.248  37.200  69.374  0.00  0.00    -0.532 OA
ENDBRANCH  16  19
ENDBRANCH   8  13
BRANCH   1  22
ATOM     22  C   UNK d   1      15.844  32.794  71.766  0.00  0.00     0.046 A 
ATOM     23  C   UNK d   1      15.077  31.890  71.060  0.00  0.00     0.031 A 
ATOM     24  C   UNK d   1      14.854  30.604  71.543  0.00  0.00     0.021 A 
ATOM     25  C   UNK d   1      15.393  30.191  72.744  0.00  0.00     0.011 A 
ATOM     26 Br   UNK d   1      15.099  28.426  73.424  0.00  0.00    -0.051 Br
ATOM     27  C   UNK d   1      16.161  31.092  73.452  0.00  0.00     0.021 A 
ATOM     28  C   UNK d   1      16.377  32.367  72.965  0.00  0.00     0.031 A 
ENDBRANCH   1  22
TORSDOF 3
ENDMDL
