MODEL 1
REMARK VINA RESULT:    -8.607      0.000      0.000
REMARK INTER + INTRA:         -12.398
REMARK INTER:                 -11.123
REMARK INTRA:                  -1.275
REMARK UNBOUND:                -1.275
REMARK  5 active torsions:
REMARK  status: ('A' for Active; 'I' for Inactive)
REMARK    1  A    between atoms: C_5  and  N_8 
REMARK    2  A    between atoms: C_14  and  C_18 
REMARK    3  A    between atoms: C_18  and  O_20 
REMARK    4  A    between atoms: O_20  and  C_21 
REMARK    5  A    between atoms: C_21  and  C_22 
ROOT
ATOM      1  N   UNK d   1      19.062  33.232  71.134  0.00  0.00    -0.247 N 
ATOM      2  C   UNK d   1      19.566  32.589  72.321  0.00  0.00     0.255 C 
ATOM      3  O   UNK d   1      20.388  33.081  73.144  0.00  0.00    -0.270 OA
ATOM      4  C   UNK d   1      18.935  31.250  72.384  0.00  0.00     0.210 C 
ATOM      5  N   UNK d   1      18.663  30.779  73.728  0.00  0.00    -0.222 NA
ATOM      6  N   UNK d   1      17.431  30.100  73.473  0.00  0.00    -0.314 N 
ATOM      7  C   UNK d   1      16.654  30.892  72.575  0.00  0.00     0.132 C 
ATOM      8  C   UNK d   1      17.548  31.605  71.898  0.00  0.00     0.073 C 
ATOM      9  C   UNK d   1      17.797  32.611  70.874  0.00  0.00     0.266 C 
ATOM     10  O   UNK d   1      16.969  32.828  69.946  0.00  0.00    -0.267 OA
ATOM     11  H   UNK d   1      18.382  31.643  74.270  0.00  0.00     0.147 HD
ATOM     12  H   UNK d   1      17.140  29.185  73.870  0.00  0.00     0.181 HD
ENDROOT
BRANCH   7  13
ATOM     13  C   UNK d   1      15.204  30.919  72.417  0.00  0.00     0.312 C 
ATOM     14  O   UNK d   1      14.526  29.867  72.366  0.00  0.00    -0.258 OA
BRANCH  13  15
ATOM     15  O   UNK d   1      14.495  32.107  72.314  0.00  0.00    -0.312 OA
BRANCH  15  16
ATOM     16  C   UNK d   1      13.601  32.352  71.237  0.00  0.00     0.217 C 
BRANCH  16  17
ATOM     17  C   UNK d   1      13.743  33.779  70.791  0.00  0.00    -0.034 A 
ATOM     18  C   UNK d   1      14.614  34.641  71.455  0.00  0.00     0.009 A 
ATOM     19  C   UNK d   1      14.776  35.946  71.078  0.00  0.00     0.001 A 
ATOM     20  C   UNK d   1      14.046  36.432  69.997  0.00  0.00     0.000 A 
ATOM     21  C   UNK d   1      13.186  35.577  69.344  0.00  0.00     0.001 A 
ATOM     22  C   UNK d   1      13.029  34.245  69.736  0.00  0.00     0.009 A 
ENDBRANCH  16  17
ENDBRANCH  15  16
ENDBRANCH  13  15
ENDBRANCH   7  13
BRANCH   1  23
ATOM     23  C   UNK d   1      19.658  34.259  70.370  0.00  0.00     0.045 A 
ATOM     24  C   UNK d   1      20.748  33.977  69.538  0.00  0.00     0.031 A 
ATOM     25  C   UNK d   1      21.379  34.904  68.772  0.00  0.00     0.021 A 
ATOM     26  C   UNK d   1      20.933  36.201  68.805  0.00  0.00     0.011 A 
ATOM     27 Br   UNK d   1      21.810  37.536  67.726  0.00  0.00    -0.051 Br
ATOM     28  C   UNK d   1      19.859  36.520  69.614  0.00  0.00     0.021 A 
ATOM     29  C   UNK d   1      19.232  35.560  70.385  0.00  0.00     0.031 A 
ENDBRANCH   1  23
TORSDOF 5
ENDMDL
