MODEL 1
REMARK VINA RESULT:    -8.066      0.000      0.000
REMARK INTER + INTRA:          -8.918
REMARK INTER:                  -8.537
REMARK INTRA:                  -0.381
REMARK UNBOUND:                -0.381
REMARK  1 active torsions:
REMARK  status: ('A' for Active; 'I' for Inactive)
REMARK    1  A    between atoms: C_5  and  N_8 
ROOT
ATOM      1  N   UNK d   1      20.159  34.114  70.535  0.00  0.00    -0.231 N 
ATOM      2  C   UNK d   1      21.064  33.513  71.480  0.00  0.00     0.357 A 
ATOM      3  O   UNK d   1      22.300  33.747  71.391  0.00  0.00    -0.244 OA
ATOM      4  N   UNK d   1      20.501  32.683  72.470  0.00  0.00    -0.169 NA
ATOM      5  C   UNK d   1      19.262  32.434  72.579  0.00  0.00     0.202 A 
ATOM      6  C   UNK d   1      18.186  32.960  71.703  0.00  0.00     0.140 A 
ATOM      7  C   UNK d   1      17.419  31.802  71.163  0.00  0.00     0.269 C 
ATOM      8  N   UNK d   1      16.057  32.025  70.839  0.00  0.00    -0.043 N 
ATOM      9  C   UNK d   1      15.637  33.371  70.827  0.00  0.00     0.140 A 
ATOM     10  C   UNK d   1      16.204  34.298  71.709  0.00  0.00    -0.021 A 
ATOM     11  C   UNK d   1      15.784  35.599  71.683  0.00  0.00     0.016 A 
ATOM     12  C   UNK d   1      14.817  36.071  70.825  0.00  0.00    -0.061 A 
ATOM     13  C   UNK d   1      14.262  35.154  69.957  0.00  0.00     0.009 A 
ATOM     14  C   UNK d   1      14.667  33.826  69.961  0.00  0.00     0.038 A 
ATOM     15  C   UNK d   1      14.389  37.490  70.825  0.00  0.00     0.048 C 
ATOM     16  C   UNK d   1      17.244  33.747  72.617  0.00  0.00     0.070 C 
ATOM     17  C   UNK d   1      15.146  31.211  71.661  0.00  0.00     0.276 C 
ATOM     18  C   UNK d   1      18.769  33.832  70.660  0.00  0.00     0.251 A 
ATOM     19  O   UNK d   1      18.023  34.393  69.791  0.00  0.00    -0.271 OA
ATOM     20  O   UNK d   1      18.835  31.583  73.621  0.00  0.00    -0.173 OA
ATOM     21  H   UNK d   1      15.901  31.659  69.852  0.00  0.00     0.286 HD
ENDROOT
BRANCH   1  22
ATOM     22  C   UNK d   1      20.651  34.964  69.510  0.00  0.00     0.047 A 
ATOM     23  C   UNK d   1      20.657  36.320  69.745  0.00  0.00     0.031 A 
ATOM     24  C   UNK d   1      21.118  37.226  68.798  0.00  0.00     0.021 A 
ATOM     25  C   UNK d   1      21.581  36.764  67.595  0.00  0.00     0.011 A 
ATOM     26 Br   UNK d   1      22.213  38.015  66.301  0.00  0.00    -0.051 Br
ATOM     27  C   UNK d   1      21.586  35.404  67.332  0.00  0.00     0.021 A 
ATOM     28  C   UNK d   1      21.121  34.521  68.293  0.00  0.00     0.031 A 
ENDBRANCH   1  22
TORSDOF 1
ENDMDL
