MODEL 1
REMARK VINA RESULT:    -9.598      0.000      0.000
REMARK INTER + INTRA:         -12.697
REMARK INTER:                 -11.843
REMARK INTRA:                  -0.854
REMARK UNBOUND:                -0.854
REMARK  4 active torsions:
REMARK  status: ('A' for Active; 'I' for Inactive)
REMARK    1  A    between atoms: C_5  and  N_8 
REMARK    2  A    between atoms: C_15  and  N_16 
REMARK    3  A    between atoms: N_16  and  N_17 
REMARK    4  A    between atoms: N_17  and  C_18 
ROOT
ATOM      1  N   UNK d   1      15.025  33.789  70.926  0.00  0.00    -0.229 N 
ATOM      2  C   UNK d   1      13.637  33.783  70.585  0.00  0.00     0.337 A 
ATOM      3  O   UNK d   1      12.988  32.709  70.794  0.00  0.00    -0.246 OA
ATOM      4  N   UNK d   1      13.042  34.946  70.038  0.00  0.00    -0.274 N 
ATOM      5  C   UNK d   1      13.750  36.158  69.795  0.00  0.00     0.266 A 
ATOM      6  O   UNK d   1      13.191  37.179  69.306  0.00  0.00    -0.267 OA
ATOM      7  C   UNK d   1      15.183  36.200  70.135  0.00  0.00     0.117 A 
ATOM      8  C   UNK d   1      15.896  37.298  69.931  0.00  0.00     0.130 C 
ATOM      9  C   UNK d   1      15.766  34.987  70.697  0.00  0.00     0.273 A 
ATOM     10  O   UNK d   1      16.986  34.976  71.002  0.00  0.00    -0.266 OA
ATOM     11  H   UNK d   1      12.024  34.899  69.803  0.00  0.00     0.173 HD
ENDROOT
BRANCH   8  12
ATOM     12  N   UNK d   1      17.276  37.308  70.269  0.00  0.00    -0.296 N 
ATOM     13  H   UNK d   1      17.497  37.073  71.274  0.00  0.00     0.186 HD
BRANCH  12  14
ATOM     14  N   UNK d   1      18.312  37.597  69.396  0.00  0.00    -0.130 N 
ATOM     15  H   UNK d   1      18.238  38.539  68.913  0.00  0.00     0.205 HD
BRANCH  14  16
ATOM     16  C   UNK d   1      19.409  36.732  69.129  0.00  0.00     0.723 A 
ATOM     17  N   UNK d   1      20.142  36.740  68.011  0.00  0.00    -0.175 N 
ATOM     18  C   UNK d   1      21.096  35.798  68.093  0.00  0.00     0.166 A 
ATOM     19  C   UNK d   1      20.015  37.596  66.826  0.00  0.00     0.176 C 
ATOM     20  C   UNK d   1      20.950  35.171  69.323  0.00  0.00     0.186 A 
ATOM     21  C   UNK d   1      22.108  35.352  67.286  0.00  0.00     0.282 A 
ATOM     22  N   UNK d   1      19.917  35.775  69.907  0.00  0.00    -0.042 NA
ATOM     23  N   UNK d   1      21.764  34.171  69.707  0.00  0.00    -0.285 N 
ATOM     24  C   UNK d   1      22.733  33.776  68.881  0.00  0.00     0.332 A 
ATOM     25  C   UNK d   1      21.551  33.572  70.991  0.00  0.00     0.163 C 
ATOM     26  O   UNK d   1      23.523  32.837  69.206  0.00  0.00    -0.246 OA
ATOM     27  N   UNK d   1      22.933  34.347  67.663  0.00  0.00    -0.269 N 
ATOM     28  C   UNK d   1      23.996  33.885  66.807  0.00  0.00     0.164 C 
ATOM     29  O   UNK d   1      22.287  35.877  66.168  0.00  0.00    -0.265 OA
ENDBRANCH  14  16
ENDBRANCH  12  14
ENDBRANCH   8  12
BRANCH   1  30
ATOM     30  C   UNK d   1      15.612  32.639  71.465  0.00  0.00     0.047 A 
ATOM     31  C   UNK d   1      15.361  32.287  72.776  0.00  0.00     0.031 A 
ATOM     32  C   UNK d   1      15.916  31.160  73.350  0.00  0.00     0.021 A 
ATOM     33  C   UNK d   1      16.754  30.340  72.614  0.00  0.00     0.011 A 
ATOM     34 Br   UNK d   1      17.531  28.776  73.399  0.00  0.00    -0.051 Br
ATOM     35  C   UNK d   1      16.991  30.711  71.308  0.00  0.00     0.021 A 
ATOM     36  C   UNK d   1      16.445  31.832  70.718  0.00  0.00     0.031 A 
ENDBRANCH   1  30
TORSDOF 4
ENDMDL
