MODEL 1
REMARK VINA RESULT:    -8.270      0.000      0.000
REMARK INTER + INTRA:         -13.101
REMARK INTER:                 -12.138
REMARK INTRA:                  -0.963
REMARK UNBOUND:                -0.963
REMARK  10 active torsions:
REMARK  status: ('A' for Active; 'I' for Inactive)
REMARK    1  A    between atoms: C_5  and  O_8 
REMARK    2  A    between atoms: O_8  and  C_9 
REMARK    3  A    between atoms: C_9  and  C_10 
REMARK       I    between atoms: C_10  and  N_12 
REMARK    4  A    between atoms: N_12  and  C_13 
REMARK    5  A    between atoms: N_16  and  C_23 
REMARK    6  A    between atoms: C_20  and  O_22 
REMARK    7  A    between atoms: C_25  and  C_30 
REMARK    8  A    between atoms: C_26  and  O_29 
REMARK    9  A    between atoms: C_27  and  O_28 
REMARK   10  A    between atoms: C_30  and  O_31 
ROOT
ATOM      1  C   UNK d   1      20.169  38.230  66.510  0.00  0.00     0.733 A 
ATOM      2  N   UNK d   1      20.854  37.074  66.572  0.00  0.00    -0.042 NA
ATOM      3  C   UNK d   1      22.161  37.076  66.363  0.00  0.00     0.185 A 
ATOM      4  N   UNK d   1      23.046  36.070  66.370  0.00  0.00    -0.293 N 
ATOM      5  C   UNK d   1      24.243  36.636  66.094  0.00  0.00     0.214 A 
ATOM      6  N   UNK d   1      24.101  37.954  65.921  0.00  0.00    -0.235 NA
ATOM      7  C   UNK d   1      22.816  38.280  66.080  0.00  0.00     0.158 A 
ATOM      8  C   UNK d   1      22.119  39.471  66.013  0.00  0.00     0.214 A 
ATOM      9  N   UNK d   1      20.803  39.408  66.234  0.00  0.00    -0.036 NA
ENDROOT
BRANCH   1  10
ATOM     10  N   UNK d   1      18.760  38.268  66.725  0.00  0.00    -0.154 N 
ATOM     11  C   UNK d   1      18.171  37.965  67.969  0.00  0.00     0.260 C 
ATOM     12  O   UNK d   1      18.881  37.645  68.938  0.00  0.00    -0.270 OA
ATOM     13  H   UNK d   1      18.154  38.540  65.898  0.00  0.00     0.187 HD
BRANCH  11  14
ATOM     14  C   UNK d   1      16.705  38.026  68.118  0.00  0.00     0.279 C 
BRANCH  14  15
ATOM     15  O   UNK d   1      16.284  37.986  69.451  0.00  0.00    -0.342 OA
BRANCH  15  16
ATOM     16  C   UNK d   1      15.599  36.885  69.916  0.00  0.00     0.069 A 
ATOM     17  C   UNK d   1      14.253  36.748  69.678  0.00  0.00     0.038 A 
ATOM     18  C   UNK d   1      13.548  35.635  70.146  0.00  0.00     0.022 A 
ATOM     19  C   UNK d   1      14.211  34.659  70.857  0.00  0.00     0.011 A 
ATOM     20 Br   UNK d   1      13.245  33.129  71.500  0.00  0.00    -0.051 Br
ATOM     21  C   UNK d   1      15.563  34.800  71.094  0.00  0.00     0.022 A 
ATOM     22  C   UNK d   1      16.242  35.902  70.627  0.00  0.00     0.038 A 
ENDBRANCH  15  16
ENDBRANCH  14  15
ENDBRANCH  11  14
ENDBRANCH   1  10
BRANCH   8  23
ATOM     23  O   UNK d   1      22.819  40.635  65.728  0.00  0.00    -0.343 OA
ATOM     24  H   UNK d   1      22.682  41.015  64.785  0.00  0.00     0.219 HD
ENDBRANCH   8  23
BRANCH   4  25
ATOM     25  C   UNK d   1      22.884  34.687  66.603  0.00  0.00     0.262 C 
ATOM     26  O   UNK d   1      21.878  34.429  67.544  0.00  0.00    -0.353 OA
ATOM     27  C   UNK d   1      22.601  34.236  68.718  0.00  0.00     0.179 C 
ATOM     28  C   UNK d   1      23.620  33.211  68.244  0.00  0.00     0.182 C 
ATOM     29  C   UNK d   1      24.077  33.908  66.964  0.00  0.00     0.198 C 
BRANCH  27  30
ATOM     30  C   UNK d   1      21.750  33.713  69.838  0.00  0.00     0.198 C 
BRANCH  30  31
ATOM     31  O   UNK d   1      21.715  32.348  69.918  0.00  0.00    -0.398 OA
ATOM     32  H   UNK d   1      22.647  32.011  69.969  0.00  0.00     0.209 HD
ENDBRANCH  30  31
ENDBRANCH  27  30
BRANCH  28  33
ATOM     33  O   UNK d   1      24.632  32.991  69.135  0.00  0.00    -0.390 OA
ATOM     34  H   UNK d   1      24.371  32.371  69.889  0.00  0.00     0.210 HD
ENDBRANCH  28  33
BRANCH  29  35
ATOM     35  O   UNK d   1      24.401  32.944  65.983  0.00  0.00    -0.388 OA
ATOM     36  H   UNK d   1      23.626  32.329  65.954  0.00  0.00     0.210 HD
ENDBRANCH  29  35
ENDBRANCH   4  25
TORSDOF 10
ENDMDL
