MODEL 1
REMARK VINA RESULT:    -8.457      0.000      0.000
REMARK INTER + INTRA:         -12.734
REMARK INTER:                 -11.671
REMARK INTRA:                  -1.063
REMARK UNBOUND:                -1.063
REMARK  7 active torsions:
REMARK  status: ('A' for Active; 'I' for Inactive)
REMARK    1  A    between atoms: C_5  and  O_8 
REMARK    2  A    between atoms: O_8  and  C_9 
REMARK    3  A    between atoms: C_9  and  C_10 
REMARK    4  A    between atoms: C_10  and  O_11 
REMARK    5  A    between atoms: C_10  and  C_12 
REMARK    6  A    between atoms: C_12  and  N_13 
REMARK    7  A    between atoms: C_17  and  N_18 
ROOT
ATOM      1  N   UNK d   1      21.059  36.201  68.594  0.00  0.00    -0.170 N 
ATOM      2  C   UNK d   1      21.909  36.360  67.554  0.00  0.00     0.166 A 
ATOM      3  C   UNK d   1      22.585  35.176  67.363  0.00  0.00     0.185 A 
ATOM      4  N   UNK d   1      22.125  34.359  68.287  0.00  0.00    -0.044 NA
ATOM      5  C   UNK d   1      21.177  34.954  69.077  0.00  0.00     0.707 A 
ATOM      6  N   UNK d   1      23.526  34.984  66.392  0.00  0.00    -0.286 N 
ATOM      7  C   UNK d   1      23.796  36.013  65.588  0.00  0.00     0.330 A 
ATOM      8  O   UNK d   1      24.661  35.852  64.685  0.00  0.00    -0.246 OA
ATOM      9  N   UNK d   1      23.155  37.177  65.751  0.00  0.00    -0.273 N 
ATOM     10  C   UNK d   1      22.218  37.398  66.703  0.00  0.00     0.280 A 
ATOM     11  O   UNK d   1      21.641  38.488  66.831  0.00  0.00    -0.265 OA
ATOM     12  C   UNK d   1      24.185  33.684  66.263  0.00  0.00     0.163 C 
ATOM     13  H   UNK d   1      23.393  37.957  65.103  0.00  0.00     0.173 HD
ENDROOT
BRANCH   1  14
ATOM     14  C   UNK d   1      20.121  37.188  69.084  0.00  0.00     0.182 C 
BRANCH  14  15
ATOM     15  C   UNK d   1      18.786  37.208  68.398  0.00  0.00     0.161 C 
BRANCH  15  16
ATOM     16  C   UNK d   1      17.697  37.991  69.061  0.00  0.00     0.209 C 
BRANCH  16  17
ATOM     17  O   UNK d   1      16.944  37.316  69.904  0.00  0.00    -0.349 OA
BRANCH  17  18
ATOM     18  C   UNK d   1      16.035  36.445  70.269  0.00  0.00     0.069 A 
ATOM     19  C   UNK d   1      14.702  36.499  69.917  0.00  0.00     0.038 A 
ATOM     20  C   UNK d   1      13.791  35.553  70.334  0.00  0.00     0.022 A 
ATOM     21  C   UNK d   1      14.217  34.520  71.125  0.00  0.00     0.011 A 
ATOM     22 Br   UNK d   1      12.956  33.220  71.696  0.00  0.00    -0.051 Br
ATOM     23  C   UNK d   1      15.544  34.438  71.492  0.00  0.00     0.022 A 
ATOM     24  C   UNK d   1      16.444  35.366  71.085  0.00  0.00     0.038 A 
ENDBRANCH  17  18
ENDBRANCH  16  17
ENDBRANCH  15  16
BRANCH  15  25
ATOM     25  O   UNK d   1      18.879  37.657  67.073  0.00  0.00    -0.392 OA
ATOM     26  H   UNK d   1      18.314  38.490  66.972  0.00  0.00     0.210 HD
ENDBRANCH  15  25
ENDBRANCH  14  15
ENDBRANCH   1  14
BRANCH   5  27
ATOM     27  N   UNK d   1      20.561  34.309  70.207  0.00  0.00    -0.212 N 
ATOM     28  C   UNK d   1      20.795  35.013  71.487  0.00  0.00     0.171 C 
ATOM     29  C   UNK d   1      19.943  34.562  72.603  0.00  0.00     0.292 C 
ATOM     30  N   UNK d   1      19.648  33.152  72.569  0.00  0.00     0.087 N 
ATOM     31  C   UNK d   1      18.896  32.934  71.374  0.00  0.00     0.292 C 
ATOM     32  C   UNK d   1      20.811  32.342  72.718  0.00  0.00     0.310 C 
ATOM     33  C   UNK d   1      19.752  33.145  70.125  0.00  0.00     0.171 C 
ENDBRANCH   5  27
TORSDOF 7
ENDMDL
