/Users/jonathanwahrer/Desktop/Msc/3_Semester/Drug_Design_Praktikum/waehrer_HTS_screening/HTS_experiment/out/docking_results/vina_output/4x21/0444_docked.pdbqt
 OpenBabel03212201403D

 33 36  0  0  1  0  0  0  0  0999 V2000
   21.0590   36.2010   68.5940 N   0  0  0  0  0  0  0  0  0  0  0  0
   21.9090   36.3600   67.5540 C   0  0  0  0  0  0  0  0  0  0  0  0
   22.5850   35.1760   67.3630 C   0  0  0  0  0  0  0  0  0  0  0  0
   22.1250   34.3590   68.2870 N   0  0  0  0  0  0  0  0  0  0  0  0
   21.1770   34.9540   69.0770 C   0  0  0  0  0  0  0  0  0  0  0  0
   23.5260   34.9840   66.3920 N   0  0  0  0  0  0  0  0  0  0  0  0
   23.7960   36.0130   65.5880 C   0  0  0  0  0  0  0  0  0  0  0  0
   24.6610   35.8520   64.6850 O   0  0  0  0  0  0  0  0  0  0  0  0
   23.1550   37.1770   65.7510 N   0  0  0  0  0  0  0  0  0  0  0  0
   22.2180   37.3980   66.7030 C   0  0  0  0  0  0  0  0  0  0  0  0
   21.6410   38.4880   66.8310 O   0  0  0  0  0  0  0  0  0  0  0  0
   24.1850   33.6840   66.2630 C   0  0  0  0  0  1  0  0  0  0  0  0
   23.3930   37.9570   65.1030 H   0  0  0  0  0  0  0  0  0  0  0  0
   20.1210   37.1880   69.0840 C   0  0  0  0  0  2  0  0  0  0  0  0
   18.7860   37.2080   68.3980 C   0  0  1  0  0  3  0  0  0  0  0  0
   17.6970   37.9910   69.0610 C   0  0  0  0  0  2  0  0  0  0  0  0
   16.9440   37.3160   69.9040 O   0  0  0  0  0  0  0  0  0  0  0  0
   16.0350   36.4450   70.2690 C   0  0  0  0  0  0  0  0  0  0  0  0
   14.7020   36.4990   69.9170 C   0  0  0  0  0  3  0  0  0  0  0  0
   13.7910   35.5530   70.3340 C   0  0  0  0  0  3  0  0  0  0  0  0
   14.2170   34.5200   71.1250 C   0  0  0  0  0  0  0  0  0  0  0  0
   12.9560   33.2200   71.6960 Br  0  0  0  0  0  0  0  0  0  0  0  0
   15.5440   34.4380   71.4920 C   0  0  0  0  0  3  0  0  0  0  0  0
   16.4440   35.3660   71.0850 C   0  0  0  0  0  3  0  0  0  0  0  0
   18.8790   37.6570   67.0730 O   0  0  0  0  0  0  0  0  0  0  0  0
   18.3140   38.4900   66.9720 H   0  0  0  0  0  0  0  0  0  0  0  0
   20.5610   34.3090   70.2070 N   0  0  0  0  0  0  0  0  0  0  0  0
   20.7950   35.0130   71.4870 C   0  0  0  0  0  2  0  0  0  0  0  0
   19.9430   34.5620   72.6030 C   0  0  0  0  0  2  0  0  0  0  0  0
   19.6480   33.1520   72.5690 N   0  0  0  0  0  0  0  0  0  0  0  0
   18.8960   32.9340   71.3740 C   0  0  0  0  0  2  0  0  0  0  0  0
   20.8110   32.3420   72.7180 C   0  0  0  0  0  1  0  0  0  0  0  0
   19.7520   33.1450   70.1250 C   0  0  0  0  0  2  0  0  0  0  0  0
  1  5  1  0  0  0  0
  1 14  1  0  0  0  0
  2  1  1  0  0  0  0
  3  2  2  0  0  0  0
  3  4  1  0  0  0  0
  4  5  2  0  0  0  0
  5 27  1  0  0  0  0
  6  3  1  0  0  0  0
  7  9  1  0  0  0  0
  7  6  1  0  0  0  0
  8  7  2  0  0  0  0
  9 10  1  0  0  0  0
 10 11  2  0  0  0  0
 10  2  1  0  0  0  0
 12  6  1  0  0  0  0
 13  9  1  0  0  0  0
 15 16  1  1  0  0  0
 15 14  1  0  0  0  0
 16 17  1  0  0  0  0
 17 18  1  0  0  0  0
 18 24  1  0  0  0  0
 19 18  2  0  0  0  0
 19 20  1  0  0  0  0
 20 21  2  0  0  0  0
 21 23  1  0  0  0  0
 21 22  1  0  0  0  0
 24 23  2  0  0  0  0
 25 15  1  0  0  0  0
 26 25  1  0  0  0  0
 27 28  1  0  0  0  0
 28 29  1  0  0  0  0
 30 29  1  0  0  0  0
 30 32  1  0  0  0  0
 31 30  1  0  0  0  0
 33 27  1  0  0  0  0
 33 31  1  0  0  0  0
M  END
>  <Pose>
1

>  <Score>
-8.457

$$$$
