MODEL 1
REMARK VINA RESULT:    -7.620      0.000      0.000
REMARK INTER + INTRA:          -8.393
REMARK INTER:                  -8.511
REMARK INTRA:                   0.118
REMARK UNBOUND:                 0.118
REMARK  2 active torsions:
REMARK  status: ('A' for Active; 'I' for Inactive)
REMARK    1  A    between atoms: C_7  and  C_8 
REMARK    2  A    between atoms: C_8  and  N_9 
ROOT
ATOM      1  C   UNK d   1      15.758  34.552  71.591  0.00  0.00     0.284 C 
ENDROOT
BRANCH   1   2
ATOM      2  C   UNK d   1      16.712  35.460  70.952  0.00  0.00    -0.012 A 
ATOM      3  C   UNK d   1      16.190  36.494  70.156  0.00  0.00     0.021 A 
ATOM      4 Br   UNK d   1      14.319  36.863  70.009  0.00  0.00    -0.050 Br
ATOM      5  C   UNK d   1      17.108  37.249  69.449  0.00  0.00     0.059 A 
ATOM      6  C   UNK d   1      18.461  36.992  69.540  0.00  0.00     0.106 A 
ATOM      7  C   UNK d   1      19.004  35.989  70.308  0.00  0.00     0.105 A 
ATOM      8  O   UNK d   1      19.539  37.662  68.886  0.00  0.00    -0.323 OA
ATOM      9  C   UNK d   1      18.091  35.244  71.003  0.00  0.00     0.050 A 
ATOM     10  O   UNK d   1      20.371  36.074  70.100  0.00  0.00    -0.323 OA
ATOM     11  C   UNK d   1      20.582  36.646  68.779  0.00  0.00     0.352 C 
ENDBRANCH   1   2
BRANCH   1  12
ATOM     12  N   UNK d   1      16.059  33.188  71.725  0.00  0.00     0.016 N 
ATOM     13  C   UNK d   1      14.675  32.592  71.690  0.00  0.00     0.517 C 
ATOM     14  N   UNK d   1      14.603  31.253  72.100  0.00  0.00     0.171 N 
ATOM     15  C   UNK d   1      15.160  31.180  73.439  0.00  0.00     0.551 C 
ATOM     16  C   UNK d   1      15.373  30.484  71.116  0.00  0.00     0.551 C 
ATOM     17  N   UNK d   1      16.556  31.528  73.341  0.00  0.00     0.171 N 
ATOM     18  C   UNK d   1      16.727  32.902  72.994  0.00  0.00     0.517 C 
ATOM     19  C   UNK d   1      17.299  30.713  72.373  0.00  0.00     0.551 C 
ATOM     20  N   UNK d   1      16.727  30.983  71.064  0.00  0.00     0.171 N 
ATOM     21  C   UNK d   1      16.766  32.426  70.745  0.00  0.00     0.517 C 
ENDBRANCH   1  12
TORSDOF 2
ENDMDL
