MODEL 1
REMARK VINA RESULT:    -7.509      0.000      0.000
REMARK INTER + INTRA:         -10.521
REMARK INTER:                  -9.703
REMARK INTRA:                  -0.818
REMARK UNBOUND:                -0.818
REMARK  5 active torsions:
REMARK  status: ('A' for Active; 'I' for Inactive)
REMARK    1  A    between atoms: C_7  and  C_8 
REMARK    2  A    between atoms: C_8  and  N_9 
REMARK    3  A    between atoms: N_12  and  C_15 
REMARK    4  A    between atoms: C_15  and  C_16 
REMARK       I    between atoms: C_16  and  N_18 
REMARK    5  A    between atoms: N_18  and  C_19 
ROOT
ATOM      1  N   UNK d   1      18.054  32.548  72.428  0.00  0.00     0.095 N 
ATOM      2  C   UNK d   1      19.008  31.800  73.288  0.00  0.00     0.292 C 
ATOM      3  C   UNK d   1      20.359  32.399  72.911  0.00  0.00     0.147 C 
ATOM      4  N   UNK d   1      20.323  33.214  71.753  0.00  0.00    -0.401 N 
ATOM      5  C   UNK d   1      19.643  32.593  70.646  0.00  0.00     0.147 C 
ATOM      6  C   UNK d   1      18.341  32.000  71.101  0.00  0.00     0.292 C 
ENDROOT
BRANCH   1   7
ATOM      7  C   UNK d   1      16.697  32.232  72.828  0.00  0.00     0.312 C 
BRANCH   7   8
ATOM      8  C   UNK d   1      15.723  32.983  71.997  0.00  0.00    -0.010 A 
ATOM      9  C   UNK d   1      14.629  32.345  71.416  0.00  0.00     0.021 A 
ATOM     10 Br   UNK d   1      14.457  30.466  71.712  0.00  0.00    -0.050 Br
ATOM     11  C   UNK d   1      13.699  33.019  70.659  0.00  0.00     0.059 A 
ATOM     12  C   UNK d   1      13.808  34.370  70.438  0.00  0.00     0.103 A 
ATOM     13  C   UNK d   1      14.870  35.025  70.993  0.00  0.00     0.102 A 
ATOM     14  O   UNK d   1      12.891  35.087  69.681  0.00  0.00    -0.346 OA
ATOM     15  C   UNK d   1      15.811  34.339  71.760  0.00  0.00     0.050 A 
ATOM     16  O   UNK d   1      14.999  36.389  70.782  0.00  0.00    -0.346 OA
ATOM     17  C   UNK d   1      14.261  37.100  69.823  0.00  0.00     0.202 C 
ATOM     18  C   UNK d   1      12.913  36.489  69.606  0.00  0.00     0.202 C 
ENDBRANCH   7   8
ENDBRANCH   1   7
BRANCH   4  19
ATOM     19  C   UNK d   1      20.095  34.599  71.920  0.00  0.00     0.219 C 
BRANCH  19  20
ATOM     20  C   UNK d   1      19.797  35.355  70.718  0.00  0.00     0.235 C 
ATOM     21  O   UNK d   1      18.635  35.741  70.470  0.00  0.00    -0.272 OA
ATOM     22  N   UNK d   1      20.814  35.679  69.791  0.00  0.00    -0.355 N 
ATOM     23  H   UNK d   1      21.825  35.389  69.931  0.00  0.00     0.162 HD
BRANCH  22  24
ATOM     24  C   UNK d   1      20.552  36.436  68.573  0.00  0.00     0.084 A 
ATOM     25  C   UNK d   1      21.144  36.019  67.291  0.00  0.00     0.027 A 
ATOM     26  C   UNK d   1      21.761  37.179  68.011  0.00  0.00     0.027 A 
ENDBRANCH  22  24
ENDBRANCH  19  20
ENDBRANCH   4  19
TORSDOF 5
ENDMDL
