MODEL 1
REMARK VINA RESULT:    -8.570      0.000      0.000
REMARK INTER + INTRA:         -12.518
REMARK INTER:                 -11.576
REMARK INTRA:                  -0.942
REMARK UNBOUND:                -0.942
REMARK  6 active torsions:
REMARK  status: ('A' for Active; 'I' for Inactive)
REMARK    1  A    between atoms: C_7  and  C_8 
REMARK    2  A    between atoms: C_8  and  O_9 
REMARK    3  A    between atoms: O_9  and  C_10 
REMARK    4  A    between atoms: C_13  and  C_16 
REMARK    5  A    between atoms: N_18  and  C_21 
REMARK    6  A    between atoms: C_21  and  C_22 
REMARK       I    between atoms: C_22  and  N_24 
ROOT
ATOM      1  C   UNK d   1      17.822  37.208  69.691  0.00  0.00     0.069 A 
ATOM      2  C   UNK d   1      19.034  36.782  70.251  0.00  0.00     0.038 A 
ATOM      3  C   UNK d   1      20.214  36.748  69.544  0.00  0.00     0.018 A 
ATOM      4  C   UNK d   1      20.249  37.142  68.224  0.00  0.00     0.015 A 
ATOM      5  C   UNK d   1      19.065  37.563  67.656  0.00  0.00     0.018 A 
ATOM      6  C   UNK d   1      17.868  37.599  68.372  0.00  0.00     0.038 A 
ENDROOT
BRANCH   1   7
ATOM      7  O   UNK d   1      16.664  37.218  70.448  0.00  0.00    -0.347 OA
BRANCH   7   8
ATOM      8  C   UNK d   1      15.487  36.561  70.083  0.00  0.00     0.215 C 
BRANCH   8   9
ATOM      9  C   UNK d   1      15.295  35.257  70.740  0.00  0.00    -0.014 A 
ATOM     10  C   UNK d   1      14.177  34.469  70.435  0.00  0.00     0.022 A 
ATOM     11 Br   UNK d   1      12.915  35.188  69.187  0.00  0.00    -0.050 Br
ATOM     12  C   UNK d   1      13.998  33.235  71.009  0.00  0.00     0.059 A 
ATOM     13  C   UNK d   1      14.918  32.732  71.907  0.00  0.00     0.106 A 
ATOM     14  C   UNK d   1      16.027  33.487  72.224  0.00  0.00     0.105 A 
ATOM     15  O   UNK d   1      15.010  31.544  72.636  0.00  0.00    -0.323 OA
ATOM     16  C   UNK d   1      16.201  34.738  71.636  0.00  0.00     0.050 A 
ATOM     17  O   UNK d   1      16.766  32.754  73.131  0.00  0.00    -0.323 OA
ATOM     18  C   UNK d   1      16.308  31.414  73.175  0.00  0.00     0.352 C 
ENDBRANCH   8   9
ENDBRANCH   7   8
ENDBRANCH   1   7
BRANCH   4  19
ATOM     19  C   UNK d   1      21.497  37.112  67.457  0.00  0.00     0.198 A 
ATOM     20  N   UNK d   1      22.535  36.268  67.573  0.00  0.00    -0.136 NA
ATOM     21  N   UNK d   1      23.463  36.604  66.671  0.00  0.00    -0.182 N 
ATOM     22  N   UNK d   1      23.023  37.652  65.990  0.00  0.00     0.025 NA
ATOM     23  N   UNK d   1      21.830  37.958  66.469  0.00  0.00    -0.136 NA
BRANCH  21  24
ATOM     24  C   UNK d   1      24.747  35.978  66.430  0.00  0.00     0.272 C 
BRANCH  24  25
ATOM     25  C   UNK d   1      24.747  35.303  65.114  0.00  0.00     0.236 C 
ATOM     26  O   UNK d   1      24.608  34.070  65.057  0.00  0.00    -0.272 OA
ATOM     27  N   UNK d   1      24.905  36.073  63.943  0.00  0.00    -0.369 N 
ATOM     28  H   UNK d   1      25.462  36.973  63.921  0.00  0.00     0.159 HD
ATOM     29  H   UNK d   1      24.465  35.761  63.051  0.00  0.00     0.159 HD
ENDBRANCH  24  25
ENDBRANCH  21  24
ENDBRANCH   4  19
TORSDOF 6
ENDMDL
