MODEL 1
REMARK VINA RESULT:    -8.173      0.000      0.000
REMARK INTER + INTRA:         -11.284
REMARK INTER:                 -10.562
REMARK INTRA:                  -0.722
REMARK UNBOUND:                -0.722
REMARK  5 active torsions:
REMARK  status: ('A' for Active; 'I' for Inactive)
REMARK    1  A    between atoms: C_7  and  C_8 
REMARK    2  A    between atoms: N_9  and  N_10 
REMARK    3  A    between atoms: N_10  and  C_11 
REMARK    4  A    between atoms: C_13  and  N_19 
REMARK    5  A    between atoms: C_15  and  O_17 
ROOT
ATOM      1  C   UNK d   1      18.849  36.852  69.630  0.00  0.00     0.762 A 
ATOM      2  N   UNK d   1      19.681  35.893  70.067  0.00  0.00     0.132 NA
ATOM      3  C   UNK d   1      20.885  35.642  69.485  0.00  0.00     0.744 A 
ATOM      4  N   UNK d   1      21.198  36.410  68.443  0.00  0.00    -0.017 NA
ATOM      5  C   UNK d   1      20.419  37.376  67.961  0.00  0.00     0.302 A 
ATOM      6  N   UNK d   1      19.220  37.587  68.583  0.00  0.00    -0.016 NA
ENDROOT
BRANCH   1   7
ATOM      7  N   UNK d   1      17.619  36.975  70.312  0.00  0.00    -0.105 N 
ATOM      8  H   UNK d   1      17.228  37.929  70.470  0.00  0.00     0.208 HD
BRANCH   7   9
ATOM      9  N   UNK d   1      16.911  35.885  70.779  0.00  0.00    -0.172 NA
ATOM     10  C   UNK d   1      15.856  35.373  70.306  0.00  0.00     0.152 C 
BRANCH  10  11
ATOM     11  C   UNK d   1      15.226  34.221  70.918  0.00  0.00     0.003 A 
ATOM     12  C   UNK d   1      13.939  33.842  70.607  0.00  0.00     0.025 A 
ATOM     13 Br   UNK d   1      12.958  34.850  69.338  0.00  0.00    -0.050 Br
ATOM     14  C   UNK d   1      13.365  32.740  71.212  0.00  0.00     0.059 A 
ATOM     15  C   UNK d   1      14.048  31.968  72.154  0.00  0.00     0.106 A 
ATOM     16  C   UNK d   1      15.351  32.343  72.475  0.00  0.00     0.105 A 
ATOM     17  O   UNK d   1      13.736  30.845  72.903  0.00  0.00    -0.323 OA
ATOM     18  C   UNK d   1      15.903  33.447  71.858  0.00  0.00     0.054 A 
ATOM     19  O   UNK d   1      15.797  31.438  73.412  0.00  0.00    -0.323 OA
ATOM     20  C   UNK d   1      14.749  30.592  73.841  0.00  0.00     0.352 C 
ENDBRANCH  10  11
ENDBRANCH   7   9
ENDBRANCH   1   7
BRANCH   3  21
ATOM     21  N   UNK d   1      21.695  34.632  70.009  0.00  0.00    -0.209 N 
ATOM     22  C   UNK d   1      21.196  33.706  70.998  0.00  0.00     0.167 C 
ATOM     23  C   UNK d   1      22.092  32.490  71.108  0.00  0.00     0.188 C 
ATOM     24  O   UNK d   1      22.684  32.088  69.957  0.00  0.00    -0.388 OA
ATOM     25  C   UNK d   1      23.127  33.022  69.073  0.00  0.00     0.188 C 
ATOM     26  C   UNK d   1      23.057  34.463  69.571  0.00  0.00     0.167 C 
ENDBRANCH   3  21
BRANCH   5  27
ATOM     27  O   UNK d   1      20.773  38.158  66.875  0.00  0.00    -0.323 OA
ATOM     28  C   UNK d   1      22.108  38.231  66.450  0.00  0.00     0.213 C 
ENDBRANCH   5  27
TORSDOF 5
ENDMDL
