MODEL 1
REMARK VINA RESULT:    -9.219      0.000      0.000
REMARK INTER + INTRA:         -12.250
REMARK INTER:                 -11.374
REMARK INTRA:                  -0.876
REMARK UNBOUND:                -0.876
REMARK  4 active torsions:
REMARK  status: ('A' for Active; 'I' for Inactive)
REMARK    1  A    between atoms: C_7  and  N_8 
REMARK       I    between atoms: N_8  and  C_9 
REMARK    2  A    between atoms: C_9  and  C_11 
REMARK    3  A    between atoms: C_11  and  N_12 
REMARK    4  A    between atoms: N_15  and  C_18 
ROOT
ATOM      1  N   UNK d   1      19.324  33.672  71.697  0.00  0.00    -0.401 N 
ATOM      2  C   UNK d   1      18.749  33.985  72.917  0.00  0.00     0.137 C 
ATOM      3  C   UNK d   1      17.447  33.402  73.311  0.00  0.00     0.144 C 
ATOM      4  N   UNK d   1      16.781  32.914  72.138  0.00  0.00    -0.362 N 
ATOM      5  C   UNK d   1      17.562  31.983  71.363  0.00  0.00     0.144 C 
ATOM      6  C   UNK d   1      18.724  32.760  70.802  0.00  0.00     0.137 C 
ENDROOT
BRANCH   1   7
ATOM      7  C   UNK d   1      20.767  33.693  71.650  0.00  0.00     0.220 C 
BRANCH   7   8
ATOM      8  C   UNK d   1      21.277  34.798  70.752  0.00  0.00     0.239 C 
ATOM      9  N   UNK d   1      21.492  34.485  69.394  0.00  0.00    -0.324 N 
ATOM     10  H   UNK d   1      21.279  33.486  69.082  0.00  0.00     0.169 HD
ATOM     11  O   UNK d   1      21.470  35.905  71.281  0.00  0.00    -0.271 OA
BRANCH   9  12
ATOM     12  C   UNK d   1      21.965  35.387  68.410  0.00  0.00     0.055 A 
ATOM     13  C   UNK d   1      23.182  35.091  67.779  0.00  0.00     0.040 A 
ATOM     14 Br   UNK d   1      24.104  33.511  68.284  0.00  0.00    -0.049 Br
ATOM     15  C   UNK d   1      23.677  35.942  66.820  0.00  0.00     0.061 A 
ATOM     16  C   UNK d   1      23.024  37.076  66.451  0.00  0.00     0.103 A 
ATOM     17  C   UNK d   1      21.826  37.394  67.052  0.00  0.00     0.104 A 
ATOM     18  O   UNK d   1      23.487  37.964  65.489  0.00  0.00    -0.346 OA
ATOM     19  C   UNK d   1      21.303  36.542  68.031  0.00  0.00     0.070 A 
ATOM     20  O   UNK d   1      21.185  38.543  66.663  0.00  0.00    -0.346 OA
ATOM     21  C   UNK d   1      21.830  39.652  66.086  0.00  0.00     0.202 C 
ATOM     22  C   UNK d   1      23.235  39.365  65.662  0.00  0.00     0.202 C 
ENDBRANCH   9  12
ENDBRANCH   7   8
ENDBRANCH   1   7
BRANCH   4  23
ATOM     23  C   UNK d   1      15.490  33.258  71.704  0.00  0.00     0.142 A 
ATOM     24  N   UNK d   1      14.397  32.476  71.891  0.00  0.00    -0.224 NA
ATOM     25  C   UNK d   1      13.172  32.834  71.465  0.00  0.00     0.237 A 
ATOM     26  N   UNK d   1      12.972  33.999  70.825  0.00  0.00    -0.222 NA
ATOM     27  C   UNK d   1      14.001  34.839  70.594  0.00  0.00     0.162 A 
ATOM     28  N   UNK d   1      14.094  36.050  69.987  0.00  0.00    -0.256 N 
ATOM     29  C   UNK d   1      15.244  34.461  71.035  0.00  0.00     0.076 A 
ATOM     30  N   UNK d   1      15.365  36.401  70.057  0.00  0.00    -0.182 NA
ATOM     31  C   UNK d   1      12.985  36.793  69.385  0.00  0.00     0.182 C 
ATOM     32  C   UNK d   1      16.102  35.478  70.678  0.00  0.00     0.158 A 
ENDBRANCH   4  23
TORSDOF 4
ENDMDL
