MODEL 1
REMARK VINA RESULT:    -9.329      0.000      0.000
REMARK INTER + INTRA:         -11.603
REMARK INTER:                 -10.965
REMARK INTRA:                  -0.638
REMARK UNBOUND:                -0.638
REMARK  3 active torsions:
REMARK  status: ('A' for Active; 'I' for Inactive)
REMARK    1  A    between atoms: C_11  and  C_13 
REMARK       I    between atoms: C_13  and  N_15 
REMARK    2  A    between atoms: N_18  and  C_21 
REMARK    3  A    between atoms: C_21  and  C_22 
ROOT
ATOM      1  C   UNK d   1      20.030  35.069  71.556  0.00  0.00     0.277 C 
ATOM      2  O   UNK d   1      20.531  35.652  72.560  0.00  0.00    -0.265 OA
ATOM      3  N   UNK d   1      19.085  34.042  71.754  0.00  0.00    -0.343 N 
ATOM      4  C   UNK d   1      18.716  33.684  73.100  0.00  0.00     0.145 C 
ATOM      5  C   UNK d   1      17.222  33.746  73.336  0.00  0.00     0.137 C 
ATOM      6  N   UNK d   1      16.562  33.440  72.122  0.00  0.00    -0.404 N 
ATOM      7  C   UNK d   1      17.274  32.519  71.326  0.00  0.00     0.137 C 
ATOM      8  C   UNK d   1      18.441  33.302  70.695  0.00  0.00     0.145 C 
ENDROOT
BRANCH   1   9
ATOM      9  C   UNK d   1      20.467  35.500  70.223  0.00  0.00     0.147 A 
ATOM     10  C   UNK d   1      19.790  36.504  69.569  0.00  0.00     0.098 A 
ATOM     11  C   UNK d   1      20.165  36.942  68.317  0.00  0.00     0.187 A 
ATOM     12  C   UNK d   1      21.254  36.353  67.700  0.00  0.00     0.048 A 
ATOM     13  O   UNK d   1      19.532  37.874  67.720  0.00  0.00    -0.287 OA
ATOM     14  C   UNK d   1      21.890  35.350  68.405  0.00  0.00     0.091 A 
ATOM     15  C   UNK d   1      21.649  36.768  66.452  0.00  0.00     0.020 A 
ATOM     16  C   UNK d   1      22.981  34.762  67.782  0.00  0.00     0.057 A 
ATOM     17  O   UNK d   1      21.489  34.975  69.595  0.00  0.00    -0.304 OA
ATOM     18  C   UNK d   1      23.402  35.161  66.525  0.00  0.00     0.013 A 
ATOM     19 Br   UNK d   1      24.907  34.327  65.702  0.00  0.00    -0.051 Br
ATOM     20  C   UNK d   1      22.733  36.169  65.857  0.00  0.00     0.020 A 
ENDBRANCH   1   9
BRANCH   6  21
ATOM     21  C   UNK d   1      15.891  34.491  71.470  0.00  0.00     0.181 C 
BRANCH  21  22
ATOM     22  C   UNK d   1      14.478  34.260  71.184  0.00  0.00     0.108 A 
ATOM     23  N   UNK d   1      13.765  33.195  71.588  0.00  0.00    -0.106 NA
ATOM     24  O   UNK d   1      12.568  33.347  71.144  0.00  0.00    -0.106 OA
ATOM     25  N   UNK d   1      12.448  34.460  70.464  0.00  0.00    -0.108 NA
ATOM     26  C   UNK d   1      13.650  35.077  70.465  0.00  0.00     0.088 A 
ATOM     27  C   UNK d   1      13.992  36.377  69.813  0.00  0.00     0.075 C 
ENDBRANCH  21  22
ENDBRANCH   6  21
TORSDOF 3
ENDMDL
