/Users/jonathanwahrer/Desktop/Msc/3_Semester/Drug_Design_Praktikum/waehrer_HTS_screening/HTS_experiment/out/docking_results/vina_output/4x21/0471_docked.pdbqt
 OpenBabel03212201413D

 27 30  0  0  0  0  0  0  0  0999 V2000
   20.0300   35.0690   71.5560 C   0  0  0  0  0  0  0  0  0  0  0  0
   20.5310   35.6520   72.5600 O   0  0  0  0  0  0  0  0  0  0  0  0
   19.0850   34.0420   71.7540 N   0  0  0  0  0  0  0  0  0  0  0  0
   18.7160   33.6840   73.1000 C   0  0  0  0  0  2  0  0  0  0  0  0
   17.2220   33.7460   73.3360 C   0  0  0  0  0  2  0  0  0  0  0  0
   16.5620   33.4400   72.1220 N   0  0  0  0  0  0  0  0  0  0  0  0
   17.2740   32.5190   71.3260 C   0  0  0  0  0  2  0  0  0  0  0  0
   18.4410   33.3020   70.6950 C   0  0  0  0  0  2  0  0  0  0  0  0
   20.4670   35.5000   70.2230 C   0  0  0  0  0  0  0  0  0  0  0  0
   19.7900   36.5040   69.5690 C   0  0  0  0  0  3  0  0  0  0  0  0
   20.1650   36.9420   68.3170 C   0  0  0  0  0  0  0  0  0  0  0  0
   21.2540   36.3530   67.7000 C   0  0  0  0  0  0  0  0  0  0  0  0
   19.5320   37.8740   67.7200 O   0  0  0  0  0  0  0  0  0  0  0  0
   21.8900   35.3500   68.4050 C   0  0  0  0  0  0  0  0  0  0  0  0
   21.6490   36.7680   66.4520 C   0  0  0  0  0  3  0  0  0  0  0  0
   22.9810   34.7620   67.7820 C   0  0  0  0  0  3  0  0  0  0  0  0
   21.4890   34.9750   69.5950 O   0  0  0  0  0  0  0  0  0  0  0  0
   23.4020   35.1610   66.5250 C   0  0  0  0  0  0  0  0  0  0  0  0
   24.9070   34.3270   65.7020 Br  0  0  0  0  0  0  0  0  0  0  0  0
   22.7330   36.1690   65.8570 C   0  0  0  0  0  3  0  0  0  0  0  0
   15.8910   34.4910   71.4700 C   0  0  0  0  0  2  0  0  0  0  0  0
   14.4780   34.2600   71.1840 C   0  0  0  0  0  0  0  0  0  0  0  0
   13.7650   33.1950   71.5880 N   0  0  0  0  0  0  0  0  0  0  0  0
   12.5680   33.3470   71.1440 O   0  0  0  0  0  0  0  0  0  0  0  0
   12.4480   34.4600   70.4640 N   0  0  0  0  0  0  0  0  0  0  0  0
   13.6500   35.0770   70.4650 C   0  0  0  0  0  0  0  0  0  0  0  0
   13.9920   36.3770   69.8130 C   0  0  0  0  0  1  0  0  0  0  0  0
  1  3  1  0  0  0  0
  1  2  2  0  0  0  0
  3  4  1  0  0  0  0
  4  5  1  0  0  0  0
  6  5  1  0  0  0  0
  7  6  1  0  0  0  0
  8  7  1  0  0  0  0
  8  3  1  0  0  0  0
  9  1  1  0  0  0  0
 10  9  2  0  0  0  0
 11 10  1  0  0  0  0
 12 11  1  0  0  0  0
 12 14  1  0  0  0  0
 13 11  2  0  0  0  0
 14 17  1  0  0  0  0
 15 12  2  0  0  0  0
 16 14  2  0  0  0  0
 17  9  1  0  0  0  0
 18 16  1  0  0  0  0
 19 18  1  0  0  0  0
 20 15  1  0  0  0  0
 20 18  2  0  0  0  0
 21  6  1  0  0  0  0
 22 21  1  0  0  0  0
 22 23  2  0  0  0  0
 24 23  1  0  0  0  0
 25 26  2  0  0  0  0
 25 24  1  0  0  0  0
 26 22  1  0  0  0  0
 27 26  1  0  0  0  0
M  END
>  <Pose>
1

>  <Score>
-9.329

$$$$
