/Users/jonathanwahrer/Desktop/Msc/3_Semester/Drug_Design_Praktikum/waehrer_HTS_screening/HTS_experiment/out/docking_results/vina_output/4x21/0473_docked.pdbqt
 OpenBabel03212201423D

 29 32  0  0  0  0  0  0  0  0999 V2000
   19.4510   37.1440   69.4790 C   0  0  0  0  0  2  0  0  0  0  0  0
   18.0040   37.2740   69.0940 C   0  0  0  0  0  2  0  0  0  0  0  0
   17.1740   37.4560   70.3100 C   0  0  0  0  0  2  0  0  0  0  0  0
   16.3870   36.2920   70.6550 N   0  0  0  0  0  0  0  0  0  0  0  0
   14.9920   36.1990   70.4080 C   0  0  0  0  0  0  0  0  0  0  0  0
   14.5320   34.9040   70.8780 C   0  0  0  0  0  0  0  0  0  0  0  0
   14.2310   37.0680   69.8720 O   0  0  0  0  0  0  0  0  0  0  0  0
   15.6320   34.2450   71.3930 C   0  0  0  0  0  0  0  0  0  0  0  0
   13.2900   34.3050   70.8830 C   0  0  0  0  0  3  0  0  0  0  0  0
   15.4380   32.9760   71.9070 C   0  0  0  0  0  3  0  0  0  0  0  0
   16.8210   35.1020   71.2650 C   0  0  0  0  0  0  0  0  0  0  0  0
   14.1900   32.3870   71.9060 C   0  0  0  0  0  0  0  0  0  0  0  0
   13.9960   30.6330   72.6320 Br  0  0  0  0  0  0  0  0  0  0  0  0
   13.0880   33.0380   71.3940 C   0  0  0  0  0  3  0  0  0  0  0  0
   17.9870   34.7990   71.6380 O   0  0  0  0  0  0  0  0  0  0  0  0
   20.3740   36.9790   68.3330 C   0  0  0  0  0  0  0  0  0  0  0  0
   20.6220   37.8900   67.5010 O   0  0  0  0  0  0  0  0  0  0  0  0
   21.0520   35.7260   68.1160 N   0  0  0  0  0  0  0  0  0  0  0  0
   21.9570   35.5550   67.0020 C   0  0  0  0  0  2  0  0  0  0  0  0
   20.8640   34.5860   68.9930 C   0  0  0  0  0  2  0  0  0  0  0  0
   23.2220   34.8520   67.3640 C   0  0  0  0  0  2  0  0  0  0  0  0
   23.3100   34.4620   68.7510 N   0  0  0  0  0  0  0  0  0  0  0  0
   22.1810   34.1470   69.5850 C   0  0  0  0  0  2  0  0  0  0  0  0
   24.6130   34.3820   69.3380 C   0  0  0  0  0  0  0  0  0  0  0  0
   24.9470   33.3820   70.1980 N   0  0  0  0  0  0  0  0  0  0  0  0
   26.1470   33.2720   70.7660 C   0  0  0  0  0  3  0  0  0  0  0  0
   27.1150   34.2210   70.4720 C   0  0  0  0  0  3  0  0  0  0  0  0
   26.8160   35.2300   69.6190 N   0  0  0  0  0  0  0  0  0  0  0  0
   25.5940   35.3080   69.0670 C   0  0  0  0  0  3  0  0  0  0  0  0
  2  1  1  0  0  0  0
  2  3  1  0  0  0  0
  3  4  1  0  0  0  0
  4 11  1  0  0  0  0
  5  4  1  0  0  0  0
  5  6  1  0  0  0  0
  6  9  2  0  0  0  0
  6  8  1  0  0  0  0
  7  5  2  0  0  0  0
  8 10  2  0  0  0  0
  9 14  1  0  0  0  0
 11  8  1  0  0  0  0
 11 15  2  0  0  0  0
 12 10  1  0  0  0  0
 12 13  1  0  0  0  0
 14 12  2  0  0  0  0
 16  1  1  0  0  0  0
 17 16  2  0  0  0  0
 18 16  1  0  0  0  0
 18 20  1  0  0  0  0
 19 21  1  0  0  0  0
 19 18  1  0  0  0  0
 20 23  1  0  0  0  0
 21 22  1  0  0  0  0
 22 24  1  0  0  0  0
 22 23  1  0  0  0  0
 24 25  1  0  0  0  0
 25 26  2  0  0  0  0
 27 26  1  0  0  0  0
 28 27  2  0  0  0  0
 29 24  2  0  0  0  0
 29 28  1  0  0  0  0
M  END
>  <Pose>
1

>  <Score>
-8.849

$$$$
