/Users/jonathanwahrer/Desktop/Msc/3_Semester/Drug_Design_Praktikum/waehrer_HTS_screening/HTS_experiment/out/docking_results/vina_output/4x21/0483_docked.pdbqt
 OpenBabel03212201423D

 31 34  0  0  0  0  0  0  0  0999 V2000
   14.0490   30.6610   71.5180 C   0  0  0  0  0  2  0  0  0  0  0  0
   13.7570   30.5270   72.9360 C   0  0  0  0  0  0  0  0  0  0  0  0
   13.4990   30.4140   74.1060 C   0  0  0  0  0  3  0  0  0  0  0  0
   15.1600   31.5680   71.3130 N   0  0  0  0  0  0  0  0  0  0  0  0
   15.1560   32.9730   71.0840 C   0  0  0  0  0  0  0  0  0  0  0  0
   16.4640   33.4500   70.9400 C   0  0  0  0  0  0  0  0  0  0  0  0
   14.1100   33.8790   70.9900 C   0  0  0  0  0  3  0  0  0  0  0  0
   16.6670   34.7940   70.7110 C   0  0  0  0  0  3  0  0  0  0  0  0
   17.3840   32.3300   71.0760 C   0  0  0  0  0  0  0  0  0  0  0  0
   15.6030   35.6990   70.6180 C   0  0  0  0  0  0  0  0  0  0  0  0
   15.8910   37.5510   70.3010 Br  0  0  0  0  0  0  0  0  0  0  0  0
   14.3320   35.2160   70.7610 C   0  0  0  0  0  3  0  0  0  0  0  0
   16.5180   31.1550   71.3110 C   0  0  0  0  0  0  0  0  0  0  0  0
   18.6710   32.3440   71.0090 N   0  0  0  0  0  0  0  0  0  0  0  0
   17.0130   30.0060   71.4740 O   0  0  0  0  0  0  0  0  0  0  0  0
   19.3920   33.5190   70.7800 N   0  0  0  0  0  0  0  0  0  0  0  0
   20.0820   34.2020   71.8120 C   0  0  0  0  0  0  0  0  0  0  0  0
   20.0490   33.7420   72.9760 O   0  0  0  0  0  0  0  0  0  0  0  0
   19.4110   33.9040   69.8150 H   0  0  0  0  0  0  0  0  0  0  0  0
   20.8190   35.4230   71.5190 C   0  0  0  0  0  2  0  0  0  0  0  0
   21.1390   35.5710   70.1120 N   0  0  0  0  0  0  0  0  0  0  0  0
   20.4270   36.1980   69.1910 N   0  0  0  0  0  2  0  0  0  0  0  0
   21.0300   36.1280   68.0160 N   0  0  0  0  0  0  0  0  0  0  0  0
   22.1690   35.4340   68.1750 C   0  0  0  0  0  0  0  0  0  0  0  0
   22.2050   35.1080   69.4740 N   0  0  0  0  0  2  0  0  0  0  0  0
   23.1300   35.1290   67.1190 C   0  0  0  0  0  0  0  0  0  0  0  0
   23.8110   33.9300   67.1300 C   0  0  0  0  0  3  0  0  0  0  0  0
   24.7310   33.6350   66.1210 C   0  0  0  0  0  3  0  0  0  0  0  0
   24.9860   34.5170   65.0960 C   0  0  0  0  0  3  0  0  0  0  0  0
   24.3030   35.7210   65.0830 C   0  0  0  0  0  3  0  0  0  0  0  0
   23.3910   36.0060   66.0900 C   0  0  0  0  0  3  0  0  0  0  0  0
  1  2  1  0  0  0  0
  2  3  3  0  0  0  0
  4  1  1  0  0  0  0
  5  4  1  0  0  0  0
  6  9  1  0  0  0  0
  6  5  2  0  0  0  0
  7  5  1  0  0  0  0
  8  6  1  0  0  0  0
  9 13  1  0  0  0  0
 10  8  2  0  0  0  0
 10 12  1  0  0  0  0
 11 10  1  0  0  0  0
 12  7  2  0  0  0  0
 13  4  1  0  0  0  0
 13 15  2  0  0  0  0
 14  9  2  0  0  0  0
 16 14  1  0  0  0  0
 16 17  1  0  0  0  0
 17 18  2  0  0  0  0
 19 16  1  0  0  0  0
 20 17  1  0  0  0  0
 21 20  1  0  0  0  0
 22 21  1  0  0  0  0
 23 24  2  0  0  0  0
 23 22  1  0  0  0  0
 24 25  1  0  0  0  0
 25 21  1  0  0  0  0
 26 27  1  0  0  0  0
 26 24  1  0  0  0  0
 28 27  2  0  0  0  0
 29 28  1  0  0  0  0
 30 29  2  0  0  0  0
 30 31  1  0  0  0  0
 31 26  2  0  0  0  0
M  END
>  <Pose>
1

>  <Score>
-9.815

$$$$
