MODEL 1
REMARK VINA RESULT:    -8.562      0.000      0.000
REMARK INTER + INTRA:         -14.543
REMARK INTER:                 -12.567
REMARK INTRA:                  -1.976
REMARK UNBOUND:                -1.976
REMARK  8 active torsions:
REMARK  status: ('A' for Active; 'I' for Inactive)
REMARK    1  A    between atoms: N_8  and  C_28 
REMARK    2  A    between atoms: C_11  and  N_12 
REMARK       I    between atoms: N_13  and  C_14 
REMARK    3  A    between atoms: C_14  and  C_16 
REMARK    4  A    between atoms: C_16  and  O_17 
REMARK    5  A    between atoms: O_17  and  N_18 
REMARK    6  A    between atoms: C_19  and  C_20 
REMARK    7  A    between atoms: C_23  and  O_26 
REMARK    8  A    between atoms: C_28  and  N_29 
ROOT
ATOM      1 Br   UNK d   1      20.011  32.103  73.042  0.00  0.00    -0.051 Br
ATOM      2  C   UNK d   1      20.802  33.264  71.749  0.00  0.00     0.011 A 
ATOM      3  C   UNK d   1      20.226  34.500  71.421  0.00  0.00     0.035 A 
ATOM      4  C   UNK d   1      20.884  35.251  70.490  0.00  0.00     0.028 A 
ATOM      5  C   UNK d   1      22.053  34.865  69.869  0.00  0.00     0.052 A 
ATOM      6  C   UNK d   1      22.613  33.649  70.188  0.00  0.00     0.032 A 
ATOM      7  C   UNK d   1      21.970  32.851  71.146  0.00  0.00     0.021 A 
ATOM      8  N   UNK d   1      22.512  35.843  68.945  0.00  0.00    -0.295 N 
ATOM      9  C   UNK d   1      21.543  36.923  68.990  0.00  0.00     0.281 A 
ATOM     10  O   UNK d   1      21.610  37.977  68.324  0.00  0.00    -0.265 OA
ATOM     11  C   UNK d   1      20.533  36.525  69.946  0.00  0.00     0.157 A 
ENDROOT
BRANCH  11  12
ATOM     12  N   UNK d   1      19.412  37.083  70.195  0.00  0.00    -0.166 NA
ATOM     13  N   UNK d   1      18.345  37.358  69.812  0.00  0.00    -0.244 N 
ATOM     14  C   UNK d   1      17.060  37.695  69.329  0.00  0.00     0.264 C 
ATOM     15  H   UNK d   1      18.821  37.770  68.575  0.00  0.00     0.192 HD
ATOM     16  O   UNK d   1      16.661  38.056  68.245  0.00  0.00    -0.269 OA
BRANCH  14  17
ATOM     17  C   UNK d   1      16.035  37.564  70.479  0.00  0.00     0.308 C 
BRANCH  17  18
ATOM     18  O   UNK d   1      15.051  36.642  69.963  0.00  0.00    -0.247 OA
BRANCH  18  19
ATOM     19  N   UNK d   1      15.396  35.269  70.113  0.00  0.00    -0.145 NA
ATOM     20  C   UNK d   1      15.935  34.831  71.183  0.00  0.00     0.157 C 
BRANCH  20  21
ATOM     21  C   UNK d   1      16.290  33.436  71.304  0.00  0.00    -0.016 A 
ATOM     22  C   UNK d   1      17.108  32.756  70.466  0.00  0.00     0.015 A 
ATOM     23  C   UNK d   1      17.266  31.370  70.722  0.00  0.00     0.037 A 
ATOM     24  C   UNK d   1      16.707  30.668  71.706  0.00  0.00     0.068 A 
ATOM     25  C   UNK d   1      15.903  31.392  72.518  0.00  0.00     0.037 A 
ATOM     26  C   UNK d   1      15.621  32.702  72.432  0.00  0.00     0.015 A 
BRANCH  24  27
ATOM     27  O   UNK d   1      16.958  29.298  71.845  0.00  0.00    -0.356 OA
ATOM     28  C   UNK d   1      16.354  28.553  72.895  0.00  0.00     0.210 C 
ENDBRANCH  24  27
ENDBRANCH  20  21
ENDBRANCH  18  19
ENDBRANCH  17  18
ENDBRANCH  14  17
ENDBRANCH  11  12
BRANCH   8  29
ATOM     29  C   UNK d   1      23.702  35.917  68.113  0.00  0.00     0.253 C 
BRANCH  29  30
ATOM     30  N   UNK d   1      23.509  35.336  66.878  0.00  0.00    -0.392 N 
ATOM     31  C   UNK d   1      23.761  36.222  65.815  0.00  0.00     0.145 C 
ATOM     32  C   UNK d   1      24.588  35.512  64.740  0.00  0.00     0.187 C 
ATOM     33  O   UNK d   1      25.682  34.978  65.474  0.00  0.00    -0.388 OA
ATOM     34  C   UNK d   1      25.250  33.845  66.177  0.00  0.00     0.187 C 
ATOM     35  C   UNK d   1      23.870  33.982  66.741  0.00  0.00     0.145 C 
ENDBRANCH  29  30
ENDBRANCH   8  29
TORSDOF 8
ENDMDL
