/Users/jonathanwahrer/Desktop/Msc/3_Semester/Drug_Design_Praktikum/waehrer_HTS_screening/HTS_experiment/out/docking_results/vina_output/4x21/0484_docked.pdbqt
 OpenBabel03212201423D

 35 38  0  0  1  0  0  0  0  0999 V2000
   20.0110   32.1030   73.0420 Br  0  0  0  0  0  0  0  0  0  0  0  0
   20.8020   33.2640   71.7490 C   0  0  0  0  0  0  0  0  0  0  0  0
   20.2260   34.5000   71.4210 C   0  0  0  0  0  3  0  0  0  0  0  0
   20.8840   35.2510   70.4900 C   0  0  0  0  0  0  0  0  0  0  0  0
   22.0530   34.8650   69.8690 C   0  0  0  0  0  0  0  0  0  0  0  0
   22.6130   33.6490   70.1880 C   0  0  0  0  0  3  0  0  0  0  0  0
   21.9700   32.8510   71.1460 C   0  0  0  0  0  3  0  0  0  0  0  0
   22.5120   35.8430   68.9450 N   0  0  0  0  0  0  0  0  0  0  0  0
   21.5430   36.9230   68.9900 C   0  0  0  0  0  0  0  0  0  0  0  0
   21.6100   37.9770   68.3240 O   0  0  0  0  0  0  0  0  0  0  0  0
   20.5330   36.5250   69.9460 C   0  0  1  0  0  3  0  0  0  0  0  0
   19.4120   37.0830   70.1950 N   0  0  0  0  0  2  0  0  0  0  0  0
   18.3450   37.3580   69.8120 N   0  0  0  0  0  0  0  0  0  0  0  0
   17.0600   37.6950   69.3290 C   0  0  0  0  0  0  0  0  0  0  0  0
   18.8210   37.7700   68.5750 H   0  0  0  0  0  0  0  0  0  0  0  0
   16.6610   38.0560   68.2450 O   0  0  0  0  0  0  0  0  0  0  0  0
   16.0350   37.5640   70.4790 C   0  0  0  0  0  2  0  0  0  0  0  0
   15.0510   36.6420   69.9630 O   0  0  0  0  0  0  0  0  0  0  0  0
   15.3960   35.2690   70.1130 N   0  0  0  0  0  0  0  0  0  0  0  0
   15.9350   34.8310   71.1830 C   0  0  0  0  0  3  0  0  0  0  0  0
   16.2900   33.4360   71.3040 C   0  0  0  0  0  0  0  0  0  0  0  0
   17.1080   32.7560   70.4660 C   0  0  0  0  0  3  0  0  0  0  0  0
   17.2660   31.3700   70.7220 C   0  0  0  0  0  3  0  0  0  0  0  0
   16.7070   30.6680   71.7060 C   0  0  0  0  0  0  0  0  0  0  0  0
   15.9030   31.3920   72.5180 C   0  0  0  0  0  3  0  0  0  0  0  0
   15.6210   32.7020   72.4320 C   0  0  0  0  0  3  0  0  0  0  0  0
   16.9580   29.2980   71.8450 O   0  0  0  0  0  0  0  0  0  0  0  0
   16.3540   28.5530   72.8950 C   0  0  0  0  0  1  0  0  0  0  0  0
   23.7020   35.9170   68.1130 C   0  0  0  0  0  2  0  0  0  0  0  0
   23.5090   35.3360   66.8780 N   0  0  0  0  0  0  0  0  0  0  0  0
   23.7610   36.2220   65.8150 C   0  0  0  0  0  2  0  0  0  0  0  0
   24.5880   35.5120   64.7400 C   0  0  0  0  0  2  0  0  0  0  0  0
   25.6820   34.9780   65.4740 O   0  0  0  0  0  0  0  0  0  0  0  0
   25.2500   33.8450   66.1770 C   0  0  0  0  0  2  0  0  0  0  0  0
   23.8700   33.9820   66.7410 C   0  0  0  0  0  2  0  0  0  0  0  0
  2  1  1  0  0  0  0
  3  2  1  0  0  0  0
  4  3  2  0  0  0  0
  5  6  2  0  0  0  0
  5  4  1  0  0  0  0
  6  7  1  0  0  0  0
  7  2  2  0  0  0  0
  8  9  1  0  0  0  0
  8  5  1  0  0  0  0
  9 11  1  0  0  0  0
 10  9  2  0  0  0  0
 11 12  1  6  0  0  0
 11  4  1  0  0  0  0
 13 12  1  0  0  0  0
 14 13  1  0  0  0  0
 14 17  1  0  0  0  0
 15 13  1  0  0  0  0
 16 14  2  0  0  0  0
 18 19  1  0  0  0  0
 18 17  1  0  0  0  0
 19 20  2  0  0  0  0
 20 21  1  0  0  0  0
 21 26  1  0  0  0  0
 22 23  1  0  0  0  0
 22 21  2  0  0  0  0
 23 24  2  0  0  0  0
 24 27  1  0  0  0  0
 24 25  1  0  0  0  0
 26 25  2  0  0  0  0
 27 28  1  0  0  0  0
 29  8  1  0  0  0  0
 30 29  1  0  0  0  0
 31 30  1  0  0  0  0
 32 33  1  0  0  0  0
 32 31  1  0  0  0  0
 33 34  1  0  0  0  0
 34 35  1  0  0  0  0
 35 30  1  0  0  0  0
M  END
>  <Pose>
1

>  <Score>
-8.562

$$$$
