/Users/jonathanwahrer/Desktop/Msc/3_Semester/Drug_Design_Praktikum/waehrer_HTS_screening/HTS_experiment/out/docking_results/vina_output/4x21/0485_docked.pdbqt
 OpenBabel03212201433D

 34 37  0  0  0  0  0  0  0  0999 V2000
   13.4380   36.8340   69.5450 Br  0  0  0  0  0  0  0  0  0  0  0  0
   15.1820   36.2710   70.1250 C   0  0  0  0  0  0  0  0  0  0  0  0
   15.3640   35.0980   70.8210 C   0  0  0  0  0  3  0  0  0  0  0  0
   16.6050   34.6510   71.2620 C   0  0  0  0  0  0  0  0  0  0  0  0
   17.7270   35.4350   70.9800 C   0  0  0  0  0  0  0  0  0  0  0  0
   17.5440   36.6110   70.2810 C   0  0  0  0  0  3  0  0  0  0  0  0
   16.2920   37.0400   69.8500 C   0  0  0  0  0  3  0  0  0  0  0  0
   18.9060   34.8120   71.5090 N   0  0  0  0  0  0  0  0  0  0  0  0
   18.4840   33.6070   72.1350 C   0  0  0  0  0  0  0  0  0  0  0  0
   19.2350   32.7900   72.7110 O   0  0  0  0  0  0  0  0  0  0  0  0
   17.0460   33.4790   71.9950 C   0  0  0  0  0  0  0  0  0  0  0  0
   16.3030   32.5240   72.4300 N   0  0  0  0  0  0  0  0  0  0  0  0
   16.8000   31.4300   73.1280 N   0  0  0  0  0  0  0  0  0  0  0  0
   16.8130   30.1570   72.5200 C   0  0  0  0  0  0  0  0  0  0  0  0
   16.3750   29.9790   71.3310 O   0  0  0  0  0  0  0  0  0  0  0  0
   17.1570   31.5570   74.0850 H   0  0  0  0  0  0  0  0  0  0  0  0
   17.3260   28.9370   73.1910 C   0  0  0  0  0  2  0  0  0  0  0  0
   17.0890   27.7910   72.3740 O   0  0  0  0  0  0  0  0  0  0  0  0
   17.1000   26.5270   72.9390 C   0  0  0  0  0  0  0  0  0  0  0  0
   18.2890   25.8430   73.0820 C   0  0  0  0  0  0  0  0  0  0  0  0
   18.2930   24.5730   73.6510 C   0  0  0  0  0  3  0  0  0  0  0  0
   17.1140   23.9900   74.0730 C   0  0  0  0  0  3  0  0  0  0  0  0
   15.9460   24.6790   73.9250 C   0  0  0  0  0  3  0  0  0  0  0  0
   15.9430   25.9430   73.3590 C   0  0  0  0  0  3  0  0  0  0  0  0
   19.4770   26.3930   72.6730 O   0  0  0  0  0  0  0  0  0  0  0  0
   20.6590   25.6330   72.6830 C   0  0  0  0  0  1  0  0  0  0  0  0
   20.2510   35.3500   71.3980 C   0  0  0  0  0  2  0  0  0  0  0  0
   20.6840   35.6060   70.0710 N   0  0  0  0  0  0  0  0  0  0  0  0
   21.2990   36.8700   69.8500 C   0  0  0  0  0  2  0  0  0  0  0  0
   21.6600   37.0830   68.3770 C   0  0  0  0  0  2  0  0  0  0  0  0
   20.9800   36.0630   67.6320 N   0  0  0  0  0  0  0  0  0  0  0  0
   21.4640   34.7460   67.9120 C   0  0  0  0  0  2  0  0  0  0  0  0
   20.8350   36.3600   66.2360 C   0  0  0  0  0  1  0  0  0  0  0  0
   21.3180   34.5060   69.4040 C   0  0  0  0  0  2  0  0  0  0  0  0
  1  2  1  0  0  0  0
  2  3  1  0  0  0  0
  3  4  2  0  0  0  0
  4 11  1  0  0  0  0
  5  4  1  0  0  0  0
  5  8  1  0  0  0  0
  6  5  2  0  0  0  0
  7  2  2  0  0  0  0
  7  6  1  0  0  0  0
  8  9  1  0  0  0  0
  9 10  2  0  0  0  0
 11  9  1  0  0  0  0
 11 12  2  0  0  0  0
 12 13  1  0  0  0  0
 13 16  1  0  0  0  0
 14 13  1  0  0  0  0
 14 17  1  0  0  0  0
 15 14  2  0  0  0  0
 18 19  1  0  0  0  0
 18 17  1  0  0  0  0
 19 20  2  0  0  0  0
 19 24  1  0  0  0  0
 20 21  1  0  0  0  0
 21 22  2  0  0  0  0
 23 22  1  0  0  0  0
 24 23  2  0  0  0  0
 25 26  1  0  0  0  0
 25 20  1  0  0  0  0
 27  8  1  0  0  0  0
 28 27  1  0  0  0  0
 29 28  1  0  0  0  0
 30 29  1  0  0  0  0
 31 32  1  0  0  0  0
 31 30  1  0  0  0  0
 32 34  1  0  0  0  0
 33 31  1  0  0  0  0
 34 28  1  0  0  0  0
M  END
>  <Pose>
1

>  <Score>
-8.965

$$$$
