MODEL 1
REMARK VINA RESULT:    -8.965      0.000      0.000
REMARK INTER + INTRA:         -13.493
REMARK INTER:                 -12.633
REMARK INTRA:                  -0.859
REMARK UNBOUND:                -0.859
REMARK  7 active torsions:
REMARK  status: ('A' for Active; 'I' for Inactive)
REMARK    1  A    between atoms: N_8  and  C_26 
REMARK    2  A    between atoms: N_12  and  N_13 
REMARK       I    between atoms: N_13  and  C_14 
REMARK    3  A    between atoms: C_14  and  C_16 
REMARK    4  A    between atoms: C_16  and  O_17 
REMARK    5  A    between atoms: O_17  and  C_18 
REMARK    6  A    between atoms: C_19  and  O_24 
REMARK    7  A    between atoms: C_26  and  N_27 
ROOT
ATOM      1 Br   UNK d   1      13.438  36.834  69.545  0.00  0.00    -0.051 Br
ATOM      2  C   UNK d   1      15.182  36.271  70.125  0.00  0.00     0.011 A 
ATOM      3  C   UNK d   1      15.364  35.098  70.821  0.00  0.00     0.035 A 
ATOM      4  C   UNK d   1      16.605  34.651  71.262  0.00  0.00     0.028 A 
ATOM      5  C   UNK d   1      17.727  35.435  70.980  0.00  0.00     0.052 A 
ATOM      6  C   UNK d   1      17.544  36.611  70.281  0.00  0.00     0.032 A 
ATOM      7  C   UNK d   1      16.292  37.040  69.850  0.00  0.00     0.021 A 
ATOM      8  N   UNK d   1      18.906  34.812  71.509  0.00  0.00    -0.295 N 
ATOM      9  C   UNK d   1      18.484  33.607  72.135  0.00  0.00     0.281 A 
ATOM     10  O   UNK d   1      19.235  32.790  72.711  0.00  0.00    -0.265 OA
ATOM     11  C   UNK d   1      17.046  33.479  71.995  0.00  0.00     0.157 A 
ATOM     12  N   UNK d   1      16.303  32.524  72.430  0.00  0.00    -0.166 NA
ENDROOT
BRANCH  12  13
ATOM     13  N   UNK d   1      16.800  31.430  73.128  0.00  0.00    -0.244 N 
ATOM     14  C   UNK d   1      16.813  30.157  72.520  0.00  0.00     0.261 C 
ATOM     15  O   UNK d   1      16.375  29.979  71.331  0.00  0.00    -0.269 OA
ATOM     16  H   UNK d   1      17.157  31.557  74.085  0.00  0.00     0.192 HD
BRANCH  14  17
ATOM     17  C   UNK d   1      17.326  28.937  73.191  0.00  0.00     0.280 C 
BRANCH  17  18
ATOM     18  O   UNK d   1      17.089  27.791  72.374  0.00  0.00    -0.339 OA
BRANCH  18  19
ATOM     19  C   UNK d   1      17.100  26.527  72.939  0.00  0.00     0.102 A 
ATOM     20  C   UNK d   1      18.289  25.843  73.082  0.00  0.00     0.101 A 
ATOM     21  C   UNK d   1      18.293  24.573  73.651  0.00  0.00     0.039 A 
ATOM     22  C   UNK d   1      17.114  23.990  74.073  0.00  0.00     0.003 A 
ATOM     23  C   UNK d   1      15.946  24.679  73.925  0.00  0.00     0.003 A 
ATOM     24  C   UNK d   1      15.943  25.943  73.359  0.00  0.00     0.039 A 
BRANCH  20  25
ATOM     25  O   UNK d   1      19.477  26.393  72.673  0.00  0.00    -0.353 OA
ATOM     26  C   UNK d   1      20.659  25.633  72.683  0.00  0.00     0.210 C 
ENDBRANCH  20  25
ENDBRANCH  18  19
ENDBRANCH  17  18
ENDBRANCH  14  17
ENDBRANCH  12  13
BRANCH   8  27
ATOM     27  C   UNK d   1      20.251  35.350  71.398  0.00  0.00     0.253 C 
BRANCH  27  28
ATOM     28  N   UNK d   1      20.684  35.606  70.071  0.00  0.00    -0.393 N 
ATOM     29  C   UNK d   1      21.299  36.870  69.850  0.00  0.00     0.148 C 
ATOM     30  C   UNK d   1      21.660  37.083  68.377  0.00  0.00     0.291 C 
ATOM     31  N   UNK d   1      20.980  36.063  67.632  0.00  0.00     0.087 N 
ATOM     32  C   UNK d   1      21.464  34.746  67.912  0.00  0.00     0.291 C 
ATOM     33  C   UNK d   1      20.835  36.360  66.236  0.00  0.00     0.310 C 
ATOM     34  C   UNK d   1      21.318  34.506  69.404  0.00  0.00     0.148 C 
ENDBRANCH  27  28
ENDBRANCH   8  27
TORSDOF 7
ENDMDL
