/Users/jonathanwahrer/Desktop/Msc/3_Semester/Drug_Design_Praktikum/waehrer_HTS_screening/HTS_experiment/out/docking_results/vina_output/4x21/0500_docked.pdbqt
 OpenBabel03212201433D

 32 35  0  0  1  0  0  0  0  0999 V2000
   17.6620   29.0460   79.5340 Br  0  0  0  0  0  0  0  0  0  0  0  0
   18.6480   28.5050   77.9710 C   0  0  0  0  0  0  0  0  0  0  0  0
   18.0580   28.1760   76.7860 C   0  0  0  0  0  3  0  0  0  0  0  0
   18.7950   27.7650   75.7050 C   0  0  0  0  0  0  0  0  0  0  0  0
   20.1510   27.6990   75.8590 C   0  0  0  0  0  0  0  0  0  0  0  0
   20.7820   28.0330   77.0640 C   0  0  0  0  0  3  0  0  0  0  0  0
   20.0300   28.4440   78.1460 C   0  0  0  0  0  3  0  0  0  0  0  0
   20.7790   27.2240   74.6850 N   0  0  0  0  0  0  0  0  0  0  0  0
   19.7780   26.9770   73.7480 C   0  0  0  0  0  0  0  0  0  0  0  0
   19.9980   26.5240   72.5940 O   0  0  0  0  0  0  0  0  0  0  0  0
   18.4380   27.3370   74.3410 C   0  0  2  0  0  0  0  0  0  0  0  0
   17.8990   28.3550   73.4530 C   0  0  0  0  0  0  0  0  0  0  0  0
   16.7880   28.0960   72.7090 C   0  0  0  0  0  0  0  0  0  0  0  0
   16.5370   29.2210   71.9820 N   0  0  0  0  0  0  0  0  0  0  0  0
   17.4410   30.1260   72.2570 N   0  0  0  0  0  0  0  0  0  0  0  0
   18.3280   29.6610   73.1670 C   0  0  0  0  0  0  0  0  0  0  0  0
   16.1070   26.8630   72.7550 O   0  0  0  0  0  0  0  0  0  0  0  0
   16.6230   25.9010   73.6010 C   0  0  0  0  0  0  0  0  0  0  0  0
   17.6840   26.0910   74.3330 C   0  0  0  0  0  0  0  0  0  0  0  0
   18.1570   25.0040   75.1950 C   0  0  0  0  0  0  0  0  0  0  0  0
   18.5150   24.1610   75.8840 N   0  0  0  0  0  0  0  0  0  0  0  0
   22.2300   27.0290   74.4880 C   0  0  0  0  0  1  0  0  0  0  0  0
   17.5120   31.1030   71.8510 H   0  0  0  0  0  0  0  0  0  0  0  0
   15.9260   24.6330   73.6490 N   0  0  0  0  0  0  0  0  0  0  0  0
   15.4590   24.2050   72.8300 H   0  0  0  0  0  0  0  0  0  0  0  0
   15.9000   24.1350   74.5530 H   0  0  0  0  0  0  0  0  0  0  0  0
   19.4690   30.4350   73.7180 C   0  0  0  0  0  2  0  0  0  0  0  0
   19.9590   31.4400   72.7500 C   0  0  0  0  0  0  0  0  0  0  0  0
   20.2230   31.2190   71.5410 O   0  0  0  0  0  0  0  0  0  0  0  0
   20.1420   32.7250   73.2120 O   0  0  0  0  0  0  0  0  0  0  0  0
   19.4130   33.8590   72.8240 C   0  0  0  0  0  2  0  0  0  0  0  0
   18.0440   33.8270   73.4600 C   0  0  0  0  0  1  0  0  0  0  0  0
  2  7  1  0  0  0  0
  2  1  1  0  0  0  0
  3  2  2  0  0  0  0
  4  5  2  0  0  0  0
  4  3  1  0  0  0  0
  5  6  1  0  0  0  0
  6  7  2  0  0  0  0
  8  5  1  0  0  0  0
  9 11  1  0  0  0  0
  9  8  1  0  0  0  0
 10  9  2  0  0  0  0
 11 12  1  6  0  0  0
 11  4  1  0  0  0  0
 13 17  1  0  0  0  0
 13 12  1  0  0  0  0
 14 15  1  0  0  0  0
 14 13  2  0  0  0  0
 15 16  1  0  0  0  0
 16 12  2  0  0  0  0
 16 27  1  0  0  0  0
 17 18  1  0  0  0  0
 18 24  1  0  0  0  0
 18 19  2  0  0  0  0
 19 11  1  0  0  0  0
 19 20  1  0  0  0  0
 20 21  3  0  0  0  0
 22  8  1  0  0  0  0
 23 15  1  0  0  0  0
 24 26  1  0  0  0  0
 25 24  1  0  0  0  0
 28 30  1  0  0  0  0
 28 27  1  0  0  0  0
 29 28  2  0  0  0  0
 31 30  1  0  0  0  0
 31 32  1  0  0  0  0
M  END
>  <Pose>
1

>  <Score>
-5.542

$$$$
