MODEL 1
REMARK VINA RESULT:    -5.896      0.000      0.000
REMARK INTER + INTRA:          -6.069
REMARK INTER:                  -6.069
REMARK INTRA:                   0.000
REMARK UNBOUND:                 0.000
REMARK  1 active torsions:
REMARK  status: ('A' for Active; 'I' for Inactive)
REMARK    1  A    between atoms: C_15  and  N_19 
ROOT
ATOM      1 Br   UNK d   1      12.448  23.720  73.825  0.00  0.00    -0.051 Br
ATOM      2  C   UNK d   1      14.196  24.324  74.258  0.00  0.00     0.011 A 
ATOM      3  C   UNK d   1      14.483  25.632  74.565  0.00  0.00     0.030 A 
ATOM      4  C   UNK d   1      15.794  25.995  74.872  0.00  0.00    -0.002 A 
ATOM      5  C   UNK d   1      16.824  25.116  74.885  0.00  0.00     0.045 A 
ATOM      6  C   UNK d   1      16.532  23.785  74.573  0.00  0.00     0.031 A 
ATOM      7  C   UNK d   1      15.243  23.408  74.268  0.00  0.00     0.021 A 
ATOM      8  N   UNK d   1      18.050  25.733  75.227  0.00  0.00    -0.320 N 
ATOM      9  C   UNK d   1      17.789  27.099  75.447  0.00  0.00     0.247 A 
ATOM     10  O   UNK d   1      18.638  27.976  75.771  0.00  0.00    -0.271 OA
ATOM     11  C   UNK d   1      16.336  27.345  75.234  0.00  0.00     0.146 A 
ATOM     12  C   UNK d   1      16.130  28.285  74.103  0.00  0.00     0.071 A 
ATOM     13  C   UNK d   1      15.418  29.348  74.208  0.00  0.00     0.060 A 
ATOM     14  N   UNK d   1      14.750  29.728  75.443  0.00  0.00    -0.342 N 
ATOM     15  C   UNK d   1      14.937  28.842  76.527  0.00  0.00     0.118 A 
ATOM     16  C   UNK d   1      15.656  27.757  76.442  0.00  0.00     0.093 A 
ATOM     17  C   UNK d   1      15.760  26.939  77.645  0.00  0.00     0.101 C 
ATOM     18  N   UNK d   1      15.855  26.276  78.590  0.00  0.00    -0.191 NA
ATOM     19  C   UNK d   1      15.421  30.060  72.893  0.00  0.00     0.106 A 
ATOM     20  O   UNK d   1      16.201  29.286  72.059  0.00  0.00    -0.301 OA
ATOM     21  C   UNK d   1      16.673  28.187  72.710  0.00  0.00     0.294 A 
ATOM     22  O   UNK d   1      17.415  27.247  72.293  0.00  0.00    -0.259 OA
ATOM     23  C   UNK d   1      15.942  31.473  73.070  0.00  0.00     0.053 C 
ATOM     24  C   UNK d   1      14.021  30.115  72.310  0.00  0.00     0.053 C 
ATOM     25  C   UNK d   1      19.374  25.102  75.341  0.00  0.00     0.159 C 
ATOM     26  H   UNK d   1      14.188  30.597  75.472  0.00  0.00     0.167 HD
ENDROOT
BRANCH  15  27
ATOM     27  N   UNK d   1      14.292  29.172  77.788  0.00  0.00    -0.384 N 
ATOM     28  H   UNK d   1      13.286  29.431  77.747  0.00  0.00     0.157 HD
ATOM     29  H   UNK d   1      14.808  29.151  78.678  0.00  0.00     0.157 HD
ENDBRANCH  15  27
TORSDOF 1
ENDMDL
