MODEL 1
REMARK VINA RESULT:    -5.953      0.000      0.000
REMARK INTER + INTRA:          -6.731
REMARK INTER:                  -6.649
REMARK INTRA:                  -0.082
REMARK UNBOUND:                -0.082
REMARK  3 active torsions:
REMARK  status: ('A' for Active; 'I' for Inactive)
REMARK    1  A    between atoms: C_15  and  N_19 
REMARK    2  A    between atoms: C_23  and  C_25 
REMARK    3  A    between atoms: C_25  and  O_26 
ROOT
ATOM      1 Br   UNK d   1      15.719  28.965  79.085  0.00  0.00    -0.051 Br
ATOM      2  C   UNK d   1      15.563  27.869  77.537  0.00  0.00     0.011 A 
ATOM      3  C   UNK d   1      16.338  28.133  76.429  0.00  0.00     0.030 A 
ATOM      4  C   UNK d   1      16.242  27.343  75.280  0.00  0.00     0.000 A 
ATOM      5  C   UNK d   1      15.361  26.310  75.296  0.00  0.00     0.045 A 
ATOM      6  C   UNK d   1      14.567  26.041  76.431  0.00  0.00     0.031 A 
ATOM      7  C   UNK d   1      14.668  26.823  77.558  0.00  0.00     0.021 A 
ATOM      8  N   UNK d   1      15.415  25.638  74.044  0.00  0.00    -0.320 N 
ATOM      9  C   UNK d   1      16.359  26.263  73.210  0.00  0.00     0.249 A 
ATOM     10  O   UNK d   1      16.676  25.946  72.036  0.00  0.00    -0.271 OA
ATOM     11  C   UNK d   1      16.950  27.407  73.967  0.00  0.00     0.163 A 
ATOM     12  C   UNK d   1      16.688  28.679  73.285  0.00  0.00     0.119 A 
ATOM     13  C   UNK d   1      17.691  29.527  72.947  0.00  0.00     0.159 A 
ATOM     14  O   UNK d   1      19.018  29.202  73.245  0.00  0.00    -0.286 OA
ATOM     15  C   UNK d   1      19.319  28.016  73.886  0.00  0.00     0.161 A 
ATOM     16  C   UNK d   1      18.377  27.187  74.219  0.00  0.00     0.102 A 
ATOM     17  C   UNK d   1      18.789  25.949  74.897  0.00  0.00     0.101 C 
ATOM     18  N   UNK d   1      19.106  24.993  75.430  0.00  0.00    -0.191 NA
ATOM     19  C   UNK d   1      17.393  30.729  72.299  0.00  0.00     0.210 A 
ATOM     20  O   UNK d   1      18.326  31.500  71.993  0.00  0.00    -0.285 OA
ATOM     21  C   UNK d   1      16.084  31.035  72.012  0.00  0.00     0.092 A 
ATOM     22  C   UNK d   1      15.105  30.135  72.379  0.00  0.00     0.080 A 
ATOM     23  O   UNK d   1      15.440  29.041  72.975  0.00  0.00    -0.312 OA
ATOM     24  C   UNK d   1      14.580  24.464  73.725  0.00  0.00     0.159 C 
ENDROOT
BRANCH  15  25
ATOM     25  N   UNK d   1      20.705  27.750  74.159  0.00  0.00    -0.379 N 
ATOM     26  H   UNK d   1      20.960  26.846  74.553  0.00  0.00     0.158 HD
ATOM     27  H   UNK d   1      21.388  28.477  73.951  0.00  0.00     0.158 HD
ENDBRANCH  15  25
BRANCH  22  28
ATOM     28  C   UNK d   1      13.656  30.449  72.073  0.00  0.00     0.229 C 
BRANCH  28  29
ATOM     29  O   UNK d   1      13.467  30.429  70.692  0.00  0.00    -0.394 OA
ATOM     30  H   UNK d   1      12.687  29.834  70.477  0.00  0.00     0.209 HD
ENDBRANCH  28  29
ENDBRANCH  22  28
TORSDOF 3
ENDMDL
