/Users/jonathanwahrer/Desktop/Msc/3_Semester/Drug_Design_Praktikum/waehrer_HTS_screening/HTS_experiment/out/docking_results/vina_output/4x21/0513_docked.pdbqt
 OpenBabel03212201443D

 33 36  0  0  0  0  0  0  0  0999 V2000
   20.0700   33.3150   69.5810 N   0  0  0  0  0  0  0  0  0  0  0  0
   21.2120   34.1450   69.4250 C   0  0  0  0  0  0  0  0  0  0  0  0
   21.7260   34.6020   70.4590 O   0  0  0  0  0  0  0  0  0  0  0  0
   19.6320   32.9440   68.7110 H   0  0  0  0  0  0  0  0  0  0  0  0
   19.5200   32.9890   70.8070 N   0  0  0  0  0  0  0  0  0  0  0  0
   19.7540   33.5720   71.6570 H   0  0  0  0  0  0  0  0  0  0  0  0
   18.6470   31.9130   71.0200 C   0  0  0  0  0  3  0  0  0  0  0  0
   17.3360   31.9990   71.0820 C   0  0  0  0  0  0  0  0  0  0  0  0
   16.4770   33.1800   70.9530 C   0  0  0  0  0  0  0  0  0  0  0  0
   16.4060   30.8800   71.3060 C   0  0  0  0  0  0  0  0  0  0  0  0
   16.7510   34.5130   70.7320 C   0  0  0  0  0  3  0  0  0  0  0  0
   15.1540   32.8310   71.0820 C   0  0  0  0  0  0  0  0  0  0  0  0
   15.7600   35.4890   70.6360 C   0  0  0  0  0  0  0  0  0  0  0  0
   16.2250   37.3200   70.3230 Br  0  0  0  0  0  0  0  0  0  0  0  0
   14.4520   35.1010   70.7710 C   0  0  0  0  0  3  0  0  0  0  0  0
   14.1310   33.7870   70.9920 C   0  0  0  0  0  3  0  0  0  0  0  0
   15.1010   31.4280   71.2980 N   0  0  0  0  0  0  0  0  0  0  0  0
   14.2290   30.8650   71.4350 H   0  0  0  0  0  0  0  0  0  0  0  0
   16.7540   29.6850   71.4690 O   0  0  0  0  0  0  0  0  0  0  0  0
   21.8020   34.4740   68.1080 C   0  0  0  0  0  2  0  0  0  0  0  0
   21.5500   35.7840   67.7250 N   0  0  0  0  0  0  0  0  0  0  0  0
   22.2390   36.6450   66.9780 C   0  0  0  0  0  0  0  0  0  0  0  0
   21.5650   37.8590   66.9560 C   0  0  0  0  0  0  0  0  0  0  0  0
   23.3930   36.4650   66.3040 N   0  0  0  0  0  0  0  0  0  0  0  0
   20.4590   37.7000   67.7060 N   0  0  0  0  0  0  0  0  0  0  0  0
   22.0770   38.9190   66.2340 C   0  0  0  0  0  0  0  0  0  0  0  0
   20.4470   36.4690   68.1640 C   0  0  0  0  0  3  0  0  0  0  0  0
   21.4460   40.0070   66.2350 O   0  0  0  0  0  0  0  0  0  0  0  0
   23.2130   38.7230   65.5810 N   0  0  0  0  0  0  0  0  0  0  0  0
   23.8550   37.5420   65.6080 C   0  0  0  0  0  0  0  0  0  0  0  0
   23.8030   39.8220   64.7990 C   0  0  0  0  0  1  0  0  0  0  0  0
   24.9270   37.3990   64.9750 O   0  0  0  0  0  0  0  0  0  0  0  0
   24.0830   35.2070   66.2830 C   0  0  0  0  0  1  0  0  0  0  0  0
  1  5  1  0  0  0  0
  2  1  1  0  0  0  0
  2  3  2  0  0  0  0
  4  1  1  0  0  0  0
  5  7  1  0  0  0  0
  5  6  1  0  0  0  0
  7  8  2  0  0  0  0
  8 10  1  0  0  0  0
  9 12  1  0  0  0  0
  9  8  1  0  0  0  0
 10 19  2  0  0  0  0
 11  9  2  0  0  0  0
 12 17  1  0  0  0  0
 13 11  1  0  0  0  0
 13 15  2  0  0  0  0
 14 13  1  0  0  0  0
 15 16  1  0  0  0  0
 16 12  2  0  0  0  0
 17 10  1  0  0  0  0
 17 18  1  0  0  0  0
 20  2  1  0  0  0  0
 21 20  1  0  0  0  0
 21 27  1  0  0  0  0
 22 21  1  0  0  0  0
 23 22  2  0  0  0  0
 23 25  1  0  0  0  0
 24 22  1  0  0  0  0
 25 27  2  0  0  0  0
 26 28  2  0  0  0  0
 26 23  1  0  0  0  0
 29 30  1  0  0  0  0
 29 26  1  0  0  0  0
 30 24  1  0  0  0  0
 31 29  1  0  0  0  0
 32 30  2  0  0  0  0
 33 24  1  0  0  0  0
M  END
>  <Pose>
1

>  <Score>
-9.869

$$$$
