/Users/jonathanwahrer/Desktop/Msc/3_Semester/Drug_Design_Praktikum/waehrer_HTS_screening/HTS_experiment/out/docking_results/vina_output/4x21/0526_docked.pdbqt
 OpenBabel03212201443D

 31 34  0  0  0  0  0  0  0  0999 V2000
   18.7600   37.2670   69.8370 N   0  0  0  0  0  0  0  0  0  0  0  0
   17.4690   37.6590   69.4370 C   0  0  0  0  0  0  0  0  0  0  0  0
   17.3060   38.0570   68.2290 O   0  0  0  0  0  0  0  0  0  0  0  0
   18.9140   36.9480   70.8320 H   0  0  0  0  0  0  0  0  0  0  0  0
   16.2470   37.6600   70.2460 C   0  0  0  0  0  2  0  0  0  0  0  0
   15.5180   36.4250   70.2990 N   0  0  0  0  0  0  0  0  0  0  0  0
   16.0390   35.2780   70.9600 C   0  0  0  0  0  0  0  0  0  0  0  0
   17.2050   35.4240   71.4990 O   0  0  0  0  0  0  0  0  0  0  0  0
   14.5970   36.3110   69.8480 H   0  0  0  0  0  0  0  0  0  0  0  0
   15.4030   34.0010   71.0760 C   0  0  0  0  0  0  0  0  0  0  0  0
   16.0530   32.7950   71.2920 C   0  0  0  0  0  3  0  0  0  0  0  0
   15.3890   31.6210   71.4010 C   0  0  0  0  0  0  0  0  0  0  0  0
   14.0140   31.5680   71.3010 C   0  0  0  0  0  0  0  0  0  0  0  0
   15.7810   30.2490   71.6280 O   0  0  0  0  0  0  0  0  0  0  0  0
   13.3340   32.7250   71.0860 C   0  0  0  0  0  3  0  0  0  0  0  0
   13.6070   30.2330   71.4610 O   0  0  0  0  0  0  0  0  0  0  0  0
   14.0050   33.9530   70.9740 C   0  0  0  0  0  3  0  0  0  0  0  0
   14.6200   29.7150   72.3570 C   0  0  0  0  0  2  0  0  0  0  0  0
   19.7870   37.3010   68.9630 N   0  0  0  0  0  0  0  0  0  0  0  0
   20.6520   36.6250   68.5000 C   0  0  0  0  0  0  0  0  0  0  0  0
   21.7000   36.9100   67.5120 C   0  0  0  0  0  0  0  0  0  0  0  0
   20.7970   35.1940   68.9000 C   0  0  0  0  0  0  0  0  0  0  0  0
   22.0030   38.0720   66.8360 C   0  0  0  0  0  3  0  0  0  0  0  0
   22.4070   35.7630   67.3390 C   0  0  0  0  0  0  0  0  0  0  0  0
   23.0410   38.1310   65.9490 C   0  0  0  0  0  0  0  0  0  0  0  0
   23.4750   39.7250   65.0140 Br  0  0  0  0  0  0  0  0  0  0  0  0
   23.7770   36.9690   65.7570 C   0  0  0  0  0  3  0  0  0  0  0  0
   23.4710   35.8140   66.4320 C   0  0  0  0  0  3  0  0  0  0  0  0
   21.9080   34.7130   68.1390 N   0  0  0  0  0  0  0  0  0  0  0  0
   22.2670   33.7300   68.2010 H   0  0  0  0  0  0  0  0  0  0  0  0
   20.0720   34.6250   69.7180 O   0  0  0  0  0  0  0  0  0  0  0  0
  1  4  1  0  0  0  0
  2  1  1  0  0  0  0
  2  5  1  0  0  0  0
  3  2  2  0  0  0  0
  5  6  1  0  0  0  0
  6  7  1  0  0  0  0
  7 10  1  0  0  0  0
  7  8  2  0  0  0  0
  9  6  1  0  0  0  0
 10 11  1  0  0  0  0
 11 12  2  0  0  0  0
 12 14  1  0  0  0  0
 13 12  1  0  0  0  0
 13 16  1  0  0  0  0
 14 18  1  0  0  0  0
 15 13  2  0  0  0  0
 16 18  1  0  0  0  0
 17 10  2  0  0  0  0
 17 15  1  0  0  0  0
 19  1  1  0  0  0  0
 20 22  1  0  0  0  0
 20 19  2  0  0  0  0
 21 20  1  0  0  0  0
 22 31  2  0  0  0  0
 23 21  2  0  0  0  0
 24 21  1  0  0  0  0
 24 29  1  0  0  0  0
 25 23  1  0  0  0  0
 26 25  1  0  0  0  0
 27 25  2  0  0  0  0
 27 28  1  0  0  0  0
 28 24  2  0  0  0  0
 29 30  1  0  0  0  0
 29 22  1  0  0  0  0
M  END
>  <Pose>
1

>  <Score>
-9.301

$$$$
