MODEL 1
REMARK VINA RESULT:    -9.301      0.000      0.000
REMARK INTER + INTRA:         -12.087
REMARK INTER:                 -11.476
REMARK INTRA:                  -0.611
REMARK UNBOUND:                -0.611
REMARK  4 active torsions:
REMARK  status: ('A' for Active; 'I' for Inactive)
REMARK    1  A    between atoms: N_12  and  N_13 
REMARK       I    between atoms: N_13  and  C_14 
REMARK    2  A    between atoms: C_14  and  C_16 
REMARK    3  A    between atoms: C_16  and  N_17 
REMARK       I    between atoms: N_17  and  C_18 
REMARK    4  A    between atoms: C_18  and  C_20 
ROOT
ATOM      1  N   UNK d   1      18.760  37.267  69.837  0.00  0.00    -0.245 N 
ATOM      2  C   UNK d   1      17.469  37.659  69.437  0.00  0.00     0.255 C 
ATOM      3  O   UNK d   1      17.306  38.057  68.229  0.00  0.00    -0.270 OA
ATOM      4  H   UNK d   1      18.914  36.948  70.832  0.00  0.00     0.192 HD
ENDROOT
BRANCH   2   5
ATOM      5  C   UNK d   1      16.247  37.660  70.246  0.00  0.00     0.227 C 
BRANCH   5   6
ATOM      6  N   UNK d   1      15.518  36.425  70.299  0.00  0.00    -0.348 N 
ATOM      7  C   UNK d   1      16.039  35.278  70.960  0.00  0.00     0.252 C 
ATOM      8  O   UNK d   1      17.205  35.424  71.499  0.00  0.00    -0.268 OA
ATOM      9  H   UNK d   1      14.597  36.311  69.848  0.00  0.00     0.163 HD
BRANCH   7  10
ATOM     10  C   UNK d   1      15.403  34.001  71.076  0.00  0.00     0.034 A 
ATOM     11  C   UNK d   1      16.053  32.795  71.292  0.00  0.00     0.056 A 
ATOM     12  C   UNK d   1      15.389  31.621  71.401  0.00  0.00     0.106 A 
ATOM     13  C   UNK d   1      14.014  31.568  71.301  0.00  0.00     0.105 A 
ATOM     14  O   UNK d   1      15.781  30.249  71.628  0.00  0.00    -0.323 OA
ATOM     15  C   UNK d   1      13.334  32.725  71.086  0.00  0.00     0.041 A 
ATOM     16  O   UNK d   1      13.607  30.233  71.461  0.00  0.00    -0.323 OA
ATOM     17  C   UNK d   1      14.005  33.953  70.974  0.00  0.00     0.020 A 
ATOM     18  C   UNK d   1      14.620  29.715  72.357  0.00  0.00     0.352 C 
ENDBRANCH   7  10
ENDBRANCH   5   6
ENDBRANCH   2   5
BRANCH   1  19
ATOM     19  N   UNK d   1      19.787  37.301  68.963  0.00  0.00    -0.166 NA
ATOM     20  C   UNK d   1      20.652  36.625  68.500  0.00  0.00     0.157 A 
ATOM     21  C   UNK d   1      21.700  36.910  67.512  0.00  0.00     0.028 A 
ATOM     22  C   UNK d   1      20.797  35.194  68.900  0.00  0.00     0.277 A 
ATOM     23  C   UNK d   1      22.003  38.072  66.836  0.00  0.00     0.035 A 
ATOM     24  C   UNK d   1      22.407  35.763  67.339  0.00  0.00     0.048 A 
ATOM     25  C   UNK d   1      23.041  38.131  65.949  0.00  0.00     0.011 A 
ATOM     26 Br   UNK d   1      23.475  39.725  65.014  0.00  0.00    -0.051 Br
ATOM     27  C   UNK d   1      23.777  36.969  65.757  0.00  0.00     0.021 A 
ATOM     28  C   UNK d   1      23.471  35.814  66.432  0.00  0.00     0.032 A 
ATOM     29  N   UNK d   1      21.908  34.713  68.139  0.00  0.00    -0.321 N 
ATOM     30  H   UNK d   1      22.267  33.730  68.201  0.00  0.00     0.169 HD
ATOM     31  O   UNK d   1      20.072  34.625  69.718  0.00  0.00    -0.266 OA
ENDBRANCH   1  19
TORSDOF 4
ENDMDL
