MODEL 1
REMARK VINA RESULT:    -9.350      0.000      0.000
REMARK INTER + INTRA:         -10.953
REMARK INTER:                 -10.443
REMARK INTRA:                  -0.510
REMARK UNBOUND:                -0.510
REMARK  2 active torsions:
REMARK  status: ('A' for Active; 'I' for Inactive)
REMARK    1  A    between atoms: N_18  and  C_21 
REMARK    2  A    between atoms: C_21  and  C_22 
ROOT
ATOM      1 Br   UNK d   1      20.947  36.631  67.643  0.00  0.00    -0.051 Br
ATOM      2  C   UNK d   1      20.447  35.853  69.311  0.00  0.00     0.011 A 
ATOM      3  C   UNK d   1      19.139  35.470  69.585  0.00  0.00     0.031 A 
ATOM      4  C   UNK d   1      18.787  34.912  70.784  0.00  0.00     0.019 A 
ATOM      5  C   UNK d   1      19.792  34.742  71.725  0.00  0.00     0.044 A 
ATOM      6  C   UNK d   1      21.091  35.120  71.460  0.00  0.00     0.031 A 
ATOM      7  C   UNK d   1      21.433  35.680  70.251  0.00  0.00     0.021 A 
ATOM      8  N   UNK d   1      19.260  34.147  72.911  0.00  0.00    -0.324 N 
ATOM      9  C   UNK d   1      17.877  33.930  72.727  0.00  0.00     0.267 A 
ATOM     10  O   UNK d   1      17.130  33.422  73.575  0.00  0.00    -0.270 OA
ATOM     11  C   UNK d   1      17.544  34.418  71.372  0.00  0.00     0.281 A 
ATOM     12  N   UNK d   1      16.490  35.378  71.514  0.00  0.00     0.118 N 
ATOM     13  C   UNK d   1      15.302  34.564  71.764  0.00  0.00     0.239 C 
ATOM     14  C   UNK d   1      15.495  33.292  71.005  0.00  0.00     0.128 C 
ATOM     15  C   UNK d   1      16.901  33.355  70.517  0.00  0.00     0.147 C 
ATOM     16  C   UNK d   1      17.439  32.018  70.745  0.00  0.00     0.235 C 
ATOM     17  O   UNK d   1      18.545  31.587  70.349  0.00  0.00    -0.272 OA
ATOM     18  N   UNK d   1      16.518  31.264  71.492  0.00  0.00    -0.285 N 
ATOM     19  C   UNK d   1      15.406  32.084  71.886  0.00  0.00     0.233 C 
ATOM     20  O   UNK d   1      14.537  31.868  72.767  0.00  0.00    -0.272 OA
ATOM     21  C   UNK d   1      14.148  35.326  71.128  0.00  0.00     0.038 C 
ATOM     22  C   UNK d   1      14.748  36.597  70.563  0.00  0.00     0.032 C 
ATOM     23  C   UNK d   1      16.189  36.131  70.315  0.00  0.00     0.275 C 
ATOM     24  H   UNK d   1      19.831  33.916  73.777  0.00  0.00     0.169 HD
ENDROOT
BRANCH  18  25
ATOM     25  C   UNK d   1      16.638  29.881  71.830  0.00  0.00     0.166 C 
BRANCH  25  26
ATOM     26  C   UNK d   1      17.350  29.597  73.102  0.00  0.00     0.140 C 
ATOM     27  O   UNK d   1      18.729  29.496  72.963  0.00  0.00    -0.384 OA
ATOM     28  C   UNK d   1      19.147  29.001  74.191  0.00  0.00     0.168 C 
ATOM     29  C   UNK d   1      18.117  28.030  74.677  0.00  0.00     0.029 C 
ATOM     30  C   UNK d   1      16.888  28.390  73.843  0.00  0.00     0.035 C 
ENDBRANCH  25  26
ENDBRANCH  18  25
TORSDOF 2
ENDMDL
