/Users/jonathanwahrer/Desktop/Msc/3_Semester/Drug_Design_Praktikum/waehrer_HTS_screening/HTS_experiment/out/docking_results/vina_output/4x21/0550_docked.pdbqt
 OpenBabel03212201443D

 30 35  0  0  1  0  0  0  0  0999 V2000
   20.9470   36.6310   67.6430 Br  0  0  0  0  0  0  0  0  0  0  0  0
   20.4470   35.8530   69.3110 C   0  0  0  0  0  0  0  0  0  0  0  0
   19.1390   35.4700   69.5850 C   0  0  0  0  0  3  0  0  0  0  0  0
   18.7870   34.9120   70.7840 C   0  0  0  0  0  0  0  0  0  0  0  0
   19.7920   34.7420   71.7250 C   0  0  0  0  0  0  0  0  0  0  0  0
   21.0910   35.1200   71.4600 C   0  0  0  0  0  3  0  0  0  0  0  0
   21.4330   35.6800   70.2510 C   0  0  0  0  0  3  0  0  0  0  0  0
   19.2600   34.1470   72.9110 N   0  0  0  0  0  0  0  0  0  0  0  0
   17.8770   33.9300   72.7270 C   0  0  0  0  0  0  0  0  0  0  0  0
   17.1300   33.4220   73.5750 O   0  0  0  0  0  0  0  0  0  0  0  0
   17.5440   34.4180   71.3720 C   0  0  1  0  0  0  0  0  0  0  0  0
   16.4900   35.3780   71.5140 N   0  0  2  0  0  0  0  0  0  0  0  0
   15.3020   34.5640   71.7640 C   0  0  2  0  0  3  0  0  0  0  0  0
   15.4950   33.2920   71.0050 C   0  0  1  0  0  3  0  0  0  0  0  0
   16.9010   33.3550   70.5170 C   0  0  2  0  0  3  0  0  0  0  0  0
   17.4390   32.0180   70.7450 C   0  0  0  0  0  0  0  0  0  0  0  0
   18.5450   31.5870   70.3490 O   0  0  0  0  0  0  0  0  0  0  0  0
   16.5180   31.2640   71.4920 N   0  0  0  0  0  0  0  0  0  0  0  0
   15.4060   32.0840   71.8860 C   0  0  0  0  0  0  0  0  0  0  0  0
   14.5370   31.8680   72.7670 O   0  0  0  0  0  0  0  0  0  0  0  0
   14.1480   35.3260   71.1280 C   0  0  0  0  0  2  0  0  0  0  0  0
   14.7480   36.5970   70.5630 C   0  0  0  0  0  2  0  0  0  0  0  0
   16.1890   36.1310   70.3150 C   0  0  0  0  0  2  0  0  0  0  0  0
   19.8310   33.9160   73.7770 H   0  0  0  0  0  0  0  0  0  0  0  0
   16.6380   29.8810   71.8300 C   0  0  0  0  0  2  0  0  0  0  0  0
   17.3500   29.5970   73.1020 C   0  0  2  0  0  3  0  0  0  0  0  0
   18.7290   29.4960   72.9630 O   0  0  0  0  0  0  0  0  0  0  0  0
   19.1470   29.0010   74.1910 C   0  0  0  0  0  2  0  0  0  0  0  0
   18.1170   28.0300   74.6770 C   0  0  0  0  0  2  0  0  0  0  0  0
   16.8880   28.3900   73.8430 C   0  0  0  0  0  2  0  0  0  0  0  0
  1  2  1  0  0  0  0
  2  3  2  0  0  0  0
  2  7  1  0  0  0  0
  3  4  1  0  0  0  0
  4  5  2  0  0  0  0
  5  8  1  0  0  0  0
  6  5  1  0  0  0  0
  7  6  2  0  0  0  0
  8 24  1  0  0  0  0
  9  8  1  0  0  0  0
  9 10  2  0  0  0  0
 11  4  1  6  0  0  0
 11 12  1  0  0  0  0
 11  9  1  0  0  0  0
 12 23  1  6  0  0  0
 12 13  1  0  0  0  0
 13 21  1  6  0  0  0
 14 13  1  0  0  0  0
 14 19  1  1  0  0  0
 15 16  1  1  0  0  0
 15 14  1  0  0  0  0
 15 11  1  0  0  0  0
 16 18  1  0  0  0  0
 17 16  2  0  0  0  0
 18 25  1  0  0  0  0
 18 19  1  0  0  0  0
 19 20  2  0  0  0  0
 22 21  1  0  0  0  0
 23 22  1  0  0  0  0
 26 25  1  6  0  0  0
 26 30  1  0  0  0  0
 27 26  1  0  0  0  0
 27 28  1  0  0  0  0
 28 29  1  0  0  0  0
 30 29  1  0  0  0  0
M  END
>  <Pose>
1

>  <Score>
-9.350

$$$$
