MODEL 1
REMARK VINA RESULT:    -5.098      0.000      0.000
REMARK INTER + INTRA:          -7.059
REMARK INTER:                  -6.142
REMARK INTRA:                  -0.917
REMARK UNBOUND:                -0.917
REMARK  4 active torsions:
REMARK  status: ('A' for Active; 'I' for Inactive)
REMARK    1  A    between atoms: C_19  and  N_26 
REMARK    2  A    between atoms: C_20  and  C_21 
REMARK    3  A    between atoms: C_21  and  O_23 
REMARK    4  A    between atoms: O_23  and  C_24 
ROOT
ATOM      1 Br   UNK d   1      14.771  29.080  79.076  0.00  0.00    -0.051 Br
ATOM      2  C   UNK d   1      14.733  28.136  77.420  0.00  0.00     0.011 A 
ATOM      3  C   UNK d   1      15.800  28.311  76.574  0.00  0.00     0.030 A 
ATOM      4  C   UNK d   1      15.818  27.638  75.347  0.00  0.00    -0.002 A 
ATOM      5  C   UNK d   1      14.780  26.829  75.019  0.00  0.00     0.043 A 
ATOM      6  C   UNK d   1      13.676  26.636  75.872  0.00  0.00     0.031 A 
ATOM      7  C   UNK d   1      13.686  27.309  77.071  0.00  0.00     0.021 A 
ATOM      8  N   UNK d   1      14.980  26.248  73.744  0.00  0.00    -0.325 N 
ATOM      9  C   UNK d   1      16.200  26.719  73.254  0.00  0.00     0.245 A 
ATOM     10  O   UNK d   1      16.745  26.434  72.118  0.00  0.00    -0.271 OA
ATOM     11  C   UNK d   1      16.800  27.629  74.274  0.00  0.00     0.141 A 
ATOM     12  C   UNK d   1      18.097  27.084  74.580  0.00  0.00     0.048 A 
ATOM     13  C   UNK d   1      19.226  27.730  74.240  0.00  0.00     0.176 A 
ATOM     14  N   UNK d   1      20.275  26.954  74.669  0.00  0.00    -0.256 N 
ATOM     15  N   UNK d   1      19.788  25.877  75.247  0.00  0.00    -0.177 NA
ATOM     16  C   UNK d   1      18.454  25.886  75.231  0.00  0.00     0.063 A 
ATOM     17  C   UNK d   1      17.510  24.867  75.773  0.00  0.00     0.073 C 
ATOM     18  O   UNK d   1      19.238  28.968  73.571  0.00  0.00    -0.275 OA
ATOM     19  C   UNK d   1      17.996  29.511  73.267  0.00  0.00     0.158 A 
ATOM     20  C   UNK d   1      16.873  28.932  73.570  0.00  0.00     0.095 A 
ATOM     21  H   UNK d   1      14.345  25.577  73.224  0.00  0.00     0.169 HD
ATOM     22  H   UNK d   1      21.288  27.183  74.553  0.00  0.00     0.191 HD
ENDROOT
BRANCH  20  23
ATOM     23  C   UNK d   1      15.593  29.601  73.198  0.00  0.00     0.295 C 
ATOM     24  O   UNK d   1      15.144  29.402  72.055  0.00  0.00    -0.259 OA
BRANCH  23  25
ATOM     25  O   UNK d   1      14.897  30.413  74.051  0.00  0.00    -0.318 OA
BRANCH  25  26
ATOM     26  C   UNK d   1      13.575  30.851  73.843  0.00  0.00     0.174 C 
ATOM     27  C   UNK d   1      12.685  30.092  74.832  0.00  0.00     0.034 C 
ENDBRANCH  25  26
ENDBRANCH  23  25
ENDBRANCH  20  23
BRANCH  19  28
ATOM     28  N   UNK d   1      17.925  30.780  72.580  0.00  0.00    -0.379 N 
ATOM     29  H   UNK d   1      17.023  31.260  72.547  0.00  0.00     0.158 HD
ATOM     30  H   UNK d   1      18.768  31.163  72.151  0.00  0.00     0.158 HD
ENDBRANCH  19  28
TORSDOF 4
ENDMDL
