/Users/jonathanwahrer/Desktop/Msc/3_Semester/Drug_Design_Praktikum/waehrer_HTS_screening/HTS_experiment/out/docking_results/vina_output/4x21/0556_docked.pdbqt
 OpenBabel03212201443D

 30 33  0  0  1  0  0  0  0  0999 V2000
   14.7710   29.0800   79.0760 Br  0  0  0  0  0  0  0  0  0  0  0  0
   14.7330   28.1360   77.4200 C   0  0  0  0  0  0  0  0  0  0  0  0
   15.8000   28.3110   76.5740 C   0  0  0  0  0  3  0  0  0  0  0  0
   15.8180   27.6380   75.3470 C   0  0  0  0  0  0  0  0  0  0  0  0
   14.7800   26.8290   75.0190 C   0  0  0  0  0  0  0  0  0  0  0  0
   13.6760   26.6360   75.8720 C   0  0  0  0  0  3  0  0  0  0  0  0
   13.6860   27.3090   77.0710 C   0  0  0  0  0  3  0  0  0  0  0  0
   14.9800   26.2480   73.7440 N   0  0  0  0  0  0  0  0  0  0  0  0
   16.2000   26.7190   73.2540 C   0  0  0  0  0  0  0  0  0  0  0  0
   16.7450   26.4340   72.1180 O   0  0  0  0  0  0  0  0  0  0  0  0
   16.8000   27.6290   74.2740 C   0  0  2  0  0  0  0  0  0  0  0  0
   18.0970   27.0840   74.5800 C   0  0  0  0  0  0  0  0  0  0  0  0
   19.2260   27.7300   74.2400 C   0  0  0  0  0  0  0  0  0  0  0  0
   20.2750   26.9540   74.6690 N   0  0  0  0  0  0  0  0  0  0  0  0
   19.7880   25.8770   75.2470 N   0  0  0  0  0  0  0  0  0  0  0  0
   18.4540   25.8860   75.2310 C   0  0  0  0  0  0  0  0  0  0  0  0
   17.5100   24.8670   75.7730 C   0  0  0  0  0  1  0  0  0  0  0  0
   19.2380   28.9680   73.5710 O   0  0  0  0  0  0  0  0  0  0  0  0
   17.9960   29.5110   73.2670 C   0  0  0  0  0  0  0  0  0  0  0  0
   16.8730   28.9320   73.5700 C   0  0  0  0  0  0  0  0  0  0  0  0
   14.3450   25.5770   73.2240 H   0  0  0  0  0  0  0  0  0  0  0  0
   21.2880   27.1830   74.5530 H   0  0  0  0  0  0  0  0  0  0  0  0
   15.5930   29.6010   73.1980 C   0  0  0  0  0  0  0  0  0  0  0  0
   15.1440   29.4020   72.0550 O   0  0  0  0  0  0  0  0  0  0  0  0
   14.8970   30.4130   74.0510 O   0  0  0  0  0  0  0  0  0  0  0  0
   13.5750   30.8510   73.8430 C   0  0  0  0  0  2  0  0  0  0  0  0
   12.6850   30.0920   74.8320 C   0  0  0  0  0  1  0  0  0  0  0  0
   17.9250   30.7800   72.5800 N   0  0  0  0  0  0  0  0  0  0  0  0
   17.0230   31.2600   72.5470 H   0  0  0  0  0  0  0  0  0  0  0  0
   18.7680   31.1630   72.1510 H   0  0  0  0  0  0  0  0  0  0  0  0
  2  1  1  0  0  0  0
  3  2  2  0  0  0  0
  4  3  1  0  0  0  0
  5  4  2  0  0  0  0
  5  6  1  0  0  0  0
  6  7  2  0  0  0  0
  7  2  1  0  0  0  0
  8  5  1  0  0  0  0
  9  8  1  0  0  0  0
 10  9  2  0  0  0  0
 11  9  1  6  0  0  0
 11 12  1  0  0  0  0
 11  4  1  0  0  0  0
 12 16  1  0  0  0  0
 13 12  2  0  0  0  0
 13 14  1  0  0  0  0
 14 15  1  0  0  0  0
 16 15  2  0  0  0  0
 16 17  1  0  0  0  0
 18 13  1  0  0  0  0
 19 20  2  0  0  0  0
 19 18  1  0  0  0  0
 20 11  1  0  0  0  0
 21  8  1  0  0  0  0
 22 14  1  0  0  0  0
 23 20  1  0  0  0  0
 23 25  1  0  0  0  0
 24 23  2  0  0  0  0
 26 25  1  0  0  0  0
 26 27  1  0  0  0  0
 28 19  1  0  0  0  0
 29 28  1  0  0  0  0
 30 28  1  0  0  0  0
M  END
>  <Pose>
1

>  <Score>
-5.098

$$$$
