MODEL 1
REMARK VINA RESULT:    -6.357      0.000      0.000
REMARK INTER + INTRA:          -6.542
REMARK INTER:                  -6.542
REMARK INTRA:                   0.000
REMARK UNBOUND:                 0.000
REMARK  1 active torsions:
REMARK  status: ('A' for Active; 'I' for Inactive)
REMARK    1  A    between atoms: C_15  and  N_19 
ROOT
ATOM      1 Br   UNK d   1      18.066  31.592  70.017  0.00  0.00    -0.051 Br
ATOM      2  C   UNK d   1      18.999  33.138  70.605  0.00  0.00     0.011 A 
ATOM      3  C   UNK d   1      19.726  33.946  69.726  0.00  0.00     0.030 A 
ATOM      4  C   UNK d   1      20.396  35.060  70.158  0.00  0.00    -0.002 A 
ATOM      5  C   UNK d   1      20.357  35.392  71.480  0.00  0.00     0.043 A 
ATOM      6  C   UNK d   1      19.643  34.613  72.402  0.00  0.00     0.031 A 
ATOM      7  C   UNK d   1      18.980  33.502  71.938  0.00  0.00     0.021 A 
ATOM      8  N   UNK d   1      21.107  36.568  71.728  0.00  0.00    -0.325 N 
ATOM      9  C   UNK d   1      21.642  36.993  70.499  0.00  0.00     0.246 A 
ATOM     10  O   UNK d   1      22.370  37.996  70.276  0.00  0.00    -0.271 OA
ATOM     11  C   UNK d   1      21.215  36.053  69.440  0.00  0.00     0.146 A 
ATOM     12  C   UNK d   1      22.422  35.406  68.830  0.00  0.00     0.071 A 
ATOM     13  C   UNK d   1      22.727  35.416  67.559  0.00  0.00     0.060 A 
ATOM     14  N   UNK d   1      21.857  36.088  66.668  0.00  0.00    -0.342 N 
ATOM     15  C   UNK d   1      20.689  36.730  67.153  0.00  0.00     0.118 A 
ATOM     16  C   UNK d   1      20.381  36.722  68.427  0.00  0.00     0.093 A 
ATOM     17  C   UNK d   1      19.155  37.410  68.847  0.00  0.00     0.101 C 
ATOM     18  N   UNK d   1      18.196  37.953  69.196  0.00  0.00    -0.191 NA
ATOM     19  C   UNK d   1      23.993  34.667  67.372  0.00  0.00     0.106 A 
ATOM     20  O   UNK d   1      24.399  34.221  68.641  0.00  0.00    -0.301 OA
ATOM     21  C   UNK d   1      23.461  34.656  69.557  0.00  0.00     0.294 A 
ATOM     22  O   UNK d   1      23.505  34.434  70.815  0.00  0.00    -0.259 OA
ATOM     23  C   UNK d   1      25.102  35.593  66.868  0.00  0.00     0.053 C 
ATOM     24  C   UNK d   1      23.806  33.507  66.405  0.00  0.00     0.053 C 
ATOM     25  H   UNK d   1      21.231  37.032  72.683  0.00  0.00     0.169 HD
ATOM     26  H   UNK d   1      22.051  36.128  65.634  0.00  0.00     0.167 HD
ENDROOT
BRANCH  15  27
ATOM     27  N   UNK d   1      19.810  37.414  66.219  0.00  0.00    -0.384 N 
ATOM     28  H   UNK d   1      19.159  36.921  65.587  0.00  0.00     0.157 HD
ATOM     29  H   UNK d   1      19.847  38.446  66.194  0.00  0.00     0.157 HD
ENDBRANCH  15  27
TORSDOF 1
ENDMDL
