MODEL 1
REMARK VINA RESULT:    -8.105      0.000      0.000
REMARK INTER + INTRA:          -9.349
REMARK INTER:                  -9.527
REMARK INTRA:                   0.178
REMARK UNBOUND:                 0.178
REMARK  3 active torsions:
REMARK  status: ('A' for Active; 'I' for Inactive)
REMARK    1  A    between atoms: C_13  and  C_25 
REMARK    2  A    between atoms: N_18  and  C_21 
REMARK    3  A    between atoms: C_25  and  C_26 
REMARK       I    between atoms: C_26  and  N_28 
ROOT
ATOM      1 Br   UNK d   1      22.672  33.924  68.910  0.00  0.00    -0.051 Br
ATOM      2  C   UNK d   1      20.992  34.615  69.529  0.00  0.00     0.011 A 
ATOM      3  C   UNK d   1      20.074  33.817  70.186  0.00  0.00     0.031 A 
ATOM      4  C   UNK d   1      18.864  34.305  70.634  0.00  0.00     0.019 A 
ATOM      5  C   UNK d   1      18.613  35.639  70.392  0.00  0.00     0.044 A 
ATOM      6  C   UNK d   1      19.534  36.446  69.731  0.00  0.00     0.031 A 
ATOM      7  C   UNK d   1      20.721  35.940  69.299  0.00  0.00     0.021 A 
ATOM      8  N   UNK d   1      17.317  35.968  70.917  0.00  0.00    -0.324 N 
ATOM      9  C   UNK d   1      16.746  34.810  71.499  0.00  0.00     0.267 A 
ATOM     10  O   UNK d   1      15.613  34.777  72.033  0.00  0.00    -0.270 OA
ATOM     11  C   UNK d   1      17.716  33.705  71.352  0.00  0.00     0.279 A 
ATOM     12  N   UNK d   1      17.136  32.598  70.640  0.00  0.00     0.114 N 
ATOM     13  C   UNK d   1      16.364  31.901  71.648  0.00  0.00     0.245 C 
ATOM     14  C   UNK d   1      17.267  31.908  72.853  0.00  0.00     0.128 C 
ATOM     15  C   UNK d   1      18.065  33.180  72.699  0.00  0.00     0.147 C 
ATOM     16  C   UNK d   1      19.468  32.785  72.884  0.00  0.00     0.235 C 
ATOM     17  O   UNK d   1      20.463  33.550  72.959  0.00  0.00    -0.272 OA
ATOM     18  N   UNK d   1      19.561  31.344  72.972  0.00  0.00    -0.279 N 
ATOM     19  C   UNK d   1      18.255  30.807  72.842  0.00  0.00     0.234 C 
ATOM     20  O   UNK d   1      18.006  29.582  72.736  0.00  0.00    -0.272 OA
ATOM     21  H   UNK d   1      16.904  36.924  70.854  0.00  0.00     0.169 HD
ATOM     22  H   UNK d   1      17.893  31.973  70.317  0.00  0.00     0.318 HD
ENDROOT
BRANCH  13  23
ATOM     23  C   UNK d   1      16.002  30.521  71.171  0.00  0.00     0.139 C 
BRANCH  23  24
ATOM     24  C   UNK d   1      14.778  30.038  71.831  0.00  0.00     0.217 C 
ATOM     25  O   UNK d   1      13.663  30.281  71.293  0.00  0.00    -0.274 OA
ATOM     26  N   UNK d   1      14.752  29.306  73.045  0.00  0.00    -0.370 N 
ATOM     27  H   UNK d   1      15.273  29.550  73.900  0.00  0.00     0.159 HD
ATOM     28  H   UNK d   1      14.147  28.443  73.067  0.00  0.00     0.159 HD
ENDBRANCH  23  24
ENDBRANCH  13  23
BRANCH  18  29
ATOM     29  C   UNK d   1      20.761  30.568  73.159  0.00  0.00     0.032 C 
ATOM     30  C   UNK d   1      20.456  29.126  73.484  0.00  0.00     0.038 C 
ATOM     31  C   UNK d   1      21.601  30.639  71.880  0.00  0.00     0.038 C 
ATOM     32  C   UNK d   1      21.587  31.118  74.301  0.00  0.00     0.038 C 
ENDBRANCH  18  29
TORSDOF 3
ENDMDL
