/Users/jonathanwahrer/Desktop/Msc/3_Semester/Drug_Design_Praktikum/waehrer_HTS_screening/HTS_experiment/out/docking_results/vina_output/4x21/0559_docked.pdbqt
 OpenBabel03212201443D

 32 35  0  0  1  0  0  0  0  0999 V2000
   22.6720   33.9240   68.9100 Br  0  0  0  0  0  0  0  0  0  0  0  0
   20.9920   34.6150   69.5290 C   0  0  0  0  0  0  0  0  0  0  0  0
   20.0740   33.8170   70.1860 C   0  0  0  0  0  3  0  0  0  0  0  0
   18.8640   34.3050   70.6340 C   0  0  0  0  0  0  0  0  0  0  0  0
   18.6130   35.6390   70.3920 C   0  0  0  0  0  0  0  0  0  0  0  0
   19.5340   36.4460   69.7310 C   0  0  0  0  0  3  0  0  0  0  0  0
   20.7210   35.9400   69.2990 C   0  0  0  0  0  3  0  0  0  0  0  0
   17.3170   35.9680   70.9170 N   0  0  0  0  0  0  0  0  0  0  0  0
   16.7460   34.8100   71.4990 C   0  0  0  0  0  0  0  0  0  0  0  0
   15.6130   34.7770   72.0330 O   0  0  0  0  0  0  0  0  0  0  0  0
   17.7160   33.7050   71.3520 C   0  0  1  0  0  0  0  0  0  0  0  0
   17.1360   32.5980   70.6400 N   0  0  0  0  0  0  0  0  0  0  0  0
   16.3640   31.9010   71.6480 C   0  0  2  0  0  3  0  0  0  0  0  0
   17.2670   31.9080   72.8530 C   0  0  2  0  0  3  0  0  0  0  0  0
   18.0650   33.1800   72.6990 C   0  0  1  0  0  3  0  0  0  0  0  0
   19.4680   32.7850   72.8840 C   0  0  0  0  0  0  0  0  0  0  0  0
   20.4630   33.5500   72.9590 O   0  0  0  0  0  0  0  0  0  0  0  0
   19.5610   31.3440   72.9720 N   0  0  0  0  0  0  0  0  0  0  0  0
   18.2550   30.8070   72.8420 C   0  0  0  0  0  0  0  0  0  0  0  0
   18.0060   29.5820   72.7360 O   0  0  0  0  0  0  0  0  0  0  0  0
   16.9040   36.9240   70.8540 H   0  0  0  0  0  0  0  0  0  0  0  0
   17.8930   31.9730   70.3170 H   0  0  0  0  0  0  0  0  0  0  0  0
   16.0020   30.5210   71.1710 C   0  0  0  0  0  2  0  0  0  0  0  0
   14.7780   30.0380   71.8310 C   0  0  0  0  0  0  0  0  0  0  0  0
   13.6630   30.2810   71.2930 O   0  0  0  0  0  0  0  0  0  0  0  0
   14.7520   29.3060   73.0450 N   0  0  0  0  0  0  0  0  0  0  0  0
   15.2730   29.5500   73.9000 H   0  0  0  0  0  0  0  0  0  0  0  0
   14.1470   28.4430   73.0670 H   0  0  0  0  0  0  0  0  0  0  0  0
   20.7610   30.5680   73.1590 C   0  0  0  0  0  0  0  0  0  0  0  0
   20.4560   29.1260   73.4840 C   0  0  0  0  0  1  0  0  0  0  0  0
   21.6010   30.6390   71.8800 C   0  0  0  0  0  1  0  0  0  0  0  0
   21.5870   31.1180   74.3010 C   0  0  0  0  0  1  0  0  0  0  0  0
  1  2  1  0  0  0  0
  2  3  1  0  0  0  0
  3  4  2  0  0  0  0
  5  4  1  0  0  0  0
  5  8  1  0  0  0  0
  6  5  2  0  0  0  0
  7  2  2  0  0  0  0
  7  6  1  0  0  0  0
  8  9  1  0  0  0  0
  9 10  2  0  0  0  0
 11  4  1  6  0  0  0
 11  9  1  0  0  0  0
 11 15  1  0  0  0  0
 12 11  1  0  0  0  0
 12 13  1  0  0  0  0
 13 23  1  6  0  0  0
 13 14  1  0  0  0  0
 14 19  1  6  0  0  0
 15 14  1  0  0  0  0
 15 16  1  6  0  0  0
 16 17  2  0  0  0  0
 16 18  1  0  0  0  0
 18 29  1  0  0  0  0
 19 18  1  0  0  0  0
 20 19  2  0  0  0  0
 21  8  1  0  0  0  0
 22 12  1  0  0  0  0
 23 24  1  0  0  0  0
 24 26  1  0  0  0  0
 25 24  2  0  0  0  0
 26 28  1  0  0  0  0
 26 27  1  0  0  0  0
 29 30  1  0  0  0  0
 29 32  1  0  0  0  0
 31 29  1  0  0  0  0
M  END
>  <Pose>
1

>  <Score>
-8.105

$$$$
