MODEL 1
REMARK VINA RESULT:    -7.569      0.000      0.000
REMARK INTER + INTRA:         -10.218
REMARK INTER:                  -9.560
REMARK INTRA:                  -0.658
REMARK UNBOUND:                -0.658
REMARK  5 active torsions:
REMARK  status: ('A' for Active; 'I' for Inactive)
REMARK    1  A    between atoms: C_13  and  C_25 
REMARK    2  A    between atoms: N_18  and  C_21 
REMARK    3  A    between atoms: C_21  and  C_22 
REMARK    4  A    between atoms: C_22  and  C_23 
REMARK    5  A    between atoms: C_25  and  O_26 
ROOT
ATOM      1 Br   UNK d   1      24.175  33.866  66.203  0.00  0.00    -0.051 Br
ATOM      2  C   UNK d   1      23.310  34.752  67.654  0.00  0.00     0.011 A 
ATOM      3  C   UNK d   1      22.596  34.041  68.585  0.00  0.00     0.031 A 
ATOM      4  C   UNK d   1      21.953  34.684  69.658  0.00  0.00     0.019 A 
ATOM      5  C   UNK d   1      22.018  36.041  69.812  0.00  0.00     0.044 A 
ATOM      6  C   UNK d   1      22.749  36.767  68.861  0.00  0.00     0.031 A 
ATOM      7  C   UNK d   1      23.369  36.119  67.818  0.00  0.00     0.021 A 
ATOM      8  N   UNK d   1      21.297  36.457  70.963  0.00  0.00    -0.324 N 
ATOM      9  C   UNK d   1      20.752  35.298  71.560  0.00  0.00     0.267 A 
ATOM     10  O   UNK d   1      20.045  35.350  72.621  0.00  0.00    -0.270 OA
ATOM     11  C   UNK d   1      21.139  34.143  70.768  0.00  0.00     0.279 A 
ATOM     12  N   UNK d   1      21.855  33.134  71.526  0.00  0.00     0.116 N 
ATOM     13  C   UNK d   1      20.837  32.246  72.058  0.00  0.00     0.264 C 
ATOM     14  C   UNK d   1      19.899  32.112  70.893  0.00  0.00     0.130 C 
ATOM     15  C   UNK d   1      19.897  33.454  70.243  0.00  0.00     0.147 C 
ATOM     16  C   UNK d   1      18.651  34.106  70.676  0.00  0.00     0.234 C 
ATOM     17  O   UNK d   1      18.334  35.339  70.617  0.00  0.00    -0.272 OA
ATOM     18  N   UNK d   1      17.766  33.131  71.213  0.00  0.00    -0.288 N 
ATOM     19  C   UNK d   1      18.494  31.924  71.313  0.00  0.00     0.233 C 
ATOM     20  O   UNK d   1      18.042  30.805  71.704  0.00  0.00    -0.272 OA
ATOM     21  H   UNK d   1      21.217  37.461  71.267  0.00  0.00     0.169 HD
ATOM     22  H   UNK d   1      22.463  33.539  72.260  0.00  0.00     0.318 HD
ENDROOT
BRANCH  13  23
ATOM     23  C   UNK d   1      21.473  30.953  72.461  0.00  0.00     0.148 C 
ATOM     24  C   UNK d   1      22.344  30.432  71.345  0.00  0.00     0.041 C 
BRANCH  23  25
ATOM     25  O   UNK d   1      22.310  31.211  73.553  0.00  0.00    -0.394 OA
ATOM     26  H   UNK d   1      23.252  31.314  73.260  0.00  0.00     0.210 HD
ENDBRANCH  23  25
ENDBRANCH  13  23
BRANCH  18  27
ATOM     27  C   UNK d   1      16.380  33.329  71.588  0.00  0.00     0.135 C 
BRANCH  27  28
ATOM     28  C   UNK d   1      15.447  33.173  70.431  0.00  0.00     0.020 C 
BRANCH  28  29
ATOM     29  C   UNK d   1      14.672  34.490  70.306  0.00  0.00    -0.003 C 
ATOM     30  C   UNK d   1      13.405  34.282  69.523  0.00  0.00     0.005 C 
ENDBRANCH  28  29
ENDBRANCH  27  28
ENDBRANCH  18  27
TORSDOF 5
ENDMDL
