MODEL 1
REMARK VINA RESULT:    -7.438      0.000      0.000
REMARK INTER + INTRA:         -10.157
REMARK INTER:                  -9.394
REMARK INTRA:                  -0.762
REMARK UNBOUND:                -0.762
REMARK  5 active torsions:
REMARK  status: ('A' for Active; 'I' for Inactive)
REMARK    1  A    between atoms: C_13  and  C_29 
REMARK    2  A    between atoms: N_18  and  C_21 
REMARK    3  A    between atoms: C_21  and  C_22 
REMARK    4  A    between atoms: C_22  and  C_23 
REMARK    5  A    between atoms: C_29  and  O_30 
ROOT
ATOM      1 Br   UNK d   1      19.924  29.326  77.571  0.00  0.00    -0.051 Br
ATOM      2  C   UNK d   1      19.683  28.288  75.987  0.00  0.00     0.011 A 
ATOM      3  C   UNK d   1      18.440  27.931  75.515  0.00  0.00     0.031 A 
ATOM      4  C   UNK d   1      18.268  27.162  74.354  0.00  0.00     0.019 A 
ATOM      5  C   UNK d   1      19.402  26.770  73.686  0.00  0.00     0.044 A 
ATOM      6  C   UNK d   1      20.659  27.126  74.154  0.00  0.00     0.031 A 
ATOM      7  C   UNK d   1      20.815  27.880  75.296  0.00  0.00     0.021 A 
ATOM      8  N   UNK d   1      19.078  25.993  72.549  0.00  0.00    -0.324 N 
ATOM      9  C   UNK d   1      17.672  25.889  72.495  0.00  0.00     0.267 A 
ATOM     10  O   UNK d   1      17.072  25.250  71.586  0.00  0.00    -0.270 OA
ATOM     11  C   UNK d   1      17.106  26.630  73.642  0.00  0.00     0.279 A 
ATOM     12  N   UNK d   1      16.333  25.729  74.502  0.00  0.00     0.116 N 
ATOM     13  C   UNK d   1      15.262  26.535  75.045  0.00  0.00     0.264 C 
ATOM     14  C   UNK d   1      15.001  27.647  74.107  0.00  0.00     0.130 C 
ATOM     15  C   UNK d   1      16.142  27.620  73.106  0.00  0.00     0.147 C 
ATOM     16  C   UNK d   1      16.583  29.004  72.977  0.00  0.00     0.234 C 
ATOM     17  O   UNK d   1      17.587  29.412  72.343  0.00  0.00    -0.272 OA
ATOM     18  N   UNK d   1      15.688  29.880  73.697  0.00  0.00    -0.287 N 
ATOM     19  C   UNK d   1      15.073  29.010  74.670  0.00  0.00     0.233 C 
ATOM     20  O   UNK d   1      14.677  29.370  75.789  0.00  0.00    -0.272 OA
ATOM     21  H   UNK d   1      19.766  25.571  71.867  0.00  0.00     0.169 HD
ATOM     22  H   UNK d   1      16.926  25.321  75.260  0.00  0.00     0.318 HD
ENDROOT
BRANCH  13  23
ATOM     23  C   UNK d   1      14.052  25.677  75.327  0.00  0.00     0.148 C 
ATOM     24  C   UNK d   1      13.912  24.540  74.343  0.00  0.00     0.041 C 
BRANCH  23  25
ATOM     25  O   UNK d   1      12.919  26.464  75.390  0.00  0.00    -0.394 OA
ATOM     26  H   UNK d   1      12.966  27.236  74.794  0.00  0.00     0.210 HD
ENDBRANCH  23  25
ENDBRANCH  13  23
BRANCH  18  27
ATOM     27  C   UNK d   1      15.426  31.269  73.497  0.00  0.00     0.139 C 
BRANCH  27  28
ATOM     28  C   UNK d   1      14.192  31.601  72.709  0.00  0.00     0.059 C 
BRANCH  28  29
ATOM     29  C   UNK d   1      14.344  32.711  71.753  0.00  0.00    -0.057 A 
ATOM     30  C   UNK d   1      13.373  32.911  70.779  0.00  0.00     0.007 A 
ATOM     31  C   UNK d   1      13.488  33.944  69.911  0.00  0.00     0.001 A 
ATOM     32  C   UNK d   1      14.534  34.821  69.945  0.00  0.00     0.000 A 
ATOM     33  C   UNK d   1      15.497  34.613  70.921  0.00  0.00     0.001 A 
ATOM     34  C   UNK d   1      15.404  33.579  71.807  0.00  0.00     0.007 A 
ENDBRANCH  28  29
ENDBRANCH  27  28
ENDBRANCH  18  27
TORSDOF 5
ENDMDL
