/Users/jonathanwahrer/Desktop/Msc/3_Semester/Drug_Design_Praktikum/waehrer_HTS_screening/HTS_experiment/out/docking_results/vina_output/4x21/0579_docked.pdbqt
 OpenBabel03212201453D

 32 35  0  0  1  0  0  0  0  0999 V2000
   21.2310   37.6610   71.1160 Br  0  0  0  0  0  0  0  0  0  0  0  0
   20.6460   35.8970   70.6860 C   0  0  0  0  0  0  0  0  0  0  0  0
   19.3940   35.4250   71.0090 C   0  0  0  0  0  3  0  0  0  0  0  0
   18.9720   34.1350   70.6910 C   0  0  0  0  0  0  0  0  0  0  0  0
   19.8320   33.2930   70.0310 C   0  0  0  0  0  0  0  0  0  0  0  0
   21.0990   33.7400   69.6930 C   0  0  0  0  0  3  0  0  0  0  0  0
   21.4970   35.0410   70.0230 C   0  0  0  0  0  3  0  0  0  0  0  0
   19.2020   32.0290   69.8000 N   0  0  0  0  0  0  0  0  0  0  0  0
   17.8920   32.0820   70.3390 C   0  0  0  0  0  0  0  0  0  0  0  0
   17.0900   31.1290   70.2810 O   0  0  0  0  0  0  0  0  0  0  0  0
   17.6990   33.3960   70.9300 C   0  0  2  0  0  0  0  0  0  0  0  0
   16.5930   34.0330   70.2160 N   0  0  0  0  0  0  0  0  0  0  0  0
   15.8530   34.7520   71.2090 C   0  0  2  0  0  3  0  0  0  0  0  0
   15.9190   33.8760   72.4070 C   0  0  2  0  0  3  0  0  0  0  0  0
   17.3540   33.4020   72.3890 C   0  0  1  0  0  3  0  0  0  0  0  0
   17.3190   32.1000   73.0410 C   0  0  0  0  0  0  0  0  0  0  0  0
   18.3030   31.4910   73.5140 O   0  0  0  0  0  0  0  0  0  0  0  0
   15.9710   31.6480   73.0400 N   0  0  0  0  0  0  0  0  0  0  0  0
   15.1710   32.6000   72.2970 C   0  0  0  0  0  0  0  0  0  0  0  0
   14.1080   32.2880   71.7360 O   0  0  0  0  0  0  0  0  0  0  0  0
   19.6630   31.2140   69.3080 H   0  0  0  0  0  0  0  0  0  0  0  0
   15.9580   33.3080   69.8050 H   0  0  0  0  0  0  0  0  0  0  0  0
   14.4820   35.1420   70.7750 C   0  0  0  0  0  2  0  0  0  0  0  0
   14.5360   36.3980   70.0190 C   0  0  0  0  0  0  0  0  0  0  0  0
   15.6050   37.0720   70.0040 O   0  0  0  0  0  0  0  0  0  0  0  0
   13.3980   36.8700   69.3010 N   0  0  0  0  0  0  0  0  0  0  0  0
   13.5210   37.4430   68.4410 H   0  0  0  0  0  0  0  0  0  0  0  0
   12.4440   36.6360   69.6430 H   0  0  0  0  0  0  0  0  0  0  0  0
   15.5190   30.4470   73.6810 C   0  0  0  0  0  2  0  0  0  0  0  0
   15.2360   29.3020   72.7670 C   0  0  0  0  0  2  0  0  0  0  0  0
   16.3750   28.7690   72.1860 O   0  0  0  0  0  0  0  0  0  0  0  0
   17.1710   28.1120   73.1210 C   0  0  0  0  0  1  0  0  0  0  0  0
  2  3  1  0  0  0  0
  2  1  1  0  0  0  0
  4 11  1  0  0  0  0
  4  3  2  0  0  0  0
  5  4  1  0  0  0  0
  6  7  1  0  0  0  0
  6  5  2  0  0  0  0
  7  2  2  0  0  0  0
  8  5  1  0  0  0  0
  8  9  1  0  0  0  0
 10  9  2  0  0  0  0
 11  9  1  6  0  0  0
 11 15  1  0  0  0  0
 12 11  1  0  0  0  0
 12 13  1  0  0  0  0
 13 23  1  6  0  0  0
 13 14  1  0  0  0  0
 14 19  1  6  0  0  0
 15 14  1  0  0  0  0
 15 16  1  6  0  0  0
 16 17  2  0  0  0  0
 18 16  1  0  0  0  0
 18 29  1  0  0  0  0
 19 18  1  0  0  0  0
 20 19  2  0  0  0  0
 21  8  1  0  0  0  0
 22 12  1  0  0  0  0
 24 23  1  0  0  0  0
 25 24  2  0  0  0  0
 26 28  1  0  0  0  0
 26 24  1  0  0  0  0
 27 26  1  0  0  0  0
 30 29  1  0  0  0  0
 31 30  1  0  0  0  0
 31 32  1  0  0  0  0
M  END
>  <Pose>
1

>  <Score>
-7.898

$$$$
