MODEL 1
REMARK VINA RESULT:    -8.624      0.000      0.000
REMARK INTER + INTRA:          -8.624
REMARK INTER:                  -8.624
REMARK INTRA:                   0.000
REMARK UNBOUND:                 0.000
REMARK  0 active torsions:
REMARK  status: ('A' for Active; 'I' for Inactive)
ROOT
ATOM      1 Br   UNK d   1      13.083  34.603  69.375  0.00  0.00    -0.051 Br
ATOM      2  C   UNK d   1      14.848  34.596  70.091  0.00  0.00     0.012 A 
ATOM      3  C   UNK d   1      15.619  35.709  69.925  0.00  0.00     0.038 A 
ATOM      4  C   UNK d   1      16.907  35.732  70.435  0.00  0.00     0.062 A 
ATOM      5  C   UNK d   1      17.412  34.628  71.112  0.00  0.00     0.078 A 
ATOM      6  C   UNK d   1      16.644  33.495  71.288  0.00  0.00     0.034 A 
ATOM      7  C   UNK d   1      15.372  33.518  70.764  0.00  0.00     0.021 A 
ATOM      8  N   UNK d   1      18.705  34.537  71.674  0.00  0.00    -0.195 N 
ATOM      9  N   UNK d   1      18.969  33.674  72.662  0.00  0.00    -0.039 NA
ATOM     10  N   UNK d   1      20.232  33.836  72.951  0.00  0.00    -0.023 NA
ATOM     11  N   UNK d   1      20.768  34.768  72.180  0.00  0.00    -0.111 NA
ATOM     12  C   UNK d   1      19.786  35.226  71.350  0.00  0.00     0.182 A 
ATOM     13  C   UNK d   1      20.051  36.301  70.332  0.00  0.00     0.102 C 
ATOM     14  N   UNK d   1      18.951  37.262  70.298  0.00  0.00    -0.340 N 
ATOM     15  C   UNK d   1      17.558  37.016  70.148  0.00  0.00     0.255 C 
ATOM     16  O   UNK d   1      16.828  37.962  69.742  0.00  0.00    -0.268 OA
ATOM     17  C   UNK d   1      20.050  35.615  68.993  0.00  0.00     0.076 C 
ATOM     18  C   UNK d   1      20.775  36.456  67.994  0.00  0.00     0.056 C 
ATOM     19  O   UNK d   1      22.075  36.554  68.412  0.00  0.00    -0.381 OA
ATOM     20  C   UNK d   1      22.271  37.242  69.580  0.00  0.00     0.171 C 
ATOM     21  C   UNK d   1      21.318  36.997  70.669  0.00  0.00     0.066 C 
ATOM     22  C   UNK d   1      20.797  35.731  66.643  0.00  0.00     0.045 C 
ATOM     23  C   UNK d   1      20.121  37.789  67.745  0.00  0.00     0.045 C 
ATOM     24  H   UNK d   1      19.207  38.291  70.396  0.00  0.00     0.164 HD
ENDROOT
TORSDOF 0
ENDMDL
