MODEL 1
REMARK VINA RESULT:    -8.685      0.000      0.000
REMARK INTER + INTRA:          -8.685
REMARK INTER:                  -8.685
REMARK INTRA:                   0.000
REMARK UNBOUND:                 0.000
REMARK  0 active torsions:
REMARK  status: ('A' for Active; 'I' for Inactive)
ROOT
ATOM      1 Br   UNK d   1      14.049  31.599  72.552  0.00  0.00    -0.051 Br
ATOM      2  C   UNK d   1      15.156  33.002  71.849  0.00  0.00     0.012 A 
ATOM      3  C   UNK d   1      16.461  33.139  72.270  0.00  0.00     0.038 A 
ATOM      4  C   UNK d   1      17.251  34.148  71.761  0.00  0.00     0.061 A 
ATOM      5  C   UNK d   1      16.795  35.057  70.826  0.00  0.00     0.072 A 
ATOM      6  C   UNK d   1      15.474  34.904  70.412  0.00  0.00     0.034 A 
ATOM      7  C   UNK d   1      14.678  33.897  70.915  0.00  0.00     0.021 A 
ATOM      8  N   UNK d   1      17.462  36.135  70.211  0.00  0.00    -0.218 N 
ATOM      9  N   UNK d   1      16.842  37.085  69.530  0.00  0.00     0.032 NA
ATOM     10  N   UNK d   1      17.761  37.931  69.091  0.00  0.00    -0.052 NA
ATOM     11  N   UNK d   1      18.939  37.516  69.492  0.00  0.00    -0.116 NA
ATOM     12  C   UNK d   1      18.790  36.374  70.209  0.00  0.00     0.176 A 
ATOM     13  C   UNK d   1      19.954  35.693  70.778  0.00  0.00     0.100 C 
ATOM     14  N   UNK d   1      19.736  34.931  71.958  0.00  0.00    -0.340 N 
ATOM     15  C   UNK d   1      18.607  34.150  72.316  0.00  0.00     0.255 C 
ATOM     16  O   UNK d   1      18.726  33.310  73.247  0.00  0.00    -0.268 OA
ATOM     17  C   UNK d   1      20.601  34.740  69.761  0.00  0.00     0.069 C 
ATOM     18  C   UNK d   1      22.090  34.719  69.996  0.00  0.00     0.275 C 
ATOM     19  N   UNK d   1      22.637  35.929  69.426  0.00  0.00     0.084 N 
ATOM     20  C   UNK d   1      21.853  37.052  69.867  0.00  0.00     0.275 C 
ATOM     21  C   UNK d   1      21.012  36.749  71.082  0.00  0.00     0.069 C 
ATOM     22  C   UNK d   1      22.605  35.785  67.971  0.00  0.00     0.309 C 
ATOM     23  H   UNK d   1      20.512  34.951  72.651  0.00  0.00     0.164 HD
ENDROOT
TORSDOF 0
ENDMDL
