MODEL 1
REMARK VINA RESULT:    -6.116      0.000      0.000
REMARK INTER + INTRA:          -6.295
REMARK INTER:                  -6.295
REMARK INTRA:                   0.000
REMARK UNBOUND:                 0.000
REMARK  1 active torsions:
REMARK  status: ('A' for Active; 'I' for Inactive)
REMARK    1  A    between atoms: C_9  and  N_23 
ROOT
ATOM      1 Br   UNK d   1      25.134  33.325  69.813  0.00  0.00    -0.051 Br
ATOM      2  C   UNK d   1      23.728  34.296  68.983  0.00  0.00     0.011 A 
ATOM      3  C   UNK d   1      22.705  34.770  69.756  0.00  0.00     0.031 A 
ATOM      4  C   UNK d   1      21.670  35.484  69.144  0.00  0.00     0.005 A 
ATOM      5  C   UNK d   1      21.715  35.684  67.804  0.00  0.00     0.086 A 
ATOM      6  C   UNK d   1      22.772  35.193  67.010  0.00  0.00     0.039 A 
ATOM      7  C   UNK d   1      23.786  34.491  67.615  0.00  0.00     0.022 A 
ATOM      8  O   UNK d   1      20.716  36.384  67.151  0.00  0.00    -0.292 OA
ATOM      9  C   UNK d   1      19.666  36.879  67.893  0.00  0.00     0.160 A 
ATOM     10  C   UNK d   1      19.555  36.727  69.191  0.00  0.00     0.100 A 
ATOM     11  C   UNK d   1      20.556  36.005  69.964  0.00  0.00     0.145 A 
ATOM     12  C   UNK d   1      19.969  34.943  70.817  0.00  0.00     0.041 A 
ATOM     13  C   UNK d   1      20.205  35.258  72.126  0.00  0.00     0.160 A 
ATOM     14  N   UNK d   1      19.663  34.279  72.909  0.00  0.00    -0.156 NA
ATOM     15  N   UNK d   1      19.117  33.401  72.085  0.00  0.00    -0.280 N 
ATOM     16  C   UNK d   1      19.279  33.764  70.806  0.00  0.00     0.036 A 
ATOM     17  C   UNK d   1      18.775  32.979  69.639  0.00  0.00     0.070 C 
ATOM     18  N   UNK d   1      20.917  36.471  72.239  0.00  0.00    -0.308 N 
ATOM     19  C   UNK d   1      21.146  36.949  70.938  0.00  0.00     0.247 A 
ATOM     20  O   UNK d   1      21.750  38.005  70.611  0.00  0.00    -0.271 OA
ATOM     21  C   UNK d   1      18.423  37.276  69.899  0.00  0.00     0.101 C 
ATOM     22  N   UNK d   1      17.527  37.731  70.474  0.00  0.00    -0.191 NA
ATOM     23  H   UNK d   1      18.628  32.539  72.445  0.00  0.00     0.189 HD
ATOM     24  H   UNK d   1      21.219  36.925  73.164  0.00  0.00     0.170 HD
ENDROOT
BRANCH   9  25
ATOM     25  N   UNK d   1      18.636  37.604  67.200  0.00  0.00    -0.379 N 
ATOM     26  H   UNK d   1      18.107  37.138  66.432  0.00  0.00     0.158 HD
ATOM     27  H   UNK d   1      18.391  38.591  67.437  0.00  0.00     0.158 HD
ENDBRANCH   9  25
TORSDOF 1
ENDMDL
