MODEL 1
REMARK VINA RESULT:    -9.144      0.000      0.000
REMARK INTER + INTRA:         -11.572
REMARK INTER:                 -10.748
REMARK INTRA:                  -0.825
REMARK UNBOUND:                -0.825
REMARK  3 active torsions:
REMARK  status: ('A' for Active; 'I' for Inactive)
REMARK    1  A    between atoms: C_11  and  C_13 
REMARK    2  A    between atoms: C_23  and  C_24 
REMARK    3  A    between atoms: C_24  and  N_25 
ROOT
ATOM      1  C   UNK d   1      19.170  36.587  69.634  0.00  0.00    -0.001 A 
ATOM      2  C   UNK d   1      18.349  37.509  69.004  0.00  0.00     0.096 A 
ATOM      3  C   UNK d   1      16.985  37.476  69.199  0.00  0.00     0.289 A 
ATOM      4  O   UNK d   1      16.298  38.353  68.585  0.00  0.00    -0.260 OA
ATOM      5  O   UNK d   1      16.446  36.585  69.975  0.00  0.00    -0.274 OA
ATOM      6  C   UNK d   1      17.145  35.708  70.585  0.00  0.00     0.101 A 
ATOM      7  C   UNK d   1      18.546  35.669  70.443  0.00  0.00     0.010 A 
ATOM      8  C   UNK d   1      19.267  34.728  71.117  0.00  0.00     0.018 A 
ATOM      9  C   UNK d   1      18.570  33.827  71.929  0.00  0.00     0.041 A 
ATOM     10  C   UNK d   1      17.196  33.889  72.045  0.00  0.00     0.118 A 
ATOM     11  C   UNK d   1      16.437  34.827  71.381  0.00  0.00     0.039 A 
ATOM     12  O   UNK d   1      16.590  32.930  72.885  0.00  0.00    -0.191 OA
ENDROOT
BRANCH   1  13
ATOM     13  C   UNK d   1      20.611  36.571  69.391  0.00  0.00     0.052 A 
ATOM     14  C   UNK d   1      21.480  37.207  70.252  0.00  0.00     0.299 A 
ATOM     15  O   UNK d   1      22.745  37.217  70.021  0.00  0.00    -0.274 OA
ATOM     16  O   UNK d   1      20.945  37.763  71.261  0.00  0.00    -0.259 OA
ATOM     17  C   UNK d   1      23.299  36.628  68.959  0.00  0.00     0.089 A 
ATOM     18  C   UNK d   1      22.483  35.973  68.060  0.00  0.00     0.000 A 
ATOM     19  C   UNK d   1      24.674  36.687  68.781  0.00  0.00     0.039 A 
ATOM     20  C   UNK d   1      23.084  35.372  66.969  0.00  0.00     0.033 A 
ATOM     21  C   UNK d   1      21.129  35.947  68.279  0.00  0.00     0.032 A 
ATOM     22  C   UNK d   1      24.447  35.397  66.739  0.00  0.00     0.011 A 
ATOM     23 Br   UNK d   1      25.213  34.540  65.232  0.00  0.00    -0.051 Br
ATOM     24  C   UNK d   1      25.231  36.077  67.682  0.00  0.00     0.022 A 
ENDBRANCH   1  13
BRANCH  11  25
ATOM     25  C   UNK d   1      15.003  34.764  71.473  0.00  0.00     0.278 C 
BRANCH  25  26
ATOM     26  N   UNK d   1      14.214  33.781  70.851  0.00  0.00    -0.075 N 
ATOM     27  C   UNK d   1      13.254  33.087  71.664  0.00  0.00     0.269 C 
ATOM     28  C   UNK d   1      13.639  34.250  69.564  0.00  0.00     0.269 C 
ATOM     29  H   UNK d   1      14.872  33.009  70.542  0.00  0.00     0.279 HD
ENDBRANCH  25  26
ENDBRANCH  11  25
TORSDOF 3
ENDMDL
