/Users/jonathanwahrer/Desktop/Msc/3_Semester/Drug_Design_Praktikum/waehrer_HTS_screening/HTS_experiment/out/docking_results/vina_output/4x21/0596_docked.pdbqt
 OpenBabel03212201453D

 29 32  0  0  0  0  0  0  0  0999 V2000
   19.1700   36.5870   69.6340 C   0  0  0  0  0  0  0  0  0  0  0  0
   18.3490   37.5090   69.0040 C   0  0  0  0  0  3  0  0  0  0  0  0
   16.9850   37.4760   69.1990 C   0  0  0  0  0  0  0  0  0  0  0  0
   16.2980   38.3530   68.5850 O   0  0  0  0  0  0  0  0  0  0  0  0
   16.4460   36.5850   69.9750 O   0  0  0  0  0  0  0  0  0  0  0  0
   17.1450   35.7080   70.5850 C   0  0  0  0  0  0  0  0  0  0  0  0
   18.5460   35.6690   70.4430 C   0  0  0  0  0  0  0  0  0  0  0  0
   19.2670   34.7280   71.1170 C   0  0  0  0  0  3  0  0  0  0  0  0
   18.5700   33.8270   71.9290 C   0  0  0  0  0  3  0  0  0  0  0  0
   17.1960   33.8890   72.0450 C   0  0  0  0  0  0  0  0  0  0  0  0
   16.4370   34.8270   71.3810 C   0  0  0  0  0  0  0  0  0  0  0  0
   16.5900   32.9300   72.8850 O   0  0  0  0  0  1  0  0  0  0  0  0
   20.6110   36.5710   69.3910 C   0  0  0  0  0  0  0  0  0  0  0  0
   21.4800   37.2070   70.2520 C   0  0  0  0  0  0  0  0  0  0  0  0
   22.7450   37.2170   70.0210 O   0  0  0  0  0  0  0  0  0  0  0  0
   20.9450   37.7630   71.2610 O   0  0  0  0  0  0  0  0  0  0  0  0
   23.2990   36.6280   68.9590 C   0  0  0  0  0  0  0  0  0  0  0  0
   22.4830   35.9730   68.0600 C   0  0  0  0  0  0  0  0  0  0  0  0
   24.6740   36.6870   68.7810 C   0  0  0  0  0  3  0  0  0  0  0  0
   23.0840   35.3720   66.9690 C   0  0  0  0  0  3  0  0  0  0  0  0
   21.1290   35.9470   68.2790 C   0  0  0  0  0  3  0  0  0  0  0  0
   24.4470   35.3970   66.7390 C   0  0  0  0  0  0  0  0  0  0  0  0
   25.2130   34.5400   65.2320 Br  0  0  0  0  0  0  0  0  0  0  0  0
   25.2310   36.0770   67.6820 C   0  0  0  0  0  3  0  0  0  0  0  0
   15.0030   34.7640   71.4730 C   0  0  0  0  0  2  0  0  0  0  0  0
   14.2140   33.7810   70.8510 N   0  0  0  0  0  4  0  0  0  0  0  0
   13.2540   33.0870   71.6640 C   0  0  0  0  0  1  0  0  0  0  0  0
   13.6390   34.2500   69.5640 C   0  0  0  0  0  1  0  0  0  0  0  0
   14.8720   33.0090   70.5420 H   0  0  0  0  0  0  0  0  0  0  0  0
  1  7  1  0  0  0  0
  2  3  1  0  0  0  0
  2  1  2  0  0  0  0
  3  5  1  0  0  0  0
  4  3  2  0  0  0  0
  5  6  1  0  0  0  0
  6 11  1  0  0  0  0
  7  6  2  0  0  0  0
  7  8  1  0  0  0  0
  8  9  2  0  0  0  0
  9 10  1  0  0  0  0
 10 12  1  0  0  0  0
 11 25  1  0  0  0  0
 11 10  2  0  0  0  0
 13  1  1  0  0  0  0
 13 14  1  0  0  0  0
 14 16  2  0  0  0  0
 15 14  1  0  0  0  0
 17 15  1  0  0  0  0
 18 21  1  0  0  0  0
 18 17  2  0  0  0  0
 19 17  1  0  0  0  0
 20 18  1  0  0  0  0
 21 13  2  0  0  0  0
 22 20  2  0  0  0  0
 22 24  1  0  0  0  0
 23 22  1  0  0  0  0
 24 19  2  0  0  0  0
 26 25  1  0  0  0  0
 26 27  1  0  0  0  0
 28 26  1  0  0  0  0
 29 26  1  0  0  0  0
M  END
>  <Pose>
1

>  <Score>
-9.144

$$$$
