/Users/jonathanwahrer/Desktop/Msc/3_Semester/Drug_Design_Praktikum/waehrer_HTS_screening/HTS_experiment/out/docking_results/vina_output/4x21/0610_docked.pdbqt
 OpenBabel03212201463D

 32 35  0  0  0  0  0  0  0  0999 V2000
   17.3950   39.0830   66.9450 Br  0  0  0  0  0  0  0  0  0  0  0  0
   17.5690   37.8940   68.4280 C   0  0  0  0  0  0  0  0  0  0  0  0
   18.7620   37.2140   68.6570 C   0  0  0  0  0  3  0  0  0  0  0  0
   18.8900   36.3500   69.7360 C   0  0  0  0  0  0  0  0  0  0  0  0
   17.8290   36.1570   70.5940 C   0  0  0  0  0  0  0  0  0  0  0  0
   17.9540   35.3160   71.6510 N   0  0  0  0  0  0  0  0  0  0  0  0
   19.0970   34.6510   71.8960 C   0  0  0  0  0  0  0  0  0  0  0  0
   20.1170   34.8500   71.0520 N   0  0  0  0  0  0  0  0  0  0  0  0
   20.0630   35.6680   69.9850 C   0  0  0  0  0  0  0  0  0  0  0  0
   16.6490   36.8460   70.3440 C   0  0  0  0  0  3  0  0  0  0  0  0
   16.5010   37.7090   69.2800 C   0  0  0  0  0  3  0  0  0  0  0  0
   19.1920   33.7720   73.0250 N   0  0  0  0  0  4  0  0  0  0  0  0
   19.6710   32.4830   72.6060 C   0  0  0  0  0  2  0  0  0  0  0  0
   18.6580   31.6490   71.8980 C   0  0  0  0  0  2  0  0  0  0  0  0
   17.3150   32.1650   72.0420 N   0  0  0  0  0  0  0  0  0  0  0  0
   16.9730   32.7360   73.3260 C   0  0  0  0  0  2  0  0  0  0  0  0
   16.4320   32.0820   70.9390 C   0  0  0  0  0  0  0  0  0  0  0  0
   17.9940   33.7210   73.8050 C   0  0  0  0  0  2  0  0  0  0  0  0
   16.8000   31.5730   69.8580 O   0  0  0  0  0  0  0  0  0  0  0  0
   19.9720   34.1890   73.6160 H   0  0  0  0  0  0  0  0  0  0  0  0
   15.0590   32.6270   71.1430 C   0  0  0  0  0  2  0  0  0  0  0  0
   14.7770   33.7700   70.2150 C   0  0  0  0  0  2  0  0  0  0  0  0
   13.3420   34.0520   70.0570 C   0  0  0  0  0  0  0  0  0  0  0  0
   12.8990   34.6360   69.0460 O   0  0  0  0  0  0  0  0  0  0  0  0
   12.4630   33.6600   71.0450 O   0  0  0  0  0  1  0  0  0  0  0  0
   21.2300   35.8150   69.1300 C   0  0  0  0  0  0  0  0  0  0  0  0
   22.2020   36.7610   69.4250 C   0  0  0  0  0  0  0  0  0  0  0  0
   23.3280   36.9210   68.6460 C   0  0  0  0  0  3  0  0  0  0  0  0
   21.9620   37.7790   70.8470 Cl  0  0  0  0  0  0  0  0  0  0  0  0
   23.5360   36.1370   67.5290 C   0  0  0  0  0  3  0  0  0  0  0  0
   22.5620   35.1910   67.2350 C   0  0  0  0  0  3  0  0  0  0  0  0
   21.4400   35.0390   68.0190 C   0  0  0  0  0  3  0  0  0  0  0  0
  1  2  1  0  0  0  0
  2  3  2  0  0  0  0
  2 11  1  0  0  0  0
  3  4  1  0  0  0  0
  4  9  1  0  0  0  0
  4  5  2  0  0  0  0
  5  6  1  0  0  0  0
  6  7  2  0  0  0  0
  7 12  1  0  0  0  0
  8  7  1  0  0  0  0
  9  8  2  0  0  0  0
 10  5  1  0  0  0  0
 11 10  2  0  0  0  0
 12 20  1  0  0  0  0
 12 18  1  0  0  0  0
 13 12  1  0  0  0  0
 14 15  1  0  0  0  0
 14 13  1  0  0  0  0
 15 16  1  0  0  0  0
 16 18  1  0  0  0  0
 17 21  1  0  0  0  0
 17 15  1  0  0  0  0
 19 17  2  0  0  0  0
 22 21  1  0  0  0  0
 23 22  1  0  0  0  0
 23 25  1  0  0  0  0
 24 23  2  0  0  0  0
 26 27  1  0  0  0  0
 26  9  1  0  0  0  0
 27 29  1  0  0  0  0
 28 27  2  0  0  0  0
 30 28  1  0  0  0  0
 31 30  2  0  0  0  0
 31 32  1  0  0  0  0
 32 26  2  0  0  0  0
M  END
>  <Pose>
1

>  <Score>
-8.548

$$$$
