MODEL 1
REMARK VINA RESULT:    -8.548      0.000      0.000
REMARK INTER + INTRA:         -12.377
REMARK INTER:                 -11.046
REMARK INTRA:                  -1.331
REMARK UNBOUND:                -1.331
REMARK  5 active torsions:
REMARK  status: ('A' for Active; 'I' for Inactive)
REMARK    1  A    between atoms: C_7  and  N_17 
REMARK    2  A    between atoms: C_9  and  C_10 
REMARK       I    between atoms: N_20  and  C_23 
REMARK    3  A    between atoms: C_23  and  C_25 
REMARK    4  A    between atoms: C_25  and  C_26 
REMARK    5  A    between atoms: C_26  and  C_27 
ROOT
ATOM      1 Br   UNK d   1      17.395  39.083  66.945  0.00  0.00    -0.051 Br
ATOM      2  C   UNK d   1      17.569  37.894  68.428  0.00  0.00     0.011 A 
ATOM      3  C   UNK d   1      18.762  37.214  68.657  0.00  0.00     0.035 A 
ATOM      4  C   UNK d   1      18.890  36.350  69.736  0.00  0.00     0.024 A 
ATOM      5  C   UNK d   1      17.829  36.157  70.594  0.00  0.00     0.073 A 
ATOM      6  N   UNK d   1      17.954  35.316  71.651  0.00  0.00    -0.207 NA
ATOM      7  C   UNK d   1      19.097  34.651  71.896  0.00  0.00     0.327 A 
ATOM      8  N   UNK d   1      20.117  34.850  71.052  0.00  0.00    -0.206 NA
ATOM      9  C   UNK d   1      20.063  35.668  69.985  0.00  0.00     0.085 A 
ATOM     10  C   UNK d   1      16.649  36.846  70.344  0.00  0.00     0.034 A 
ATOM     11  C   UNK d   1      16.501  37.709  69.280  0.00  0.00     0.021 A 
ENDROOT
BRANCH   7  12
ATOM     12  N   UNK d   1      19.192  33.772  73.025  0.00  0.00    -0.004 N 
ATOM     13  C   UNK d   1      19.671  32.483  72.606  0.00  0.00     0.265 C 
ATOM     14  C   UNK d   1      18.658  31.649  71.898  0.00  0.00     0.154 C 
ATOM     15  N   UNK d   1      17.315  32.165  72.042  0.00  0.00    -0.349 N 
ATOM     16  C   UNK d   1      16.973  32.736  73.326  0.00  0.00     0.154 C 
ATOM     17  C   UNK d   1      16.432  32.082  70.939  0.00  0.00     0.220 C 
ATOM     18  C   UNK d   1      17.994  33.721  73.805  0.00  0.00     0.265 C 
ATOM     19  O   UNK d   1      16.800  31.573  69.858  0.00  0.00    -0.273 OA
ATOM     20  H   UNK d   1      19.972  34.189  73.616  0.00  0.00     0.290 HD
BRANCH  17  21
ATOM     21  C   UNK d   1      15.059  32.627  71.143  0.00  0.00     0.113 C 
BRANCH  21  22
ATOM     22  C   UNK d   1      14.777  33.770  70.215  0.00  0.00     0.122 C 
BRANCH  22  23
ATOM     23  C   UNK d   1      13.342  34.052  70.057  0.00  0.00     0.172 C 
ATOM     24  O   UNK d   1      12.899  34.636  69.046  0.00  0.00    -0.648 OA
ATOM     25  O   UNK d   1      12.463  33.660  71.045  0.00  0.00    -0.648 OA
ENDBRANCH  22  23
ENDBRANCH  21  22
ENDBRANCH  17  21
ENDBRANCH   7  12
BRANCH   9  26
ATOM     26  C   UNK d   1      21.230  35.815  69.130  0.00  0.00     0.015 A 
ATOM     27  C   UNK d   1      22.202  36.761  69.425  0.00  0.00     0.046 A 
ATOM     28  C   UNK d   1      23.328  36.921  68.646  0.00  0.00     0.025 A 
ATOM     29 Cl   UNK d   1      21.962  37.779  70.847  0.00  0.00    -0.083 Cl
ATOM     30  C   UNK d   1      23.536  36.137  67.529  0.00  0.00     0.002 A 
ATOM     31  C   UNK d   1      22.562  35.191  67.235  0.00  0.00     0.001 A 
ATOM     32  C   UNK d   1      21.440  35.039  68.019  0.00  0.00     0.015 A 
ENDBRANCH   9  26
TORSDOF 5
ENDMDL
