MODEL 1
REMARK VINA RESULT:    -9.412      0.000      0.000
REMARK INTER + INTRA:         -12.881
REMARK INTER:                 -12.713
REMARK INTRA:                  -0.168
REMARK UNBOUND:                -0.168
REMARK  6 active torsions:
REMARK  status: ('A' for Active; 'I' for Inactive)
REMARK    1  A    between atoms: C_7  and  N_17 
REMARK    2  A    between atoms: C_9  and  C_10 
REMARK       I    between atoms: N_20  and  C_23 
REMARK    3  A    between atoms: C_23  and  C_25 
REMARK    4  A    between atoms: C_25  and  C_26 
REMARK    5  A    between atoms: C_26  and  C_27 
REMARK    6  A    between atoms: C_27  and  C_28 
ROOT
ATOM      1 Br   UNK d   1      13.995  30.870  73.586  0.00  0.00    -0.051 Br
ATOM      2  C   UNK d   1      15.549  31.765  72.922  0.00  0.00     0.011 A 
ATOM      3  C   UNK d   1      15.463  32.835  72.049  0.00  0.00     0.035 A 
ATOM      4  C   UNK d   1      16.562  33.501  71.552  0.00  0.00     0.024 A 
ATOM      5  C   UNK d   1      17.831  33.101  71.929  0.00  0.00     0.073 A 
ATOM      6  N   UNK d   1      18.927  33.738  71.446  0.00  0.00    -0.207 NA
ATOM      7  C   UNK d   1      18.843  34.772  70.593  0.00  0.00     0.327 A 
ATOM      8  N   UNK d   1      17.608  35.162  70.226  0.00  0.00    -0.206 NA
ATOM      9  C   UNK d   1      16.483  34.561  70.679  0.00  0.00     0.085 A 
ATOM     10  C   UNK d   1      17.928  32.038  72.799  0.00  0.00     0.034 A 
ATOM     11  C   UNK d   1      16.815  31.370  73.296  0.00  0.00     0.021 A 
ENDROOT
BRANCH   7  12
ATOM     12  N   UNK d   1      20.015  35.416  70.107  0.00  0.00    -0.004 N 
ATOM     13  C   UNK d   1      21.101  34.473  69.958  0.00  0.00     0.265 C 
ATOM     14  C   UNK d   1      22.127  35.070  69.047  0.00  0.00     0.154 C 
ATOM     15  N   UNK d   1      21.869  36.490  68.927  0.00  0.00    -0.349 N 
ATOM     16  C   UNK d   1      21.566  37.216  70.148  0.00  0.00     0.154 C 
ATOM     17  C   UNK d   1      21.923  37.088  67.657  0.00  0.00     0.219 C 
ATOM     18  C   UNK d   1      20.479  36.489  70.948  0.00  0.00     0.265 C 
ATOM     19  O   UNK d   1      21.692  38.320  67.578  0.00  0.00    -0.273 OA
ATOM     20  H   UNK d   1      19.779  35.821  69.177  0.00  0.00     0.290 HD
BRANCH  17  21
ATOM     21  C   UNK d   1      22.235  36.331  66.443  0.00  0.00     0.103 C 
BRANCH  21  22
ATOM     22  C   UNK d   1      23.595  36.716  65.936  0.00  0.00     0.020 C 
BRANCH  22  23
ATOM     23  C   UNK d   1      24.695  35.845  66.502  0.00  0.00     0.113 C 
BRANCH  23  24
ATOM     24  C   UNK d   1      24.681  34.470  65.965  0.00  0.00     0.172 C 
ATOM     25  O   UNK d   1      24.557  33.531  66.786  0.00  0.00    -0.648 OA
ATOM     26  O   UNK d   1      24.801  34.256  64.600  0.00  0.00    -0.648 OA
ENDBRANCH  23  24
ENDBRANCH  22  23
ENDBRANCH  21  22
ENDBRANCH  17  21
ENDBRANCH   7  12
BRANCH   9  27
ATOM     27  C   UNK d   1      15.173  35.023  70.248  0.00  0.00     0.015 A 
ATOM     28  C   UNK d   1      14.854  36.371  70.190  0.00  0.00     0.046 A 
ATOM     29  C   UNK d   1      13.605  36.822  69.801  0.00  0.00     0.025 A 
ATOM     30 Cl   UNK d   1      16.072  37.558  70.627  0.00  0.00    -0.083 Cl
ATOM     31  C   UNK d   1      12.649  35.859  69.457  0.00  0.00     0.002 A 
ATOM     32  C   UNK d   1      12.934  34.510  69.504  0.00  0.00     0.001 A 
ATOM     33  C   UNK d   1      14.173  34.113  69.893  0.00  0.00     0.015 A 
ENDBRANCH   9  27
TORSDOF 6
ENDMDL
