/Users/jonathanwahrer/Desktop/Msc/3_Semester/Drug_Design_Praktikum/waehrer_HTS_screening/HTS_experiment/out/docking_results/vina_output/4x21/0611_docked.pdbqt
 OpenBabel03212201463D

 33 36  0  0  0  0  0  0  0  0999 V2000
   13.9950   30.8700   73.5860 Br  0  0  0  0  0  0  0  0  0  0  0  0
   15.5490   31.7650   72.9220 C   0  0  0  0  0  0  0  0  0  0  0  0
   15.4630   32.8350   72.0490 C   0  0  0  0  0  3  0  0  0  0  0  0
   16.5620   33.5010   71.5520 C   0  0  0  0  0  0  0  0  0  0  0  0
   17.8310   33.1010   71.9290 C   0  0  0  0  0  0  0  0  0  0  0  0
   18.9270   33.7380   71.4460 N   0  0  0  0  0  0  0  0  0  0  0  0
   18.8430   34.7720   70.5930 C   0  0  0  0  0  0  0  0  0  0  0  0
   17.6080   35.1620   70.2260 N   0  0  0  0  0  0  0  0  0  0  0  0
   16.4830   34.5610   70.6790 C   0  0  0  0  0  0  0  0  0  0  0  0
   17.9280   32.0380   72.7990 C   0  0  0  0  0  3  0  0  0  0  0  0
   16.8150   31.3700   73.2960 C   0  0  0  0  0  3  0  0  0  0  0  0
   20.0150   35.4160   70.1070 N   0  0  0  0  0  4  0  0  0  0  0  0
   21.1010   34.4730   69.9580 C   0  0  0  0  0  2  0  0  0  0  0  0
   22.1270   35.0700   69.0470 C   0  0  0  0  0  2  0  0  0  0  0  0
   21.8690   36.4900   68.9270 N   0  0  0  0  0  0  0  0  0  0  0  0
   21.5660   37.2160   70.1480 C   0  0  0  0  0  2  0  0  0  0  0  0
   21.9230   37.0880   67.6570 C   0  0  0  0  0  0  0  0  0  0  0  0
   20.4790   36.4890   70.9480 C   0  0  0  0  0  2  0  0  0  0  0  0
   21.6920   38.3200   67.5780 O   0  0  0  0  0  0  0  0  0  0  0  0
   19.7790   35.8210   69.1770 H   0  0  0  0  0  0  0  0  0  0  0  0
   22.2350   36.3310   66.4430 C   0  0  0  0  0  2  0  0  0  0  0  0
   23.5950   36.7160   65.9360 C   0  0  0  0  0  2  0  0  0  0  0  0
   24.6950   35.8450   66.5020 C   0  0  0  0  0  2  0  0  0  0  0  0
   24.6810   34.4700   65.9650 C   0  0  0  0  0  0  0  0  0  0  0  0
   24.5570   33.5310   66.7860 O   0  0  0  0  0  1  0  0  0  0  0  0
   24.8010   34.2560   64.6000 O   0  0  0  0  0  0  0  0  0  0  0  0
   15.1730   35.0230   70.2480 C   0  0  0  0  0  0  0  0  0  0  0  0
   14.8540   36.3710   70.1900 C   0  0  0  0  0  0  0  0  0  0  0  0
   13.6050   36.8220   69.8010 C   0  0  0  0  0  3  0  0  0  0  0  0
   16.0720   37.5580   70.6270 Cl  0  0  0  0  0  0  0  0  0  0  0  0
   12.6490   35.8590   69.4570 C   0  0  0  0  0  3  0  0  0  0  0  0
   12.9340   34.5100   69.5040 C   0  0  0  0  0  3  0  0  0  0  0  0
   14.1730   34.1130   69.8930 C   0  0  0  0  0  3  0  0  0  0  0  0
  2 11  1  0  0  0  0
  2  1  1  0  0  0  0
  3  2  2  0  0  0  0
  4  5  2  0  0  0  0
  4  3  1  0  0  0  0
  5 10  1  0  0  0  0
  6  5  1  0  0  0  0
  7  6  2  0  0  0  0
  8  7  1  0  0  0  0
  8  9  2  0  0  0  0
  9  4  1  0  0  0  0
 10 11  2  0  0  0  0
 12  7  1  0  0  0  0
 12 18  1  0  0  0  0
 13 12  1  0  0  0  0
 14 13  1  0  0  0  0
 15 14  1  0  0  0  0
 15 16  1  0  0  0  0
 16 18  1  0  0  0  0
 17 15  1  0  0  0  0
 19 17  2  0  0  0  0
 20 12  1  0  0  0  0
 21 17  1  0  0  0  0
 22 21  1  0  0  0  0
 22 23  1  0  0  0  0
 24 23  1  0  0  0  0
 24 25  1  0  0  0  0
 26 24  2  0  0  0  0
 27  9  1  0  0  0  0
 28 27  1  0  0  0  0
 28 30  1  0  0  0  0
 29 28  2  0  0  0  0
 31 32  2  0  0  0  0
 31 29  1  0  0  0  0
 32 33  1  0  0  0  0
 33 27  2  0  0  0  0
M  END
>  <Pose>
1

>  <Score>
-9.412

$$$$
