MODEL 1
REMARK VINA RESULT:    -8.455      0.000      0.000
REMARK INTER + INTRA:         -10.512
REMARK INTER:                  -9.937
REMARK INTRA:                  -0.575
REMARK UNBOUND:                -0.575
REMARK  3 active torsions:
REMARK  status: ('A' for Active; 'I' for Inactive)
REMARK    1  A    between atoms: C_7  and  C_9 
REMARK       I    between atoms: C_9  and  N_11 
REMARK       I    between atoms: N_14  and  C_17 
REMARK    2  A    between atoms: C_17  and  C_19 
REMARK    3  A    between atoms: C_19  and  N_20 
ROOT
ATOM      1  C   UNK d   1      21.156  36.762  70.105  0.00  0.00     0.270 C 
ATOM      2  O   UNK d   1      21.659  37.634  70.911  0.00  0.00    -0.266 OA
ATOM      3  N   UNK d   1      22.047  36.203  69.188  0.00  0.00    -0.344 N 
ATOM      4  C   UNK d   1      21.734  35.227  68.179  0.00  0.00     0.146 C 
ATOM      5  C   UNK d   1      22.950  34.884  67.309  0.00  0.00     0.145 C 
ATOM      6  N   UNK d   1      23.578  36.125  66.882  0.00  0.00    -0.348 N 
ATOM      7  C   UNK d   1      23.761  37.215  67.841  0.00  0.00     0.145 C 
ATOM      8  C   UNK d   1      23.476  36.615  69.220  0.00  0.00     0.146 C 
ATOM      9  C   UNK d   1      24.015  36.304  65.551  0.00  0.00     0.248 C 
ATOM     10  O   UNK d   1      23.835  35.350  64.756  0.00  0.00    -0.271 OA
ENDROOT
BRANCH   1  11
ATOM     11  C   UNK d   1      19.746  36.448  70.221  0.00  0.00     0.102 A 
ATOM     12  N   UNK d   1      19.097  35.458  70.839  0.00  0.00    -0.351 N 
ATOM     13  C   UNK d   1      17.743  35.568  70.662  0.00  0.00     0.043 A 
ATOM     14  H   UNK d   1      19.496  34.688  71.395  0.00  0.00     0.166 HD
ATOM     15  C   UNK d   1      17.497  36.674  69.897  0.00  0.00    -0.006 A 
ATOM     16  C   UNK d   1      16.678  34.802  71.096  0.00  0.00     0.031 A 
ATOM     17  C   UNK d   1      16.182  37.012  69.568  0.00  0.00     0.032 A 
ATOM     18  C   UNK d   1      18.719  37.221  69.622  0.00  0.00     0.049 A 
ATOM     19  C   UNK d   1      15.120  36.257  69.994  0.00  0.00     0.011 A 
ATOM     20 Br   UNK d   1      13.310  36.710  69.547  0.00  0.00    -0.051 Br
ATOM     21  C   UNK d   1      15.375  35.144  70.764  0.00  0.00     0.021 A 
ENDBRANCH   1  11
BRANCH   9  22
ATOM     22  C   UNK d   1      24.638  37.560  65.166  0.00  0.00     0.374 C 
BRANCH  22  23
ATOM     23  N   UNK d   1      26.008  37.450  64.714  0.00  0.00     0.101 N 
ATOM     24  C   UNK d   1      26.868  38.218  65.617  0.00  0.00     0.299 C 
ATOM     25  C   UNK d   1      27.147  39.574  65.069  0.00  0.00     0.198 C 
ATOM     26  O   UNK d   1      26.037  40.069  64.388  0.00  0.00    -0.388 OA
ATOM     27  C   UNK d   1      25.818  39.367  63.200  0.00  0.00     0.198 C 
ATOM     28  C   UNK d   1      26.191  37.910  63.349  0.00  0.00     0.299 C 
ENDBRANCH  22  23
ENDBRANCH   9  22
TORSDOF 3
ENDMDL
