MODEL 1
REMARK VINA RESULT:    -8.722      0.000      0.000
REMARK INTER + INTRA:          -9.546
REMARK INTER:                  -9.232
REMARK INTRA:                  -0.314
REMARK UNBOUND:                -0.314
REMARK  1 active torsions:
REMARK  status: ('A' for Active; 'I' for Inactive)
REMARK    1  A    between atoms: C_10  and  C_15 
REMARK       I    between atoms: C_15  and  N_17 
ROOT
ATOM      1 Br   UNK d   1      13.537  36.584  69.689  0.00  0.00    -0.051 Br
ATOM      2  C   UNK d   1      15.255  36.033  70.297  0.00  0.00     0.012 A 
ATOM      3  C   UNK d   1      15.340  35.011  71.219  0.00  0.00     0.028 A 
ATOM      4  C   UNK d   1      16.589  34.583  71.686  0.00  0.00    -0.027 A 
ATOM      5  C   UNK d   1      17.699  35.200  71.205  0.00  0.00     0.055 A 
ATOM      6  C   UNK d   1      17.665  36.224  70.284  0.00  0.00     0.044 A 
ATOM      7  C   UNK d   1      16.431  36.626  69.843  0.00  0.00     0.037 A 
ATOM      8  C   UNK d   1      18.862  36.757  69.886  0.00  0.00     0.201 A 
ATOM      9  O   UNK d   1      18.845  37.681  69.055  0.00  0.00    -0.286 OA
ATOM     10  C   UNK d   1      20.081  36.307  70.370  0.00  0.00     0.098 A 
ATOM     11  C   UNK d   1      20.045  35.280  71.289  0.00  0.00     0.112 A 
ATOM     12  N   UNK d   1      18.852  34.740  71.695  0.00  0.00    -0.354 N 
ATOM     13  C   UNK d   1      18.531  33.680  72.624  0.00  0.00     0.133 A 
ATOM     14  C   UNK d   1      17.032  33.553  72.640  0.00  0.00     0.061 A 
ENDROOT
BRANCH  10  15
ATOM     15  C   UNK d   1      21.347  36.885  69.934  0.00  0.00     0.259 C 
ATOM     16  O   UNK d   1      21.909  37.739  70.657  0.00  0.00    -0.267 OA
ATOM     17  N   UNK d   1      21.948  36.487  68.694  0.00  0.00    -0.344 N 
ATOM     18  C   UNK d   1      23.203  37.045  68.238  0.00  0.00     0.152 C 
ATOM     19  C   UNK d   1      21.316  35.501  67.840  0.00  0.00     0.152 C 
ATOM     20  C   UNK d   1      22.940  37.582  66.825  0.00  0.00     0.187 C 
ATOM     21  O   UNK d   1      22.388  36.586  66.056  0.00  0.00    -0.388 OA
ATOM     22  C   UNK d   1      21.141  36.172  66.476  0.00  0.00     0.187 C 
ENDBRANCH  10  15
TORSDOF 1
ENDMDL
