MODEL 1
REMARK VINA RESULT:    -8.119      0.000      0.000
REMARK INTER + INTRA:         -12.901
REMARK INTER:                 -11.679
REMARK INTRA:                  -1.222
REMARK UNBOUND:                -1.222
REMARK  8 active torsions:
REMARK  status: ('A' for Active; 'I' for Inactive)
REMARK    1  A    between atoms: N_5  and  C_23 
REMARK    2  A    between atoms: C_6  and  C_17 
REMARK    3  A    between atoms: C_7  and  C_12 
REMARK    4  A    between atoms: C_10  and  O_11 
REMARK    5  A    between atoms: C_12  and  O_14 
REMARK    6  A    between atoms: O_14  and  C_15 
REMARK    7  A    between atoms: C_17  and  N_18 
REMARK    8  A    between atoms: C_23  and  C_24 
ROOT
ATOM      1 Br   UNK d   1      23.709  32.835  69.995  0.00  0.00    -0.048 Br
ATOM      2  C   UNK d   1      21.869  32.879  70.400  0.00  0.00     0.046 A 
ATOM      3  C   UNK d   1      21.162  34.071  70.408  0.00  0.00     0.052 A 
ATOM      4  C   UNK d   1      19.833  34.132  70.714  0.00  0.00     0.048 A 
ATOM      5  N   UNK d   1      18.972  35.193  70.716  0.00  0.00    -0.343 N 
ATOM      6  C   UNK d   1      17.751  34.714  71.013  0.00  0.00     0.055 A 
ATOM      7  C   UNK d   1      17.844  33.314  71.237  0.00  0.00     0.076 A 
ATOM      8  C   UNK d   1      19.163  33.002  71.027  0.00  0.00     0.012 A 
ATOM      9  C   UNK d   1      19.853  31.787  71.024  0.00  0.00     0.052 A 
ATOM     10  C   UNK d   1      21.202  31.709  70.712  0.00  0.00     0.084 A 
ENDROOT
BRANCH   5  11
ATOM     11  C   UNK d   1      19.472  36.582  70.717  0.00  0.00     0.167 C 
BRANCH  11  12
ATOM     12  C   UNK d   1      19.339  37.061  69.253  0.00  0.00    -0.040 A 
ATOM     13  C   UNK d   1      20.446  36.882  68.476  0.00  0.00     0.009 A 
ATOM     14  C   UNK d   1      20.396  37.283  67.131  0.00  0.00     0.001 A 
ATOM     15  C   UNK d   1      19.285  37.835  66.567  0.00  0.00     0.000 A 
ATOM     16  C   UNK d   1      18.177  37.993  67.400  0.00  0.00     0.001 A 
ATOM     17  C   UNK d   1      18.216  37.603  68.745  0.00  0.00     0.009 A 
ENDBRANCH  11  12
ENDBRANCH   5  11
BRANCH   6  18
ATOM     18  C   UNK d   1      16.463  35.404  71.052  0.00  0.00     0.292 C 
BRANCH  18  19
ATOM     19  N   UNK d   1      15.273  34.667  70.759  0.00  0.00    -0.066 N 
ATOM     20  C   UNK d   1      14.742  34.278  69.574  0.00  0.00     0.235 C 
ATOM     21  C   UNK d   1      13.201  34.300  69.719  0.00  0.00     0.029 C 
ATOM     22  C   UNK d   1      13.073  34.091  71.226  0.00  0.00     0.029 C 
ATOM     23  C   UNK d   1      14.182  35.029  71.681  0.00  0.00     0.235 C 
ATOM     24  H   UNK d   1      15.562  33.661  71.304  0.00  0.00     0.280 HD
ENDBRANCH  18  19
ENDBRANCH   6  18
BRANCH   7  25
ATOM     25  C   UNK d   1      16.813  32.412  71.767  0.00  0.00     0.296 C 
ATOM     26  O   UNK d   1      16.436  32.602  72.955  0.00  0.00    -0.259 OA
BRANCH  25  27
ATOM     27  O   UNK d   1      16.221  31.400  71.087  0.00  0.00    -0.318 OA
BRANCH  27  28
ATOM     28  C   UNK d   1      15.483  30.311  71.509  0.00  0.00     0.174 C 
ATOM     29  C   UNK d   1      13.992  30.579  71.670  0.00  0.00     0.034 C 
ENDBRANCH  27  28
ENDBRANCH  25  27
ENDBRANCH   7  25
BRANCH  10  30
ATOM     30  O   UNK d   1      21.922  30.501  70.691  0.00  0.00    -0.359 OA
ATOM     31  H   UNK d   1      22.622  30.324  71.426  0.00  0.00     0.217 HD
ENDBRANCH  10  30
TORSDOF 8
ENDMDL
