/Users/jonathanwahrer/Desktop/Msc/3_Semester/Drug_Design_Praktikum/waehrer_HTS_screening/HTS_experiment/out/docking_results/vina_output/4x21/0631_docked.pdbqt
 OpenBabel03212201473D

 29 32  0  0  1  0  0  0  0  0999 V2000
   14.3390   31.6410   72.4840 N   0  0  0  0  0  0  0  0  0  0  0  0
   15.6850   31.1010   72.1930 C   0  0  0  0  0  2  0  0  0  0  0  0
   15.4660   29.5970   72.2380 C   0  0  2  0  0  3  0  0  0  0  0  0
   14.3890   29.4480   73.2910 C   0  0  0  0  0  2  0  0  0  0  0  0
   13.7590   30.7820   73.4630 C   0  0  0  0  0  0  0  0  0  0  0  0
   12.8970   31.1060   74.2900 O   0  0  0  0  0  0  0  0  0  0  0  0
   16.7680   29.0210   72.6090 C   0  0  0  0  0  0  0  0  0  0  0  0
   17.0840   27.8570   72.2690 O   0  0  0  0  0  0  0  0  0  0  0  0
   17.6640   29.8240   73.3660 N   0  0  0  0  0  0  0  0  0  0  0  0
   17.3570   30.7800   73.6330 H   0  0  0  0  0  0  0  0  0  0  0  0
   18.9660   29.3400   73.7660 C   0  0  0  0  0  2  0  0  0  0  0  0
   19.9960   30.4450   73.8610 C   0  0  0  0  0  2  0  0  0  0  0  0
   19.7760   31.4590   72.8120 C   0  0  0  0  0  0  0  0  0  0  0  0
   19.6230   31.1670   71.5100 N   0  0  0  0  0  0  0  0  0  0  0  0
   19.4370   32.2850   70.8080 C   0  0  0  0  0  3  0  0  0  0  0  0
   19.4700   33.3290   71.6800 N   0  0  0  0  0  0  0  0  0  0  0  0
   19.6770   32.8140   72.8960 C   0  0  0  0  0  3  0  0  0  0  0  0
   19.3490   34.3200   71.3710 H   0  0  0  0  0  0  0  0  0  0  0  0
   13.8440   32.7810   71.8250 C   0  0  0  0  0  0  0  0  0  0  0  0
   12.5920   33.1100   71.4770 N   0  0  0  0  0  0  0  0  0  0  0  0
   12.5590   34.2920   70.8690 N   0  0  0  0  0  0  0  0  0  0  0  0
   11.7370   32.5430   71.6420 H   0  0  0  0  0  0  0  0  0  0  0  0
   13.8040   34.7960   70.7930 C   0  0  0  0  0  0  0  0  0  0  0  0
   14.3090   35.9640   70.2710 C   0  0  0  0  0  3  0  0  0  0  0  0
   14.6200   33.8700   71.3820 C   0  0  0  0  0  0  0  0  0  0  0  0
   15.6830   36.1700   70.3670 C   0  0  0  0  0  0  0  0  0  0  0  0
   16.4910   37.7630   69.6750 Br  0  0  0  0  0  0  0  0  0  0  0  0
   16.4970   35.2210   70.9690 C   0  0  0  0  0  3  0  0  0  0  0  0
   15.9700   34.0610   71.4810 C   0  0  0  0  0  3  0  0  0  0  0  0
  1  5  1  0  0  0  0
  2  3  1  0  0  0  0
  2  1  1  0  0  0  0
  3  7  1  1  0  0  0
  3  4  1  0  0  0  0
  4  5  1  0  0  0  0
  5  6  2  0  0  0  0
  7  9  1  0  0  0  0
  8  7  2  0  0  0  0
  9 10  1  0  0  0  0
  9 11  1  0  0  0  0
 11 12  1  0  0  0  0
 13 17  2  0  0  0  0
 13 12  1  0  0  0  0
 14 13  1  0  0  0  0
 15 14  2  0  0  0  0
 15 16  1  0  0  0  0
 16 17  1  0  0  0  0
 18 16  1  0  0  0  0
 19  1  1  0  0  0  0
 20 22  1  0  0  0  0
 20 19  1  0  0  0  0
 21 20  1  0  0  0  0
 23 21  2  0  0  0  0
 23 25  1  0  0  0  0
 24 26  2  0  0  0  0
 24 23  1  0  0  0  0
 25 29  1  0  0  0  0
 25 19  2  0  0  0  0
 26 28  1  0  0  0  0
 27 26  1  0  0  0  0
 28 29  2  0  0  0  0
M  END
>  <Pose>
1

>  <Score>
-8.507

$$$$
