MODEL 1
REMARK VINA RESULT:    -8.507      0.000      0.000
REMARK INTER + INTRA:         -12.055
REMARK INTER:                 -10.994
REMARK INTRA:                  -1.061
REMARK UNBOUND:                -1.061
REMARK  5 active torsions:
REMARK  status: ('A' for Active; 'I' for Inactive)
REMARK    1  A    between atoms: C_7  and  N_11 
REMARK    2  A    between atoms: C_13  and  C_17 
REMARK       I    between atoms: C_17  and  N_19 
REMARK    3  A    between atoms: N_19  and  C_20 
REMARK    4  A    between atoms: C_20  and  C_21 
REMARK    5  A    between atoms: C_21  and  C_22 
ROOT
ATOM      1  N   UNK d   1      14.339  31.641  72.484  0.00  0.00    -0.301 N 
ATOM      2  C   UNK d   1      15.685  31.101  72.193  0.00  0.00     0.148 C 
ATOM      3  C   UNK d   1      15.466  29.597  72.238  0.00  0.00     0.105 C 
ATOM      4  C   UNK d   1      14.389  29.448  73.291  0.00  0.00     0.119 C 
ATOM      5  C   UNK d   1      13.759  30.782  73.463  0.00  0.00     0.226 C 
ATOM      6  O   UNK d   1      12.897  31.106  74.290  0.00  0.00    -0.273 OA
ENDROOT
BRANCH   3   7
ATOM      7  C   UNK d   1      16.768  29.021  72.609  0.00  0.00     0.223 C 
ATOM      8  O   UNK d   1      17.084  27.857  72.269  0.00  0.00    -0.273 OA
ATOM      9  N   UNK d   1      17.664  29.824  73.366  0.00  0.00    -0.360 N 
ATOM     10  H   UNK d   1      17.357  30.780  73.633  0.00  0.00     0.162 HD
BRANCH   9  11
ATOM     11  C   UNK d   1      18.966  29.340  73.766  0.00  0.00     0.128 C 
BRANCH  11  12
ATOM     12  C   UNK d   1      19.996  30.445  73.861  0.00  0.00     0.080 C 
BRANCH  12  13
ATOM     13  C   UNK d   1      19.776  31.459  72.812  0.00  0.00     0.052 A 
ATOM     14  N   UNK d   1      19.623  31.167  71.510  0.00  0.00    -0.247 NA
ATOM     15  C   UNK d   1      19.437  32.285  70.808  0.00  0.00     0.207 A 
ATOM     16  N   UNK d   1      19.470  33.329  71.680  0.00  0.00    -0.359 N 
ATOM     17  C   UNK d   1      19.677  32.814  72.896  0.00  0.00     0.116 A 
ATOM     18  H   UNK d   1      19.349  34.320  71.371  0.00  0.00     0.166 HD
ENDBRANCH  12  13
ENDBRANCH  11  12
ENDBRANCH   9  11
ENDBRANCH   3   7
BRANCH   1  19
ATOM     19  C   UNK d   1      13.844  32.781  71.825  0.00  0.00     0.139 A 
ATOM     20  N   UNK d   1      12.592  33.110  71.477  0.00  0.00    -0.261 N 
ATOM     21  N   UNK d   1      12.559  34.292  70.869  0.00  0.00    -0.172 NA
ATOM     22  H   UNK d   1      11.737  32.543  71.642  0.00  0.00     0.191 HD
ATOM     23  C   UNK d   1      13.804  34.796  70.793  0.00  0.00     0.092 A 
ATOM     24  C   UNK d   1      14.309  35.964  70.271  0.00  0.00     0.053 A 
ATOM     25  C   UNK d   1      14.620  33.870  71.382  0.00  0.00     0.040 A 
ATOM     26  C   UNK d   1      15.683  36.170  70.367  0.00  0.00     0.013 A 
ATOM     27 Br   UNK d   1      16.491  37.763  69.675  0.00  0.00    -0.051 Br
ATOM     28  C   UNK d   1      16.497  35.221  70.969  0.00  0.00     0.020 A 
ATOM     29  C   UNK d   1      15.970  34.061  71.481  0.00  0.00     0.019 A 
ENDBRANCH   1  19
TORSDOF 5
ENDMDL
