MODEL 1
REMARK VINA RESULT:    -8.818      0.000      0.000
REMARK INTER + INTRA:         -11.558
REMARK INTER:                 -10.880
REMARK INTRA:                  -0.678
REMARK UNBOUND:                -0.678
REMARK  4 active torsions:
REMARK  status: ('A' for Active; 'I' for Inactive)
REMARK    1  A    between atoms: N_4  and  C_31 
REMARK    2  A    between atoms: C_6  and  C_7 
REMARK       I    between atoms: C_7  and  N_9 
REMARK       I    between atoms: N_12  and  C_15 
REMARK    3  A    between atoms: C_15  and  C_17 
REMARK    4  A    between atoms: C_20  and  C_22 
REMARK       I    between atoms: C_22  and  N_24 
ROOT
ATOM      1  C   UNK d   1      22.642  36.525  66.279  0.00  0.00     0.275 C 
ATOM      2  O   UNK d   1      21.786  36.068  65.438  0.00  0.00    -0.266 OA
ATOM      3  N   UNK d   1      22.898  35.773  67.395  0.00  0.00    -0.344 N 
ATOM      4  C   UNK d   1      23.801  36.119  68.448  0.00  0.00     0.146 C 
ATOM      5  C   UNK d   1      23.008  36.482  69.661  0.00  0.00     0.145 C 
ATOM      6  N   UNK d   1      21.715  35.814  69.673  0.00  0.00    -0.355 N 
ATOM      7  C   UNK d   1      21.439  34.624  68.939  0.00  0.00     0.145 C 
ATOM      8  C   UNK d   1      22.217  34.484  67.634  0.00  0.00     0.146 C 
ATOM      9  C   UNK d   1      20.722  36.503  70.449  0.00  0.00     0.205 C 
ATOM     10  O   UNK d   1      21.067  37.652  70.952  0.00  0.00    -0.170 OA
ENDROOT
BRANCH   9  11
ATOM     11  C   UNK d   1      19.407  36.024  70.698  0.00  0.00     0.108 A 
ATOM     12  N   UNK d   1      19.130  34.997  71.591  0.00  0.00    -0.269 N 
ATOM     13  N   UNK d   1      17.865  34.729  71.572  0.00  0.00    -0.167 NA
ATOM     14  C   UNK d   1      20.100  34.325  72.423  0.00  0.00     0.180 C 
ATOM     15  C   UNK d   1      17.218  35.509  70.712  0.00  0.00     0.147 A 
ATOM     16  C   UNK d   1      18.211  36.338  70.153  0.00  0.00     0.075 A 
BRANCH  15  17
ATOM     17  C   UNK d   1      15.802  35.561  70.393  0.00  0.00     0.274 C 
ATOM     18  O   UNK d   1      15.329  36.716  70.094  0.00  0.00    -0.266 OA
ATOM     19  N   UNK d   1      14.936  34.479  70.389  0.00  0.00    -0.343 N 
ATOM     20  C   UNK d   1      13.538  34.717  70.017  0.00  0.00     0.152 C 
ATOM     21  C   UNK d   1      15.298  33.142  70.741  0.00  0.00     0.152 C 
ATOM     22  C   UNK d   1      12.708  34.139  71.144  0.00  0.00     0.187 C 
ATOM     23  O   UNK d   1      12.924  32.750  71.090  0.00  0.00    -0.388 OA
ATOM     24  C   UNK d   1      14.186  32.457  71.524  0.00  0.00     0.187 C 
ENDBRANCH  15  17
ENDBRANCH   9  11
BRANCH   1  25
ATOM     25  C   UNK d   1      23.235  37.793  65.937  0.00  0.00     0.163 A 
ATOM     26  C   UNK d   1      24.509  38.025  65.411  0.00  0.00     0.064 A 
ATOM     27 Br   UNK d   1      25.785  36.640  65.020  0.00  0.00    -0.047 Br
ATOM     28  C   UNK d   1      24.673  39.372  65.232  0.00  0.00     0.134 A 
ATOM     29  N   UNK d   1      23.542  39.962  65.632  0.00  0.00    -0.279 N 
ATOM     30  N   UNK d   1      22.705  39.047  66.042  0.00  0.00    -0.166 NA
BRANCH  29  31
ATOM     31  C   UNK d   1      23.372  41.409  65.585  0.00  0.00     0.146 C 
ATOM     32  C   UNK d   1      22.670  41.877  64.339  0.00  0.00     0.028 C 
ENDBRANCH  29  31
ENDBRANCH   1  25
TORSDOF 4
ENDMDL
