MODEL 1
REMARK VINA RESULT:    -8.202      0.000      0.000
REMARK INTER + INTRA:         -11.852
REMARK INTER:                 -10.600
REMARK INTRA:                  -1.252
REMARK UNBOUND:                -1.252
REMARK  5 active torsions:
REMARK  status: ('A' for Active; 'I' for Inactive)
REMARK    1  A    between atoms: N_4  and  C_7 
REMARK    2  A    between atoms: C_7  and  C_8 
REMARK       I    between atoms: C_8  and  N_10 
REMARK    3  A    between atoms: N_10  and  C_11 
REMARK    4  A    between atoms: C_11  and  C_12 
REMARK    5  A    between atoms: C_15  and  O_24 
ROOT
ATOM      1  C   UNK d   1      19.290  34.940  71.487  0.00  0.00     0.003 A 
ATOM      2  C   UNK d   1      20.032  35.875  70.812  0.00  0.00     0.116 A 
ATOM      3  C   UNK d   1      19.429  36.829  70.012  0.00  0.00     0.140 A 
ATOM      4  C   UNK d   1      18.060  36.868  69.866  0.00  0.00     0.120 A 
ATOM      5  C   UNK d   1      17.286  35.913  70.553  0.00  0.00     0.075 A 
ATOM      6  C   UNK d   1      17.884  34.969  71.346  0.00  0.00    -0.027 A 
ATOM      7  C   UNK d   1      17.066  33.987  72.062  0.00  0.00     0.060 C 
ATOM      8  C   UNK d   1      15.703  33.732  71.556  0.00  0.00     0.130 C 
ATOM      9  N   UNK d   1      15.055  34.906  70.985  0.00  0.00    -0.352 N 
ATOM     10  C   UNK d   1      15.841  35.906  70.352  0.00  0.00     0.256 C 
ATOM     11  O   UNK d   1      15.267  36.772  69.625  0.00  0.00    -0.267 OA
ATOM     12  C   UNK d   1      13.615  34.969  71.086  0.00  0.00     0.152 C 
ATOM     13  O   UNK d   1      20.446  37.604  69.491  0.00  0.00    -0.320 OA
ATOM     14  C   UNK d   1      21.674  37.274  70.089  0.00  0.00     0.352 C 
ATOM     15  O   UNK d   1      21.434  36.055  70.788  0.00  0.00    -0.322 OA
ENDROOT
BRANCH   1  16
ATOM     16  C   UNK d   1      19.907  33.882  72.315  0.00  0.00     0.164 C 
BRANCH  16  17
ATOM     17  N   UNK d   1      21.200  33.445  71.822  0.00  0.00    -0.355 N 
ATOM     18  C   UNK d   1      21.558  32.241  71.254  0.00  0.00     0.237 C 
ATOM     19  O   UNK d   1      20.714  31.302  71.092  0.00  0.00    -0.272 OA
ATOM     20  H   UNK d   1      21.958  34.192  71.924  0.00  0.00     0.162 HD
BRANCH  18  21
ATOM     21  C   UNK d   1      22.954  31.988  70.806  0.00  0.00     0.253 C 
BRANCH  21  22
ATOM     22  N   UNK d   1      23.134  32.726  69.541  0.00  0.00    -0.271 N 
ATOM     23  C   UNK d   1      24.232  32.794  68.796  0.00  0.00     0.133 A 
ATOM     24  C   UNK d   1      23.960  33.586  67.704  0.00  0.00     0.047 A 
ATOM     25 Br   UNK d   1      25.142  34.059  66.282  0.00  0.00    -0.048 Br
ATOM     26  C   UNK d   1      22.653  34.003  67.804  0.00  0.00     0.159 A 
ATOM     27  N   UNK d   1      22.196  33.452  68.938  0.00  0.00    -0.183 NA
ENDBRANCH  21  22
ENDBRANCH  18  21
ENDBRANCH  16  17
ENDBRANCH   1  16
BRANCH   4  28
ATOM     28  O   UNK d   1      17.422  37.807  69.077  0.00  0.00    -0.352 OA
ATOM     29  C   UNK d   1      17.769  37.979  67.718  0.00  0.00     0.210 C 
ENDBRANCH   4  28
TORSDOF 5
ENDMDL
