MODEL 1
REMARK VINA RESULT:    -8.117      0.000      0.000
REMARK INTER + INTRA:          -9.917
REMARK INTER:                  -9.540
REMARK INTRA:                  -0.376
REMARK UNBOUND:                -0.376
REMARK  3 active torsions:
REMARK  status: ('A' for Active; 'I' for Inactive)
REMARK    1  A    between atoms: N_4  and  C_7 
REMARK    2  A    between atoms: C_7  and  N_8 
REMARK    3  A    between atoms: C_10  and  C_13 
ROOT
ATOM      1  C   UNK d   1      20.405  37.002  67.485  0.00  0.00     0.202 A 
ATOM      2  N   UNK d   1      21.276  37.737  66.775  0.00  0.00    -0.142 NA
ATOM      3  N   UNK d   1      22.372  37.026  66.513  0.00  0.00    -0.206 N 
ATOM      4  C   UNK d   1      22.201  35.793  67.072  0.00  0.00     0.170 A 
ATOM      5  N   UNK d   1      20.990  35.806  67.660  0.00  0.00    -0.205 NA
ATOM      6  C   UNK d   1      23.213  34.866  66.934  0.00  0.00     0.078 A 
ATOM      7  C   UNK d   1      24.386  35.138  66.254  0.00  0.00     0.160 A 
ATOM      8  N   UNK d   1      25.176  34.051  66.286  0.00  0.00    -0.261 N 
ATOM      9  N   UNK d   1      24.528  33.118  66.964  0.00  0.00    -0.184 NA
ATOM     10  C   UNK d   1      23.327  33.575  67.376  0.00  0.00     0.158 A 
ATOM     11  N   UNK d   1      24.509  36.364  65.721  0.00  0.00    -0.222 NA
ATOM     12  C   UNK d   1      23.522  37.264  65.857  0.00  0.00     0.239 A 
ATOM     13  H   UNK d   1      26.123  33.935  65.866  0.00  0.00     0.191 HD
ENDROOT
BRANCH   1  14
ATOM     14  C   UNK d   1      19.092  37.435  67.961  0.00  0.00     0.128 A 
ATOM     15  N   UNK d   1      18.547  37.252  69.176  0.00  0.00    -0.167 NA
ATOM     16  N   UNK d   1      17.338  37.783  69.239  0.00  0.00    -0.261 N 
ATOM     17  C   UNK d   1      17.042  38.341  68.053  0.00  0.00     0.117 A 
ATOM     18  C   UNK d   1      18.146  38.126  67.234  0.00  0.00     0.056 A 
BRANCH  16  19
ATOM     19  C   UNK d   1      16.466  37.763  70.416  0.00  0.00     0.300 C 
BRANCH  19  20
ATOM     20  N   UNK d   1      15.386  36.811  70.260  0.00  0.00    -0.260 N 
ATOM     21  C   UNK d   1      15.401  35.524  70.642  0.00  0.00     0.135 A 
ATOM     22  C   UNK d   1      14.184  34.962  70.316  0.00  0.00     0.047 A 
ATOM     23 Br   UNK d   1      13.646  33.174  70.621  0.00  0.00    -0.048 Br
ATOM     24  C   UNK d   1      13.441  35.959  69.724  0.00  0.00     0.159 A 
ATOM     25  N   UNK d   1      14.212  37.070  69.712  0.00  0.00    -0.182 NA
ENDBRANCH  19  20
ENDBRANCH  16  19
ENDBRANCH   1  14
TORSDOF 3
ENDMDL
