MODEL 1
REMARK VINA RESULT:    -8.667      0.000      0.000
REMARK INTER + INTRA:          -9.916
REMARK INTER:                  -9.680
REMARK INTRA:                  -0.236
REMARK UNBOUND:                -0.236
REMARK  2 active torsions:
REMARK  status: ('A' for Active; 'I' for Inactive)
REMARK    1  A    between atoms: N_4  and  C_7 
REMARK    2  A    between atoms: C_10  and  C_13 
REMARK       I    between atoms: C_13  and  N_15 
ROOT
ATOM      1  C   UNK d   1      19.295  36.743  69.807  0.00  0.00     0.253 C 
ATOM      2  O   UNK d   1      18.991  37.622  68.906  0.00  0.00    -0.267 OA
ATOM      3  N   UNK d   1      20.617  36.740  70.219  0.00  0.00    -0.348 N 
ATOM      4  C   UNK d   1      21.301  35.964  71.218  0.00  0.00     0.129 C 
ATOM      5  C   UNK d   1      22.040  34.857  70.493  0.00  0.00     0.061 C 
ATOM      6  C   UNK d   1      22.602  35.367  69.182  0.00  0.00     0.118 C 
ATOM      7  N   UNK d   1      23.903  34.760  69.009  0.00  0.00    -0.324 N 
ATOM      8  C   UNK d   1      23.713  33.486  68.411  0.00  0.00     0.323 C 
ATOM      9  O   UNK d   1      24.515  32.495  68.403  0.00  0.00    -0.247 OA
ATOM     10  N   UNK d   1      22.416  33.510  67.796  0.00  0.00    -0.277 N 
ATOM     11  C   UNK d   1      21.848  34.814  68.041  0.00  0.00     0.254 C 
ATOM     12  O   UNK d   1      20.910  35.309  67.380  0.00  0.00    -0.270 OA
ATOM     13  C   UNK d   1      22.763  36.853  69.140  0.00  0.00     0.061 C 
ATOM     14  C   UNK d   1      21.557  37.653  69.497  0.00  0.00     0.129 C 
ATOM     15  H   UNK d   1      24.833  35.147  69.261  0.00  0.00     0.165 HD
ATOM     16  H   UNK d   1      21.927  32.758  67.262  0.00  0.00     0.173 HD
ENDROOT
BRANCH   1  17
ATOM     17  C   UNK d   1      18.189  35.914  70.227  0.00  0.00     0.032 A 
ATOM     18  C   UNK d   1      18.438  34.588  70.637  0.00  0.00     0.019 A 
ATOM     19  C   UNK d   1      17.449  33.753  71.084  0.00  0.00     0.032 A 
ATOM     20  C   UNK d   1      16.138  34.156  71.164  0.00  0.00     0.058 A 
ATOM     21  C   UNK d   1      15.869  35.440  70.773  0.00  0.00     0.032 A 
ATOM     22  C   UNK d   1      16.873  36.306  70.313  0.00  0.00     0.019 A 
BRANCH  20  23
ATOM     23  N   UNK d   1      15.133  33.269  71.632  0.00  0.00    -0.244 N 
ATOM     24  C   UNK d   1      15.268  32.195  72.431  0.00  0.00     0.139 A 
ATOM     25  C   UNK d   1      14.033  31.619  72.634  0.00  0.00     0.047 A 
ATOM     26 Br   UNK d   1      13.630  30.060  73.690  0.00  0.00    -0.048 Br
ATOM     27  C   UNK d   1      13.146  32.395  71.921  0.00  0.00     0.159 A 
ATOM     28  N   UNK d   1      13.853  33.363  71.343  0.00  0.00    -0.179 NA
ENDBRANCH  20  23
ENDBRANCH   1  17
TORSDOF 2
ENDMDL
