MODEL 1
REMARK VINA RESULT:    -8.104      0.000      0.000
REMARK INTER + INTRA:         -10.862
REMARK INTER:                  -9.999
REMARK INTRA:                  -0.864
REMARK UNBOUND:                -0.864
REMARK  4 active torsions:
REMARK  status: ('A' for Active; 'I' for Inactive)
REMARK    1  A    between atoms: C_5  and  N_8 
REMARK    2  A    between atoms: N_8  and  C_9 
REMARK    3  A    between atoms: C_10  and  N_22 
REMARK    4  A    between atoms: N_13  and  C_16 
ROOT
ATOM      1  C   UNK d   1      22.940  38.144  65.967  0.00  0.00     0.136 A 
ATOM      2  C   UNK d   1      23.188  36.947  66.409  0.00  0.00     0.140 A 
ATOM      3  C   UNK d   1      22.020  36.539  67.191  0.00  0.00     0.285 A 
ATOM      4  O   UNK d   1      21.917  35.417  67.777  0.00  0.00    -0.265 OA
ATOM      5  N   UNK d   1      21.023  37.571  67.203  0.00  0.00    -0.241 N 
ATOM      6  C   UNK d   1      21.605  38.609  66.416  0.00  0.00     0.284 A 
ATOM      7  O   UNK d   1      21.078  39.721  66.152  0.00  0.00    -0.265 OA
ENDROOT
BRANCH   1   8
ATOM      8  N   UNK d   1      23.749  38.981  65.162  0.00  0.00    -0.335 N 
ATOM      9  H   UNK d   1      23.761  38.877  64.148  0.00  0.00     0.168 HD
BRANCH   8  10
ATOM     10  C   UNK d   1      24.540  39.961  65.805  0.00  0.00     0.127 A 
ATOM     11  N   UNK d   1      24.150  41.263  65.860  0.00  0.00    -0.242 NA
ATOM     12  C   UNK d   1      24.869  42.229  66.442  0.00  0.00     0.138 A 
ATOM     13  C   UNK d   1      26.074  41.953  67.032  0.00  0.00     0.028 A 
ATOM     14 Br   UNK d   1      27.132  43.312  67.862  0.00  0.00    -0.050 Br
ATOM     15  C   UNK d   1      26.530  40.655  67.015  0.00  0.00     0.024 A 
ATOM     16  C   UNK d   1      25.771  39.689  66.413  0.00  0.00     0.052 A 
ENDBRANCH   8  10
ENDBRANCH   1   8
BRANCH   2  17
ATOM     17  N   UNK d   1      24.348  36.139  66.195  0.00  0.00    -0.326 N 
ATOM     18  C   UNK d   1      24.456  35.403  65.075  0.00  0.00     0.097 A 
ATOM     19  C   UNK d   1      25.579  34.592  64.838  0.00  0.00     0.018 A 
ATOM     20  C   UNK d   1      26.600  34.541  65.769  0.00  0.00     0.003 A 
ATOM     21  C   UNK d   1      26.466  35.305  66.908  0.00  0.00     0.018 A 
ATOM     22  C   UNK d   1      25.355  36.083  67.101  0.00  0.00     0.097 A 
ENDBRANCH   2  17
BRANCH   5  23
ATOM     23  C   UNK d   1      19.764  37.552  67.858  0.00  0.00     0.046 A 
ATOM     24  C   UNK d   1      19.594  37.142  69.155  0.00  0.00     0.030 A 
ATOM     25  C   UNK d   1      18.329  37.152  69.779  0.00  0.00     0.002 A 
ATOM     26  C   UNK d   1      17.216  37.581  69.092  0.00  0.00     0.000 A 
ATOM     27  C   UNK d   1      17.381  37.992  67.794  0.00  0.00     0.002 A 
ATOM     28  C   UNK d   1      18.640  37.975  67.193  0.00  0.00     0.030 A 
ENDBRANCH   5  23
TORSDOF 4
ENDMDL
