/Users/jonathanwahrer/Desktop/Msc/3_Semester/Drug_Design_Praktikum/waehrer_HTS_screening/HTS_experiment/out/docking_results/vina_output/4x21/0670_docked.pdbqt
 OpenBabel03212201483D

 23 27  0  0  1  0  0  0  0  0999 V2000
   16.0800   37.1880   70.3520 C   0  0  0  0  0  2  0  0  0  0  0  0
   17.2740   36.7810   69.5470 C   0  0  1  0  0  3  0  0  0  0  0  0
   17.7140   37.7600   68.4770 C   0  0  2  0  0  3  0  0  0  0  0  0
   19.0440   37.3040   68.7640 N   0  0  0  0  0  0  0  0  0  0  0  0
   18.6190   37.1990   70.1310 C   0  0  2  0  0  3  0  0  0  0  0  0
   20.2120   37.0730   68.0300 C   0  0  0  0  0  0  0  0  0  0  0  0
   20.7810   35.8570   67.8800 N   0  0  0  0  0  0  0  0  0  0  0  0
   21.8870   35.6160   67.1890 C   0  0  0  0  0  3  0  0  0  0  0  0
   22.5350   36.6550   66.5610 C   0  0  0  0  0  0  0  0  0  0  0  0
   24.1330   36.3390   65.5570 Br  0  0  0  0  0  0  0  0  0  0  0  0
   21.9850   37.9120   66.6910 C   0  0  0  0  0  3  0  0  0  0  0  0
   20.8600   38.0990   67.4040 N   0  0  0  0  0  0  0  0  0  0  0  0
   15.2320   36.0350   70.5010 N   0  0  0  0  0  0  0  0  0  0  0  0
   15.6610   34.9360   71.2450 N   0  0  0  0  0  0  0  0  0  0  0  0
   14.8590   33.7760   71.4210 C   0  0  0  0  0  0  0  0  0  0  0  0
   16.6260   35.0000   71.6820 H   0  0  0  0  0  0  0  0  0  0  0  0
   15.3130   32.7640   72.1350 C   0  0  0  0  0  0  0  0  0  0  0  0
   13.5430   33.6990   70.8190 C   0  0  0  0  0  3  0  0  0  0  0  0
   16.2880   32.0290   72.9660 C   0  0  0  0  0  2  0  0  0  0  0  0
   15.0220   31.3760   72.6700 C   0  0  0  0  0  2  0  0  0  0  0  0
   13.1150   34.7300   70.1090 C   0  0  0  0  0  3  0  0  0  0  0  0
   13.9400   35.9410   69.9200 C   0  0  0  0  0  0  0  0  0  0  0  0
   13.5100   36.9090   69.2390 O   0  0  0  0  0  0  0  0  0  0  0  0
  1 13  1  0  0  0  0
  2  5  1  0  0  0  0
  2  1  1  1  0  0  0
  3  4  1  6  0  0  0
  3  2  1  0  0  0  0
  3  5  1  0  0  0  0
  5  4  1  6  0  0  0
  6  4  1  0  0  0  0
  7  6  2  0  0  0  0
  8  7  1  0  0  0  0
  9 11  1  0  0  0  0
  9  8  2  0  0  0  0
 10  9  1  0  0  0  0
 11 12  2  0  0  0  0
 12  6  1  0  0  0  0
 13 14  1  0  0  0  0
 14 15  1  0  0  0  0
 14 16  1  0  0  0  0
 15 17  2  0  0  0  0
 17 20  1  0  0  0  0
 17 19  1  0  0  0  0
 18 15  1  0  0  0  0
 20 19  1  0  0  0  0
 21 18  2  0  0  0  0
 22 21  1  0  0  0  0
 22 13  1  0  0  0  0
 23 22  2  0  0  0  0
M  END
>  <Pose>
1

>  <Score>
-8.066

$$$$
