MODEL 1
REMARK VINA RESULT:    -8.066      0.000      0.000
REMARK INTER + INTRA:          -9.852
REMARK INTER:                  -9.481
REMARK INTRA:                  -0.371
REMARK UNBOUND:                -0.371
REMARK  3 active torsions:
REMARK  status: ('A' for Active; 'I' for Inactive)
REMARK    1  A    between atoms: C_5  and  N_8 
REMARK    2  A    between atoms: C_10  and  C_12 
REMARK    3  A    between atoms: C_12  and  N_13 
ROOT
ATOM      1  C   UNK d   1      16.080  37.188  70.352  0.00  0.00     0.160 C 
ENDROOT
BRANCH   1   2
ATOM      2  C   UNK d   1      17.274  36.781  69.547  0.00  0.00     0.043 C 
ATOM      3  C   UNK d   1      17.714  37.760  68.477  0.00  0.00     0.149 C 
ATOM      4  N   UNK d   1      19.044  37.304  68.764  0.00  0.00    -0.213 N 
ATOM      5  C   UNK d   1      18.619  37.199  70.131  0.00  0.00     0.149 C 
BRANCH   4   6
ATOM      6  C   UNK d   1      20.212  37.073  68.030  0.00  0.00     0.724 A 
ATOM      7  N   UNK d   1      20.781  35.857  67.880  0.00  0.00    -0.074 NA
ATOM      8  C   UNK d   1      21.887  35.616  67.189  0.00  0.00     0.157 A 
ATOM      9  C   UNK d   1      22.535  36.655  66.561  0.00  0.00     0.047 A 
ATOM     10 Br   UNK d   1      24.133  36.339  65.557  0.00  0.00    -0.048 Br
ATOM     11  C   UNK d   1      21.985  37.912  66.691  0.00  0.00     0.157 A 
ATOM     12  N   UNK d   1      20.860  38.099  67.404  0.00  0.00    -0.074 NA
ENDBRANCH   4   6
ENDBRANCH   1   2
BRANCH   1  13
ATOM     13  N   UNK d   1      15.232  36.035  70.501  0.00  0.00    -0.257 N 
ATOM     14  N   UNK d   1      15.661  34.936  71.245  0.00  0.00    -0.296 N 
ATOM     15  C   UNK d   1      14.859  33.776  71.421  0.00  0.00     0.051 A 
ATOM     16  H   UNK d   1      16.626  35.000  71.682  0.00  0.00     0.187 HD
ATOM     17  C   UNK d   1      15.313  32.764  72.135  0.00  0.00    -0.051 A 
ATOM     18  C   UNK d   1      13.543  33.699  70.819  0.00  0.00     0.036 A 
ATOM     19  C   UNK d   1      16.288  32.029  72.966  0.00  0.00     0.041 A 
ATOM     20  C   UNK d   1      15.022  31.376  72.670  0.00  0.00     0.041 A 
ATOM     21  C   UNK d   1      13.115  34.730  70.109  0.00  0.00     0.078 A 
ATOM     22  C   UNK d   1      13.940  35.941  69.920  0.00  0.00     0.262 A 
ATOM     23  O   UNK d   1      13.510  36.909  69.239  0.00  0.00    -0.267 OA
ENDBRANCH   1  13
TORSDOF 3
ENDMDL
