MODEL 1
REMARK VINA RESULT:    -8.093      0.000      0.000
REMARK INTER + INTRA:          -8.466
REMARK INTER:                  -9.039
REMARK INTRA:                   0.573
REMARK UNBOUND:                 0.573
REMARK  2 active torsions:
REMARK  status: ('A' for Active; 'I' for Inactive)
REMARK    1  A    between atoms: C_6  and  C_8 
REMARK       I    between atoms: C_8  and  N_10 
REMARK    2  A    between atoms: C_12  and  N_14 
ROOT
ATOM      1  C   UNK d   1      20.183  35.620  70.395  0.00  0.00     0.255 C 
ATOM      2  O   UNK d   1      20.625  35.368  71.575  0.00  0.00    -0.267 OA
ATOM      3  N   UNK d   1      21.087  35.491  69.325  0.00  0.00    -0.344 N 
ATOM      4  C   UNK d   1      21.127  35.658  67.905  0.00  0.00     0.153 C 
ATOM      5  C   UNK d   1      22.634  35.936  68.050  0.00  0.00     0.132 C 
ATOM      6  C   UNK d   1      22.497  35.057  69.236  0.00  0.00     0.153 C 
ENDROOT
BRANCH   5   7
ATOM      7  N   UNK d   1      23.381  35.430  66.931  0.00  0.00    -0.280 N 
ATOM      8  C   UNK d   1      23.875  34.095  66.717  0.00  0.00     0.232 C 
ATOM      9  O   UNK d   1      23.390  33.068  67.223  0.00  0.00    -0.272 OA
ATOM     10  C   UNK d   1      25.047  34.245  65.787  0.00  0.00     0.095 C 
ATOM     11  C   UNK d   1      24.520  35.322  64.869  0.00  0.00     0.095 C 
ATOM     12  C   UNK d   1      26.212  34.666  66.616  0.00  0.00     0.041 C 
ATOM     13  C   UNK d   1      25.639  36.028  64.155  0.00  0.00     0.041 C 
ATOM     14  C   UNK d   1      23.775  36.194  65.797  0.00  0.00     0.232 C 
ATOM     15  C   UNK d   1      26.560  36.637  65.151  0.00  0.00    -0.030 C 
ATOM     16  C   UNK d   1      26.789  35.971  66.264  0.00  0.00    -0.030 C 
ATOM     17  O   UNK d   1      23.553  37.410  65.572  0.00  0.00    -0.272 OA
ENDBRANCH   5   7
BRANCH   1  18
ATOM     18  C   UNK d   1      18.793  36.008  70.329  0.00  0.00     0.051 A 
ATOM     19  C   UNK d   1      18.424  37.226  69.744  0.00  0.00     0.133 A 
ATOM     20  N   UNK d   1      17.154  37.638  69.670  0.00  0.00    -0.271 NA
ATOM     21  C   UNK d   1      16.141  36.882  70.165  0.00  0.00     0.135 A 
ATOM     22  C   UNK d   1      16.414  35.672  70.757  0.00  0.00     0.029 A 
ATOM     23 Br   UNK d   1      14.978  34.629  71.446  0.00  0.00    -0.050 Br
ATOM     24  C   UNK d   1      17.740  35.271  70.820  0.00  0.00     0.039 A 
ENDBRANCH   1  18
TORSDOF 2
ENDMDL
