MODEL 1
REMARK VINA RESULT:    -4.981      0.000      0.000
REMARK INTER + INTRA:          -5.307
REMARK INTER:                  -5.273
REMARK INTRA:                  -0.034
REMARK UNBOUND:                -0.034
REMARK  2 active torsions:
REMARK  status: ('A' for Active; 'I' for Inactive)
REMARK    1  A    between atoms: C_6  and  C_8 
REMARK    2  A    between atoms: C_21  and  N_22 
ROOT
ATOM      1 Br   UNK d   1      16.766  37.614  69.946  0.00  0.00    -0.050 Br
ATOM      2  C   UNK d   1      16.243  35.906  70.561  0.00  0.00     0.029 A 
ATOM      3  C   UNK d   1      17.197  35.029  71.051  0.00  0.00     0.135 A 
ATOM      4  N   UNK d   1      16.776  33.829  71.477  0.00  0.00    -0.271 NA
ATOM      5  C   UNK d   1      15.494  33.433  71.456  0.00  0.00     0.134 A 
ATOM      6  C   UNK d   1      14.555  34.308  70.968  0.00  0.00     0.059 A 
ATOM      7  C   UNK d   1      14.908  35.566  70.509  0.00  0.00     0.040 A 
ENDROOT
BRANCH   6   8
ATOM      8  C   UNK d   1      13.156  33.915  70.929  0.00  0.00     0.210 C 
ATOM      9  O   UNK d   1      12.702  33.072  71.752  0.00  0.00    -0.644 OA
ATOM     10  O   UNK d   1      12.284  34.446  69.995  0.00  0.00    -0.644 OA
ENDBRANCH   6   8
TORSDOF 2
ENDMDL
