MODEL 1
REMARK VINA RESULT:    -4.964      0.000      0.000
REMARK INTER + INTRA:          -5.289
REMARK INTER:                  -5.254
REMARK INTRA:                  -0.035
REMARK UNBOUND:                -0.035
REMARK  2 active torsions:
REMARK  status: ('A' for Active; 'I' for Inactive)
REMARK    1  A    between atoms: C_6  and  C_8 
REMARK    2  A    between atoms: C_20  and  N_21 
ROOT
ATOM      1 Br   UNK d   1      16.720  37.618  69.907  0.00  0.00    -0.050 Br
ATOM      2  C   UNK d   1      16.212  35.912  70.587  0.00  0.00     0.029 A 
ATOM      3  C   UNK d   1      17.132  35.027  71.106  0.00  0.00     0.135 A 
ATOM      4  N   UNK d   1      16.781  33.821  71.587  0.00  0.00    -0.271 NA
ATOM      5  C   UNK d   1      15.487  33.469  71.560  0.00  0.00     0.134 A 
ATOM      6  C   UNK d   1      14.507  34.295  71.059  0.00  0.00     0.059 A 
ATOM      7  C   UNK d   1      14.892  35.518  70.575  0.00  0.00     0.040 A 
ENDROOT
BRANCH   6   8
ATOM      8  C   UNK d   1      13.105  33.898  71.037  0.00  0.00     0.210 C 
ATOM      9  O   UNK d   1      12.693  33.034  71.849  0.00  0.00    -0.644 OA
ATOM     10  O   UNK d   1      12.265  34.497  70.110  0.00  0.00    -0.644 OA
ENDBRANCH   6   8
TORSDOF 2
ENDMDL
