MODEL 1
REMARK VINA RESULT:    -6.720      0.000      0.000
REMARK INTER + INTRA:          -9.610
REMARK INTER:                  -8.291
REMARK INTRA:                  -1.319
REMARK UNBOUND:                -1.319
REMARK  4 active torsions:
REMARK  status: ('A' for Active; 'I' for Inactive)
REMARK    1  A    between atoms: C_11  and  C_14 
REMARK    2  A    between atoms: C_11  and  C_21 
REMARK    3  A    between atoms: C_14  and  N_15 
REMARK    4  A    between atoms: C_21  and  N_22 
ROOT
ATOM      1 Br   UNK d   1      13.827  29.083  75.696  0.00  0.00    -0.048 Br
ATOM      2  C   UNK d   1      15.098  28.858  74.302  0.00  0.00     0.046 A 
ATOM      3  C   UNK d   1      15.444  29.940  73.516  0.00  0.00     0.100 A 
ATOM      4  C   UNK d   1      16.375  29.841  72.470  0.00  0.00     0.047 A 
ATOM      5  C   UNK d   1      16.965  28.629  72.215  0.00  0.00     0.037 A 
ATOM      6  C   UNK d   1      16.624  27.543  72.997  0.00  0.00     0.013 A 
ATOM      7  C   UNK d   1      15.711  27.639  74.024  0.00  0.00     0.041 A 
ATOM      8 Br   UNK d   1      17.424  25.847  72.671  0.00  0.00    -0.051 Br
ATOM      9  C   UNK d   1      16.697  31.009  71.659  0.00  0.00     0.176 C 
ATOM     10  O   UNK d   1      17.163  30.770  70.512  0.00  0.00    -0.291 OA
ATOM     11  C   UNK d   1      16.496  32.373  72.135  0.00  0.00     0.095 C 
ATOM     12  C   UNK d   1      15.758  32.318  73.499  0.00  0.00     0.197 C 
ATOM     13  O   UNK d   1      14.935  31.220  73.654  0.00  0.00    -0.347 OA
ENDROOT
BRANCH  11  14
ATOM     14  C   UNK d   1      17.680  33.181  72.408  0.00  0.00     0.256 C 
BRANCH  14  15
ATOM     15  N   UNK d   1      18.682  33.521  71.509  0.00  0.00    -0.070 N 
ATOM     16  C   UNK d   1      20.024  33.066  71.699  0.00  0.00     0.235 C 
ATOM     17  C   UNK d   1      20.681  33.071  70.294  0.00  0.00     0.028 C 
ATOM     18  C   UNK d   1      20.908  34.533  69.971  0.00  0.00     0.003 C 
ATOM     19  C   UNK d   1      20.072  35.439  70.848  0.00  0.00     0.028 C 
ATOM     20  C   UNK d   1      18.671  34.899  71.041  0.00  0.00     0.235 C 
ATOM     21  H   UNK d   1      18.400  32.986  70.607  0.00  0.00     0.279 HD
ENDBRANCH  14  15
ENDBRANCH  11  14
BRANCH  11  22
ATOM     22  C   UNK d   1      15.604  33.089  71.133  0.00  0.00     0.256 C 
BRANCH  22  23
ATOM     23  N   UNK d   1      14.573  33.878  71.761  0.00  0.00    -0.070 N 
ATOM     24  C   UNK d   1      13.287  33.411  71.262  0.00  0.00     0.235 C 
ATOM     25  C   UNK d   1      13.302  33.445  69.770  0.00  0.00     0.028 C 
ATOM     26  C   UNK d   1      13.683  34.748  69.170  0.00  0.00     0.003 C 
ATOM     27  C   UNK d   1      14.708  35.525  69.921  0.00  0.00     0.028 C 
ATOM     28  C   UNK d   1      14.603  35.287  71.411  0.00  0.00     0.235 C 
ATOM     29  H   UNK d   1      14.631  33.832  72.794  0.00  0.00     0.279 HD
ENDBRANCH  22  23
ENDBRANCH  11  22
TORSDOF 4
ENDMDL
