MODEL 1
REMARK VINA RESULT:    -9.039      0.000      0.000
REMARK INTER + INTRA:         -12.108
REMARK INTER:                 -11.153
REMARK INTRA:                  -0.956
REMARK UNBOUND:                -0.956
REMARK  4 active torsions:
REMARK  status: ('A' for Active; 'I' for Inactive)
REMARK    1  A    between atoms: N_10  and  N_11 
REMARK       I    between atoms: N_11  and  C_12 
REMARK    2  A    between atoms: C_12  and  C_14 
REMARK    3  A    between atoms: C_14  and  N_15 
REMARK       I    between atoms: N_15  and  C_16 
REMARK    4  A    between atoms: C_16  and  C_18 
ROOT
ATOM      1  N   UNK d   1      19.952  32.868  72.325  0.00  0.00    -0.245 N 
ATOM      2  C   UNK d   1      20.859  31.975  71.712  0.00  0.00     0.255 C 
ATOM      3  O   UNK d   1      20.507  30.812  71.428  0.00  0.00    -0.270 OA
ATOM      4  H   UNK d   1      20.176  33.851  72.590  0.00  0.00     0.192 HD
ENDROOT
BRANCH   2   5
ATOM      5  C   UNK d   1      22.264  32.367  71.377  0.00  0.00     0.227 C 
BRANCH   5   6
ATOM      6  N   UNK d   1      22.372  33.764  71.058  0.00  0.00    -0.350 N 
ATOM      7  C   UNK d   1      22.354  34.256  69.725  0.00  0.00     0.249 C 
ATOM      8  O   UNK d   1      22.239  33.433  68.791  0.00  0.00    -0.271 OA
ATOM      9  H   UNK d   1      22.468  34.487  71.810  0.00  0.00     0.163 HD
BRANCH   7  10
ATOM     10  C   UNK d   1      22.468  35.704  69.378  0.00  0.00     0.244 C 
ATOM     11  O   UNK d   1      21.322  36.418  69.738  0.00  0.00    -0.331 OA
ATOM     12  C   UNK d   1      20.403  36.955  68.839  0.00  0.00     0.103 A 
ATOM     13  C   UNK d   1      20.822  37.116  67.545  0.00  0.00     0.102 A 
ATOM     14  C   UNK d   1      19.138  37.316  69.196  0.00  0.00     0.040 A 
ATOM     15  C   UNK d   1      19.922  37.652  66.623  0.00  0.00     0.039 A 
ATOM     16  O   UNK d   1      22.092  36.752  67.192  0.00  0.00    -0.345 OA
ATOM     17  C   UNK d   1      18.642  38.022  66.969  0.00  0.00     0.003 A 
ATOM     18  C   UNK d   1      18.256  37.845  68.283  0.00  0.00     0.003 A 
ATOM     19  C   UNK d   1      22.907  35.923  67.973  0.00  0.00     0.218 C 
ENDBRANCH   7  10
ENDBRANCH   5   6
ENDBRANCH   2   5
BRANCH   1  20
ATOM     20  N   UNK d   1      18.661  32.407  72.602  0.00  0.00    -0.166 NA
ATOM     21  C   UNK d   1      17.620  32.870  72.019  0.00  0.00     0.157 A 
ATOM     22  C   UNK d   1      16.217  32.514  72.179  0.00  0.00     0.029 A 
ATOM     23  C   UNK d   1      17.646  33.927  71.003  0.00  0.00     0.277 A 
ATOM     24  C   UNK d   1      15.413  33.271  71.344  0.00  0.00     0.065 A 
ATOM     25  C   UNK d   1      15.576  31.598  72.983  0.00  0.00     0.035 A 
ATOM     26  C   UNK d   1      14.042  33.124  71.311  0.00  0.00     0.040 A 
ATOM     27  N   UNK d   1      16.297  34.130  70.631  0.00  0.00    -0.320 N 
ATOM     28 Br   UNK d   1      12.944  34.181  70.153  0.00  0.00    -0.049 Br
ATOM     29  C   UNK d   1      13.421  32.187  72.137  0.00  0.00     0.040 A 
ATOM     30  C   UNK d   1      14.211  31.421  72.978  0.00  0.00     0.013 A 
ATOM     31 Br   UNK d   1      13.384  30.131  74.121  0.00  0.00    -0.051 Br
ATOM     32  H   UNK d   1      15.986  34.819  69.926  0.00  0.00     0.169 HD
ATOM     33  O   UNK d   1      18.700  34.487  70.599  0.00  0.00    -0.266 OA
ENDBRANCH   1  20
TORSDOF 4
ENDMDL
