/Users/jonathanwahrer/Desktop/Msc/3_Semester/Drug_Design_Praktikum/waehrer_HTS_screening/HTS_experiment/out/docking_results/vina_output/4x21/0693_docked.pdbqt
 OpenBabel03212201493D

 33 36  0  0  0  0  0  0  0  0999 V2000
   19.9520   32.8680   72.3250 N   0  0  0  0  0  0  0  0  0  0  0  0
   20.8590   31.9750   71.7120 C   0  0  0  0  0  0  0  0  0  0  0  0
   20.5070   30.8120   71.4280 O   0  0  0  0  0  0  0  0  0  0  0  0
   20.1760   33.8510   72.5900 H   0  0  0  0  0  0  0  0  0  0  0  0
   22.2640   32.3670   71.3770 C   0  0  0  0  0  2  0  0  0  0  0  0
   22.3720   33.7640   71.0580 N   0  0  0  0  0  0  0  0  0  0  0  0
   22.3540   34.2560   69.7250 C   0  0  0  0  0  0  0  0  0  0  0  0
   22.2390   33.4330   68.7910 O   0  0  0  0  0  0  0  0  0  0  0  0
   22.4680   34.4870   71.8100 H   0  0  0  0  0  0  0  0  0  0  0  0
   22.4680   35.7040   69.3780 C   0  0  0  0  0  0  0  0  0  0  0  0
   21.3220   36.4180   69.7380 O   0  0  0  0  0  0  0  0  0  0  0  0
   20.4030   36.9550   68.8390 C   0  0  0  0  0  0  0  0  0  0  0  0
   20.8220   37.1160   67.5450 C   0  0  0  0  0  0  0  0  0  0  0  0
   19.1380   37.3160   69.1960 C   0  0  0  0  0  3  0  0  0  0  0  0
   19.9220   37.6520   66.6230 C   0  0  0  0  0  3  0  0  0  0  0  0
   22.0920   36.7520   67.1920 O   0  0  0  0  0  0  0  0  0  0  0  0
   18.6420   38.0220   66.9690 C   0  0  0  0  0  3  0  0  0  0  0  0
   18.2560   37.8450   68.2830 C   0  0  0  0  0  3  0  0  0  0  0  0
   22.9070   35.9230   67.9730 C   0  0  0  0  0  3  0  0  0  0  0  0
   18.6610   32.4070   72.6020 N   0  0  0  0  0  0  0  0  0  0  0  0
   17.6200   32.8700   72.0190 C   0  0  0  0  0  0  0  0  0  0  0  0
   16.2170   32.5140   72.1790 C   0  0  0  0  0  0  0  0  0  0  0  0
   17.6460   33.9270   71.0030 C   0  0  0  0  0  0  0  0  0  0  0  0
   15.4130   33.2710   71.3440 C   0  0  0  0  0  0  0  0  0  0  0  0
   15.5760   31.5980   72.9830 C   0  0  0  0  0  3  0  0  0  0  0  0
   14.0420   33.1240   71.3110 C   0  0  0  0  0  0  0  0  0  0  0  0
   16.2970   34.1300   70.6310 N   0  0  0  0  0  0  0  0  0  0  0  0
   12.9440   34.1810   70.1530 Br  0  0  0  0  0  0  0  0  0  0  0  0
   13.4210   32.1870   72.1370 C   0  0  0  0  0  3  0  0  0  0  0  0
   14.2110   31.4210   72.9780 C   0  0  0  0  0  0  0  0  0  0  0  0
   13.3840   30.1310   74.1210 Br  0  0  0  0  0  0  0  0  0  0  0  0
   15.9860   34.8190   69.9260 H   0  0  0  0  0  0  0  0  0  0  0  0
   18.7000   34.4870   70.5990 O   0  0  0  0  0  0  0  0  0  0  0  0
  1  4  1  0  0  0  0
  1 20  1  0  0  0  0
  2  1  1  0  0  0  0
  3  2  2  0  0  0  0
  5  2  1  0  0  0  0
  6  5  1  0  0  0  0
  6  9  1  0  0  0  0
  7  6  1  0  0  0  0
  8  7  2  0  0  0  0
 10  7  1  0  0  0  0
 10 11  1  0  0  0  0
 12 14  1  0  0  0  0
 12 11  1  0  0  0  0
 13 12  2  0  0  0  0
 15 17  2  0  0  0  0
 15 13  1  0  0  0  0
 16 13  1  0  0  0  0
 16 19  1  0  0  0  0
 17 18  1  0  0  0  0
 18 14  2  0  0  0  0
 19 10  2  0  0  0  0
 21 22  1  0  0  0  0
 21 20  2  0  0  0  0
 22 25  1  0  0  0  0
 23 21  1  0  0  0  0
 24 22  2  0  0  0  0
 26 24  1  0  0  0  0
 26 29  2  0  0  0  0
 27 23  1  0  0  0  0
 27 24  1  0  0  0  0
 28 26  1  0  0  0  0
 29 30  1  0  0  0  0
 30 25  2  0  0  0  0
 30 31  1  0  0  0  0
 32 27  1  0  0  0  0
 33 23  2  0  0  0  0
M  END
>  <Pose>
1

>  <Score>
-9.039

$$$$
