/Users/jonathanwahrer/Desktop/Msc/3_Semester/Drug_Design_Praktikum/waehrer_HTS_screening/HTS_experiment/out/docking_results/vina_output/4x21/0695_docked.pdbqt
 OpenBabel03212201493D

 22 25  0  0  0  0  0  0  0  0999 V2000
   15.7050   37.1570   69.7910 C   0  0  0  0  0  2  0  0  0  0  0  0
   15.4520   35.8500   70.4480 C   0  0  0  0  0  0  0  0  0  0  0  0
   14.3290   35.0880   70.2240 C   0  0  0  0  0  3  0  0  0  0  0  0
   14.1150   33.8620   70.8580 C   0  0  0  0  0  0  0  0  0  0  0  0
   15.0390   33.3660   71.7440 C   0  0  0  0  0  0  0  0  0  0  0  0
   13.0830   32.9240   70.8010 O   0  0  0  0  0  0  0  0  0  0  0  0
   16.1680   34.1230   71.9760 C   0  0  0  0  0  0  0  0  0  0  0  0
   14.5600   32.1380   72.2150 O   0  0  0  0  0  0  0  0  0  0  0  0
   17.4600   33.4280   73.2170 Br  0  0  0  0  0  0  0  0  0  0  0  0
   16.3860   35.3350   71.3520 C   0  0  0  0  0  3  0  0  0  0  0  0
   13.6290   31.6670   71.2300 C   0  0  0  0  0  2  0  0  0  0  0  0
   17.0360   37.6080   70.1160 N   0  0  0  0  0  0  0  0  0  0  0  0
   17.2780   37.9700   71.0530 H   0  0  0  0  0  0  0  0  0  0  0  0
   18.0470   37.5470   69.0930 C   0  0  0  0  0  0  0  0  0  0  0  0
   17.8640   38.1340   67.9030 N   0  0  0  0  0  0  0  0  0  0  0  0
   18.8140   38.0720   66.9530 C   0  0  0  0  0  3  0  0  0  0  0  0
   20.0130   37.4010   67.1730 C   0  0  0  0  0  3  0  0  0  0  0  0
   20.1880   36.8190   68.3590 N   0  0  0  0  0  0  0  0  0  0  0  0
   19.2310   36.8800   69.3200 C   0  0  0  0  0  0  0  0  0  0  0  0
   21.1950   36.1070   68.8970 C   0  0  0  0  0  3  0  0  0  0  0  0
   19.6860   36.2110   70.3920 N   0  0  0  0  0  0  0  0  0  0  0  0
   20.8930   35.7320   70.1430 N   0  0  0  0  0  0  0  0  0  0  0  0
  1 12  1  0  0  0  0
  1  2  1  0  0  0  0
  2 10  1  0  0  0  0
  3  2  2  0  0  0  0
  3  4  1  0  0  0  0
  4  5  2  0  0  0  0
  5  7  1  0  0  0  0
  5  8  1  0  0  0  0
  6  4  1  0  0  0  0
  6 11  1  0  0  0  0
  7  9  1  0  0  0  0
 10  7  2  0  0  0  0
 11  8  1  0  0  0  0
 12 13  1  0  0  0  0
 14 19  1  0  0  0  0
 14 12  1  0  0  0  0
 15 14  2  0  0  0  0
 16 17  2  0  0  0  0
 16 15  1  0  0  0  0
 17 18  1  0  0  0  0
 18 20  1  0  0  0  0
 18 19  1  0  0  0  0
 19 21  2  0  0  0  0
 20 22  2  0  0  0  0
 22 21  1  0  0  0  0
M  END
>  <Pose>
1

>  <Score>
-7.662

$$$$
