/Users/jonathanwahrer/Desktop/Msc/3_Semester/Drug_Design_Praktikum/waehrer_HTS_screening/HTS_experiment/out/docking_results/vina_output/4x21/0699_docked.pdbqt
 OpenBabel03212201503D

 32 35  0  0  1  0  0  0  0  0999 V2000
   18.4180   30.0560   72.9380 C   0  0  2  0  0  3  0  0  0  0  0  0
   17.1550   30.4420   72.2100 C   0  0  0  0  0  2  0  0  0  0  0  0
   16.3460   31.3150   72.9740 O   0  0  0  0  0  0  0  0  0  0  0  0
   15.9000   32.4850   72.3620 C   0  0  0  0  0  0  0  0  0  0  0  0
   14.8400   32.4860   71.4770 C   0  0  0  0  0  0  0  0  0  0  0  0
   13.9870   30.8260   71.1070 Br  0  0  0  0  0  0  0  0  0  0  0  0
   14.3830   33.6330   70.8600 C   0  0  0  0  0  0  0  0  0  0  0  0
   14.9820   34.8500   71.1100 C   0  0  0  0  0  0  0  0  0  0  0  0
   13.3200   33.6270   69.9740 C   0  0  0  0  0  3  0  0  0  0  0  0
   16.0420   34.8600   71.9930 C   0  0  0  0  0  3  0  0  0  0  0  0
   14.5230   36.0010   70.4920 C   0  0  0  0  0  3  0  0  0  0  0  0
   16.4930   33.7070   72.6060 C   0  0  0  0  0  3  0  0  0  0  0  0
   13.4630   35.9930   69.6090 C   0  0  0  0  0  3  0  0  0  0  0  0
   12.8630   34.7750   69.3580 C   0  0  0  0  0  3  0  0  0  0  0  0
   18.2270   29.8570   74.2810 O   0  0  0  0  0  0  0  0  0  0  0  0
   18.0050   28.9440   74.5360 H   0  0  0  0  0  0  0  0  0  0  0  0
   19.5110   31.0280   72.6580 C   0  0  0  0  0  2  0  0  0  0  0  0
   19.0500   32.2870   72.1150 N   0  0  0  0  0  4  0  0  0  0  0  0
   19.3100   32.2500   70.6860 C   0  0  0  0  0  2  0  0  0  0  0  0
   19.1020   33.6220   70.0290 C   0  0  0  0  0  2  0  0  0  0  0  0
   19.9470   34.5670   70.6660 N   0  0  0  0  0  0  0  0  0  0  0  0
   20.7330   34.0320   71.7970 C   0  0  0  0  0  2  0  0  0  0  0  0
   20.0750   35.9120   70.3020 C   0  0  0  0  0  0  0  0  0  0  0  0
   19.7960   33.3650   72.7480 C   0  0  0  0  0  2  0  0  0  0  0  0
   20.9310   36.5780   71.0600 O   0  0  0  0  0  0  0  0  0  0  0  0
   18.0300   32.4530   72.2460 H   0  0  0  0  0  0  0  0  0  0  0  0
   19.4610   36.6930   69.2780 C   0  0  0  0  0  0  0  0  0  0  0  0
   18.2240   37.2700   69.3190 C   0  0  0  0  0  3  0  0  0  0  0  0
   17.6830   38.0200   68.2830 C   0  0  0  0  0  3  0  0  0  0  0  0
   18.3940   38.2180   67.1430 C   0  0  0  0  0  3  0  0  0  0  0  0
   19.6480   37.6480   67.0700 C   0  0  0  0  0  3  0  0  0  0  0  0
   20.1820   36.9060   68.0930 C   0  0  0  0  0  3  0  0  0  0  0  0
  1  2  1  1  0  0  0
  1 15  1  0  0  0  0
  2  3  1  0  0  0  0
  4 12  1  0  0  0  0
  4  3  1  0  0  0  0
  5  4  2  0  0  0  0
  6  5  1  0  0  0  0
  7  8  1  0  0  0  0
  7  5  1  0  0  0  0
  8 10  1  0  0  0  0
  9  7  2  0  0  0  0
 10 12  2  0  0  0  0
 11  8  2  0  0  0  0
 13 11  1  0  0  0  0
 14 13  2  0  0  0  0
 14  9  1  0  0  0  0
 15 16  1  0  0  0  0
 17  1  1  0  0  0  0
 18 26  1  0  0  0  0
 18 17  1  0  0  0  0
 18 24  1  0  0  0  0
 19 18  1  0  0  0  0
 20 21  1  0  0  0  0
 20 19  1  0  0  0  0
 21 22  1  0  0  0  0
 22 24  1  0  0  0  0
 23 21  1  0  0  0  0
 23 25  2  0  0  0  0
 27 28  1  0  0  0  0
 27 23  1  0  0  0  0
 29 28  2  0  0  0  0
 30 29  1  0  0  0  0
 31 30  2  0  0  0  0
 31 32  1  0  0  0  0
 32 27  2  0  0  0  0
M  END
>  <Pose>
1

>  <Score>
-9.402

$$$$
