MODEL 1
REMARK VINA RESULT:    -9.402      0.000      0.000
REMARK INTER + INTRA:         -13.541
REMARK INTER:                 -12.975
REMARK INTRA:                  -0.565
REMARK UNBOUND:                -0.565
REMARK  7 active torsions:
REMARK  status: ('A' for Active; 'I' for Inactive)
REMARK    1  A    between atoms: C_7  and  O_8 
REMARK    2  A    between atoms: O_8  and  C_9 
REMARK    3  A    between atoms: C_9  and  C_10 
REMARK    4  A    between atoms: C_10  and  O_11 
REMARK    5  A    between atoms: C_10  and  C_12 
REMARK    6  A    between atoms: C_12  and  N_13 
REMARK       I    between atoms: N_16  and  C_19 
REMARK    7  A    between atoms: C_19  and  C_21 
ROOT
ATOM      1  C   UNK d   1      18.418  30.056  72.938  0.00  0.00     0.168 C 
ENDROOT
BRANCH   1   2
ATOM      2  C   UNK d   1      17.155  30.442  72.210  0.00  0.00     0.209 C 
BRANCH   2   3
ATOM      3  O   UNK d   1      16.346  31.315  72.974  0.00  0.00    -0.347 OA
BRANCH   3   4
ATOM      4  C   UNK d   1      15.900  32.485  72.362  0.00  0.00     0.087 A 
ATOM      5  C   UNK d   1      14.840  32.486  71.477  0.00  0.00     0.055 A 
ATOM      6 Br   UNK d   1      13.987  30.826  71.107  0.00  0.00    -0.047 Br
ATOM      7  C   UNK d   1      14.383  33.633  70.860  0.00  0.00    -0.006 A 
ATOM      8  C   UNK d   1      14.982  34.850  71.110  0.00  0.00    -0.024 A 
ATOM      9  C   UNK d   1      13.320  33.627  69.974  0.00  0.00     0.014 A 
ATOM     10  C   UNK d   1      16.042  34.860  71.993  0.00  0.00     0.015 A 
ATOM     11  C   UNK d   1      14.523  36.001  70.492  0.00  0.00     0.012 A 
ATOM     12  C   UNK d   1      16.493  33.707  72.606  0.00  0.00     0.039 A 
ATOM     13  C   UNK d   1      13.463  35.993  69.609  0.00  0.00     0.001 A 
ATOM     14  C   UNK d   1      12.863  34.775  69.358  0.00  0.00     0.001 A 
ENDBRANCH   3   4
ENDBRANCH   2   3
ENDBRANCH   1   2
BRANCH   1  15
ATOM     15  O   UNK d   1      18.227  29.857  74.281  0.00  0.00    -0.392 OA
ATOM     16  H   UNK d   1      18.005  28.944  74.536  0.00  0.00     0.210 HD
ENDBRANCH   1  15
BRANCH   1  17
ATOM     17  C   UNK d   1      19.511  31.028  72.658  0.00  0.00     0.268 C 
BRANCH  17  18
ATOM     18  N   UNK d   1      19.050  32.287  72.115  0.00  0.00    -0.066 N 
ATOM     19  C   UNK d   1      19.310  32.250  70.686  0.00  0.00     0.254 C 
ATOM     20  C   UNK d   1      19.102  33.622  70.029  0.00  0.00     0.152 C 
ATOM     21  N   UNK d   1      19.947  34.567  70.666  0.00  0.00    -0.356 N 
ATOM     22  C   UNK d   1      20.733  34.032  71.797  0.00  0.00     0.152 C 
ATOM     23  C   UNK d   1      20.075  35.912  70.302  0.00  0.00     0.187 C 
ATOM     24  C   UNK d   1      19.796  33.365  72.748  0.00  0.00     0.254 C 
ATOM     25  O   UNK d   1      20.931  36.578  71.060  0.00  0.00    -0.171 OA
ATOM     26  H   UNK d   1      18.030  32.453  72.246  0.00  0.00     0.280 HD
BRANCH  23  27
ATOM     27  C   UNK d   1      19.461  36.693  69.278  0.00  0.00     0.018 A 
ATOM     28  C   UNK d   1      18.224  37.270  69.319  0.00  0.00     0.016 A 
ATOM     29  C   UNK d   1      17.683  38.020  68.283  0.00  0.00     0.001 A 
ATOM     30  C   UNK d   1      18.394  38.218  67.143  0.00  0.00     0.000 A 
ATOM     31  C   UNK d   1      19.648  37.648  67.070  0.00  0.00     0.001 A 
ATOM     32  C   UNK d   1      20.182  36.906  68.093  0.00  0.00     0.016 A 
ENDBRANCH  23  27
ENDBRANCH  17  18
ENDBRANCH   1  17
TORSDOF 7
ENDMDL
