MODEL 1
REMARK VINA RESULT:    -8.639      0.000      0.000
REMARK INTER + INTRA:         -10.771
REMARK INTER:                 -10.155
REMARK INTRA:                  -0.616
REMARK UNBOUND:                -0.616
REMARK  3 active torsions:
REMARK  status: ('A' for Active; 'I' for Inactive)
REMARK    1  A    between atoms: N_3  and  C_15 
REMARK    2  A    between atoms: C_15  and  C_16 
REMARK    3  A    between atoms: C_16  and  N_17 
ROOT
ATOM      1  C   UNK d   1      21.870  36.023  68.939  0.00  0.00     0.152 C 
ENDROOT
BRANCH   1   2
ATOM      2  N   UNK d   1      20.884  35.356  69.721  0.00  0.00    -0.316 N 
ATOM      3  C   UNK d   1      21.123  34.205  70.377  0.00  0.00     0.180 A 
ATOM      4 Br   UNK d   1      22.781  33.221  70.434  0.00  0.00    -0.008 Br
ATOM      5  N   UNK d   1      19.976  33.867  70.992  0.00  0.00    -0.203 NA
ATOM      6  C   UNK d   1      19.028  34.778  70.735  0.00  0.00     0.169 A 
ATOM      7  C   UNK d   1      19.611  35.730  69.921  0.00  0.00     0.152 A 
ATOM      8  N   UNK d   1      17.733  34.927  71.083  0.00  0.00    -0.286 N 
ATOM      9  C   UNK d   1      18.806  36.775  69.521  0.00  0.00     0.282 A 
ATOM     10  N   UNK d   1      17.516  36.915  69.874  0.00  0.00    -0.269 N 
ATOM     11  O   UNK d   1      19.312  37.645  68.783  0.00  0.00    -0.265 OA
ATOM     12  C   UNK d   1      16.980  35.970  70.668  0.00  0.00     0.332 A 
ATOM     13  C   UNK d   1      16.688  38.024  69.441  0.00  0.00     0.164 C 
ATOM     14  O   UNK d   1      15.767  36.073  71.018  0.00  0.00    -0.246 OA
ATOM     15  C   UNK d   1      17.131  33.924  71.937  0.00  0.00     0.163 C 
ENDBRANCH   1   2
BRANCH   1  16
ATOM     16  C   UNK d   1      21.754  35.919  67.462  0.00  0.00     0.152 C 
BRANCH  16  17
ATOM     17  N   UNK d   1      22.915  36.206  66.689  0.00  0.00    -0.316 N 
ATOM     18  C   UNK d   1      23.219  37.410  66.142  0.00  0.00     0.152 A 
ATOM     19  C   UNK d   1      24.407  37.312  65.461  0.00  0.00     0.169 A 
ATOM     20  C   UNK d   1      22.600  38.653  66.135  0.00  0.00     0.282 A 
ATOM     21  N   UNK d   1      24.797  36.036  65.616  0.00  0.00    -0.203 NA
ATOM     22  N   UNK d   1      24.977  38.358  64.804  0.00  0.00    -0.286 N 
ATOM     23  C   UNK d   1      23.900  35.368  66.354  0.00  0.00     0.180 A 
ATOM     24 Br   UNK d   1      23.962  33.513  66.875  0.00  0.00    -0.008 Br
ATOM     25  C   UNK d   1      24.317  39.529  64.843  0.00  0.00     0.332 A 
ATOM     26  C   UNK d   1      26.240  38.218  64.091  0.00  0.00     0.163 C 
ATOM     27  O   UNK d   1      24.835  40.507  64.238  0.00  0.00    -0.246 OA
ATOM     28  N   UNK d   1      23.151  39.683  65.494  0.00  0.00    -0.269 N 
ATOM     29  C   UNK d   1      22.481  40.966  65.507  0.00  0.00     0.164 C 
ATOM     30  O   UNK d   1      21.511  38.730  66.763  0.00  0.00    -0.265 OA
ENDBRANCH  16  17
ENDBRANCH   1  16
TORSDOF 3
ENDMDL
