MODEL 1
REMARK VINA RESULT:    -8.484      0.000      0.000
REMARK INTER + INTRA:         -10.603
REMARK INTER:                  -9.971
REMARK INTRA:                  -0.632
REMARK UNBOUND:                -0.632
REMARK  3 active torsions:
REMARK  status: ('A' for Active; 'I' for Inactive)
REMARK    1  A    between atoms: N_3  and  C_14 
REMARK    2  A    between atoms: C_14  and  C_15 
REMARK    3  A    between atoms: C_15  and  N_16 
ROOT
ATOM      1  C   UNK d   1      20.668  36.742  69.045  0.00  0.00     0.152 C 
ENDROOT
BRANCH   1   2
ATOM      2  N   UNK d   1      19.606  36.160  69.792  0.00  0.00    -0.316 N 
ATOM      3  C   UNK d   1      19.729  35.105  70.632  0.00  0.00     0.180 A 
ATOM      4 Br   UNK d   1      21.393  34.228  70.963  0.00  0.00    -0.008 Br
ATOM      5  N   UNK d   1      18.528  34.812  71.154  0.00  0.00    -0.203 NA
ATOM      6  C   UNK d   1      17.596  35.663  70.672  0.00  0.00     0.169 A 
ATOM      7  C   UNK d   1      18.298  36.506  69.814  0.00  0.00     0.152 A 
ATOM      8  N   UNK d   1      16.271  35.807  70.856  0.00  0.00    -0.286 N 
ATOM      9  C   UNK d   1      17.555  37.472  69.179  0.00  0.00     0.280 A 
ATOM     10  N   UNK d   1      16.217  37.612  69.368  0.00  0.00    -0.273 N 
ATOM     11  O   UNK d   1      18.179  38.243  68.392  0.00  0.00    -0.265 OA
ATOM     12  C   UNK d   1      15.591  36.771  70.210  0.00  0.00     0.330 A 
ATOM     13  H   UNK d   1      15.710  38.367  68.857  0.00  0.00     0.173 HD
ATOM     14  O   UNK d   1      14.339  36.914  70.379  0.00  0.00    -0.246 OA
ATOM     15  C   UNK d   1      15.536  34.937  71.745  0.00  0.00     0.163 C 
ENDBRANCH   1   2
BRANCH   1  16
ATOM     16  C   UNK d   1      20.858  36.263  67.651  0.00  0.00     0.152 C 
BRANCH  16  17
ATOM     17  N   UNK d   1      22.113  36.486  67.025  0.00  0.00    -0.316 N 
ATOM     18  C   UNK d   1      22.538  37.601  66.408  0.00  0.00     0.152 A 
ATOM     19  C   UNK d   1      23.815  37.393  65.930  0.00  0.00     0.169 A 
ATOM     20  C   UNK d   1      21.989  38.852  66.171  0.00  0.00     0.280 A 
ATOM     21  N   UNK d   1      24.116  36.129  66.292  0.00  0.00    -0.203 NA
ATOM     22  N   UNK d   1      24.456  38.364  65.281  0.00  0.00    -0.286 N 
ATOM     23  C   UNK d   1      23.114  35.559  66.951  0.00  0.00     0.180 A 
ATOM     24 Br   UNK d   1      23.049  33.775  67.676  0.00  0.00    -0.008 Br
ATOM     25  C   UNK d   1      23.872  39.548  65.084  0.00  0.00     0.330 A 
ATOM     26  C   UNK d   1      25.793  38.159  64.775  0.00  0.00     0.163 C 
ATOM     27  O   UNK d   1      24.459  40.496  64.464  0.00  0.00    -0.246 OA
ATOM     28  N   UNK d   1      22.630  39.829  65.518  0.00  0.00    -0.273 N 
ATOM     29  H   UNK d   1      22.199  40.774  65.345  0.00  0.00     0.173 HD
ATOM     30  O   UNK d   1      20.835  39.105  66.581  0.00  0.00    -0.265 OA
ENDBRANCH  16  17
ENDBRANCH   1  16
TORSDOF 3
ENDMDL
