/Users/jonathanwahrer/Desktop/Msc/3_Semester/Drug_Design_Praktikum/waehrer_HTS_screening/HTS_experiment/out/docking_results/vina_output/4x21/0716_docked.pdbqt
 OpenBabel03212201513D

 31 35  0  0  1  0  0  0  0  0999 V2000
   17.0310   33.5190   71.4470 C   0  0  1  0  0  0  0  0  0  0  0  0
   18.0960   34.1160   70.5560 C   0  0  0  0  0  2  0  0  0  0  0  0
   19.4500   33.6850   71.0380 C   0  0  2  0  0  0  0  0  0  0  0  0
   19.5180   32.1670   70.8160 C   0  0  0  0  0  2  0  0  0  0  0  0
   18.4050   31.5150   71.5960 C   0  0  2  0  0  3  0  0  0  0  0  0
   17.0400   32.0240   71.2080 C   0  0  0  0  0  2  0  0  0  0  0  0
   18.6460   31.7420   73.0540 C   0  0  0  0  0  2  0  0  0  0  0  0
   18.6240   33.2310   73.3190 C   0  0  2  0  0  3  0  0  0  0  0  0
   17.2920   33.7580   72.9010 C   0  0  0  0  0  2  0  0  0  0  0  0
   19.6890   33.9180   72.4930 C   0  0  0  0  0  2  0  0  0  0  0  0
   20.5330   34.3270   70.2620 C   0  0  0  0  0  0  0  0  0  0  0  0
   21.3050   35.1140   70.8660 O   0  0  0  0  0  0  0  0  0  0  0  0
   20.6950   34.0610   68.8720 N   0  0  0  0  0  0  0  0  0  0  0  0
   20.0170   33.4010   68.4480 H   0  0  0  0  0  0  0  0  0  0  0  0
   21.7010   34.6290   68.0480 C   0  0  0  0  0  0  0  0  0  0  0  0
   21.6720   35.9050   67.5600 C   0  0  0  0  0  0  0  0  0  0  0  0
   22.7950   36.0760   66.8220 N   0  0  0  0  0  0  0  0  0  0  0  0
   23.4930   34.9610   66.8470 N   0  0  0  0  0  0  0  0  0  0  0  0
   23.2120   37.2670   66.1030 C   0  0  0  0  0  1  0  0  0  0  0  0
   22.8620   34.0420   67.5860 C   0  0  0  0  0  3  0  0  0  0  0  0
   20.6990   36.9660   67.7220 C   0  0  0  0  0  0  0  0  0  0  0  0
   20.6320   37.6330   68.7840 O   0  0  0  0  0  0  0  0  0  0  0  0
   19.7620   37.3280   66.7160 N   0  0  0  0  0  0  0  0  0  0  0  0
   19.9740   38.1860   66.1300 H   0  0  0  0  0  0  0  0  0  0  0  0
   18.8810   36.8190   66.5090 H   0  0  0  0  0  0  0  0  0  0  0  0
   15.7350   34.1050   71.1100 N   0  0  0  0  0  0  0  0  0  0  0  0
   15.5040   35.1770   70.3610 N   0  0  0  0  0  0  0  0  0  0  0  0
   14.1840   35.4180   70.2700 C   0  0  0  0  0  0  0  0  0  0  0  0
   13.3140   36.8360   69.3150 Br  0  0  0  0  0  0  0  0  0  0  0  0
   13.5610   34.4580   70.9910 N   0  0  0  0  0  0  0  0  0  0  0  0
   14.5220   33.6680   71.4930 C   0  0  0  0  0  3  0  0  0  0  0  0
  1  2  1  6  0  0  0
  1  9  1  0  0  0  0
  2  3  1  0  0  0  0
  3 11  1  6  0  0  0
  3 10  1  0  0  0  0
  4  3  1  0  0  0  0
  5  4  1  6  0  0  0
  5  7  1  0  0  0  0
  6  1  1  0  0  0  0
  6  5  1  0  0  0  0
  7  8  1  0  0  0  0
  8 10  1  6  0  0  0
  9  8  1  0  0  0  0
 11 12  2  0  0  0  0
 13 11  1  0  0  0  0
 14 13  1  0  0  0  0
 15 13  1  0  0  0  0
 16 21  1  0  0  0  0
 16 15  2  0  0  0  0
 17 18  1  0  0  0  0
 17 16  1  0  0  0  0
 18 20  2  0  0  0  0
 19 17  1  0  0  0  0
 20 15  1  0  0  0  0
 21 22  2  0  0  0  0
 23 21  1  0  0  0  0
 24 23  1  0  0  0  0
 25 23  1  0  0  0  0
 26  1  1  0  0  0  0
 26 31  1  0  0  0  0
 27 26  1  0  0  0  0
 28 27  2  0  0  0  0
 28 30  1  0  0  0  0
 29 28  1  0  0  0  0
 30 31  2  0  0  0  0
M  END
>  <Pose>
1

>  <Score>
-8.588

$$$$
