MODEL 1
REMARK VINA RESULT:    -6.287      0.000      0.000
REMARK INTER + INTRA:          -7.310
REMARK INTER:                  -7.022
REMARK INTRA:                  -0.289
REMARK UNBOUND:                -0.289
REMARK  2 active torsions:
REMARK  status: ('A' for Active; 'I' for Inactive)
REMARK    1  A    between atoms: C_9  and  N_11 
REMARK    2  A    between atoms: C_12  and  C_17 
ROOT
ATOM      1  N   UNK d   1      23.894  36.925  68.249  0.00  0.00    -0.348 N 
ATOM      2  C   UNK d   1      23.505  37.457  66.981  0.00  0.00     0.189 C 
ATOM      3  C   UNK d   1      24.326  36.956  65.855  0.00  0.00     0.201 C 
ATOM      4  O   UNK d   1      25.447  36.237  66.168  0.00  0.00    -0.387 OA
ATOM      5  C   UNK d   1      26.097  36.707  67.304  0.00  0.00     0.187 C 
ATOM      6  C   UNK d   1      25.254  36.583  68.533  0.00  0.00     0.151 C 
ENDROOT
BRANCH   1   7
ATOM      7  C   UNK d   1      22.950  36.723  69.311  0.00  0.00     0.145 A 
ATOM      8  N   UNK d   1      22.612  37.789  70.101  0.00  0.00    -0.223 NA
ATOM      9  C   UNK d   1      21.694  37.669  71.076  0.00  0.00     0.237 A 
ATOM     10  N   UNK d   1      21.080  36.494  71.301  0.00  0.00    -0.222 NA
ATOM     11  C   UNK d   1      21.359  35.409  70.570  0.00  0.00     0.164 A 
ATOM     12  N   UNK d   1      20.892  34.149  70.625  0.00  0.00    -0.255 N 
ATOM     13  C   UNK d   1      22.317  35.537  69.556  0.00  0.00     0.095 A 
ATOM     14  N   UNK d   1      21.522  33.484  69.684  0.00  0.00    -0.163 NA
ATOM     15  C   UNK d   1      19.894  33.612  71.530  0.00  0.00     0.182 C 
ATOM     16  C   UNK d   1      22.390  34.276  69.016  0.00  0.00     0.141 A 
ATOM     17 Br   UNK d   1      23.557  33.770  67.599  0.00  0.00    -0.026 Br
ENDBRANCH   1   7
BRANCH   2  18
ATOM     18  C   UNK d   1      22.048  37.325  66.756  0.00  0.00     0.198 A 
ATOM     19  N   UNK d   1      21.117  38.214  67.107  0.00  0.00    -0.207 NA
ATOM     20  C   UNK d   1      19.920  37.692  66.713  0.00  0.00     0.152 A 
ATOM     21  N   UNK d   1      20.190  36.506  66.140  0.00  0.00    -0.112 NA
ATOM     22  C   UNK d   1      18.579  38.300  66.877  0.00  0.00     0.096 C 
ATOM     23  O   UNK d   1      21.476  36.309  66.179  0.00  0.00    -0.194 OA
ENDBRANCH   2  18
TORSDOF 2
ENDMDL
