/Users/jonathanwahrer/Desktop/Msc/3_Semester/Drug_Design_Praktikum/waehrer_HTS_screening/HTS_experiment/out/docking_results/vina_output/4x21/0723_docked.pdbqt
 OpenBabel03212201513D

 23 26  0  0  1  0  0  0  0  0999 V2000
   23.8940   36.9250   68.2490 N   0  0  0  0  0  0  0  0  0  0  0  0
   23.5050   37.4570   66.9810 C   0  0  1  0  0  3  0  0  0  0  0  0
   24.3260   36.9560   65.8550 C   0  0  0  0  0  2  0  0  0  0  0  0
   25.4470   36.2370   66.1680 O   0  0  0  0  0  0  0  0  0  0  0  0
   26.0970   36.7070   67.3040 C   0  0  0  0  0  2  0  0  0  0  0  0
   25.2540   36.5830   68.5330 C   0  0  0  0  0  2  0  0  0  0  0  0
   22.9500   36.7230   69.3110 C   0  0  0  0  0  0  0  0  0  0  0  0
   22.6120   37.7890   70.1010 N   0  0  0  0  0  0  0  0  0  0  0  0
   21.6940   37.6690   71.0760 C   0  0  0  0  0  3  0  0  0  0  0  0
   21.0800   36.4940   71.3010 N   0  0  0  0  0  0  0  0  0  0  0  0
   21.3590   35.4090   70.5700 C   0  0  0  0  0  0  0  0  0  0  0  0
   20.8920   34.1490   70.6250 N   0  0  0  0  0  0  0  0  0  0  0  0
   22.3170   35.5370   69.5560 C   0  0  0  0  0  0  0  0  0  0  0  0
   21.5220   33.4840   69.6840 N   0  0  0  0  0  0  0  0  0  0  0  0
   19.8940   33.6120   71.5300 C   0  0  0  0  0  1  0  0  0  0  0  0
   22.3900   34.2760   69.0160 C   0  0  0  0  0  0  0  0  0  0  0  0
   23.5570   33.7700   67.5990 Br  0  0  0  0  0  0  0  0  0  0  0  0
   22.0480   37.3250   66.7560 C   0  0  0  0  0  0  0  0  0  0  0  0
   21.1170   38.2140   67.1070 N   0  0  0  0  0  0  0  0  0  0  0  0
   19.9200   37.6920   66.7130 C   0  0  0  0  0  0  0  0  0  0  0  0
   20.1900   36.5060   66.1400 N   0  0  0  0  0  0  0  0  0  0  0  0
   18.5790   38.3000   66.8770 C   0  0  0  0  0  1  0  0  0  0  0  0
   21.4760   36.3090   66.1790 O   0  0  0  0  0  0  0  0  0  0  0  0
  1  6  1  0  0  0  0
  1  7  1  0  0  0  0
  2 18  1  6  0  0  0
  2  1  1  0  0  0  0
  3  4  1  0  0  0  0
  3  2  1  0  0  0  0
  4  5  1  0  0  0  0
  5  6  1  0  0  0  0
  7 13  2  0  0  0  0
  7  8  1  0  0  0  0
  8  9  2  0  0  0  0
  9 10  1  0  0  0  0
 11 12  1  0  0  0  0
 11 10  2  0  0  0  0
 12 15  1  0  0  0  0
 13 11  1  0  0  0  0
 14 12  1  0  0  0  0
 16 13  1  0  0  0  0
 16 14  2  0  0  0  0
 17 16  1  0  0  0  0
 18 19  2  0  0  0  0
 20 22  1  0  0  0  0
 20 19  1  0  0  0  0
 21 23  1  0  0  0  0
 21 20  2  0  0  0  0
 23 18  1  0  0  0  0
M  END
>  <Pose>
1

>  <Score>
-6.287

$$$$
