/Users/jonathanwahrer/Desktop/Msc/3_Semester/Drug_Design_Praktikum/waehrer_HTS_screening/HTS_experiment/out/docking_results/vina_output/4x21/0727_docked.pdbqt
 OpenBabel03212201513D

 21 24  0  0  0  0  0  0  0  0999 V2000
   20.4300   34.9820   71.3490 Br  0  0  0  0  0  0  0  0  0  0  0  0
   19.2830   36.0290   70.2480 C   0  0  0  0  0  0  0  0  0  0  0  0
   17.9890   36.3610   70.5280 N   0  0  0  0  0  0  0  0  0  0  0  0
   17.5260   37.1060   69.5530 N   0  0  0  0  0  0  0  0  0  0  0  0
   18.4780   37.2850   68.6220 C   0  0  0  0  0  0  0  0  0  0  0  0
   18.5280   37.9570   67.4610 N   0  0  0  0  0  0  0  0  0  0  0  0
   19.6270   37.9860   66.7120 C   0  0  0  0  0  3  0  0  0  0  0  0
   20.7150   37.3340   67.1120 N   0  0  0  0  0  0  0  0  0  0  0  0
   20.7720   36.6160   68.2820 C   0  0  0  0  0  0  0  0  0  0  0  0
   19.6300   36.5990   69.0420 C   0  0  0  0  0  0  0  0  0  0  0  0
   16.1860   37.6960   69.4210 C   0  0  0  0  0  1  0  0  0  0  0  0
   21.9240   35.9150   68.6390 N   0  0  0  0  0  0  0  0  0  0  0  0
   22.1510   34.5610   68.1840 C   0  0  0  0  0  2  0  0  0  0  0  0
   23.2710   34.6180   67.1240 C   0  0  0  0  0  2  0  0  0  0  0  0
   24.2740   35.6270   67.5270 C   0  0  0  0  0  0  0  0  0  0  0  0
   25.4630   35.8730   66.9300 N   0  0  0  0  0  0  0  0  0  0  0  0
   24.1860   36.4930   68.5750 C   0  0  0  0  0  0  0  0  0  0  0  0
   26.0650   36.8640   67.6100 C   0  0  0  0  0  3  0  0  0  0  0  0
   26.0320   35.2270   65.7760 C   0  0  0  0  0  1  0  0  0  0  0  0
   25.2980   37.2590   68.6240 N   0  0  0  0  0  0  0  0  0  0  0  0
   22.9820   36.4740   69.4410 C   0  0  0  0  0  2  0  0  0  0  0  0
  2  3  2  0  0  0  0
  2  1  1  0  0  0  0
  4  3  1  0  0  0  0
  5 10  1  0  0  0  0
  5  4  1  0  0  0  0
  6  5  2  0  0  0  0
  7  8  2  0  0  0  0
  7  6  1  0  0  0  0
  8  9  1  0  0  0  0
  9 12  1  0  0  0  0
  9 10  2  0  0  0  0
 10  2  1  0  0  0  0
 11  4  1  0  0  0  0
 12 21  1  0  0  0  0
 13 12  1  0  0  0  0
 14 15  1  0  0  0  0
 14 13  1  0  0  0  0
 15 17  2  0  0  0  0
 16 15  1  0  0  0  0
 16 18  1  0  0  0  0
 17 20  1  0  0  0  0
 17 21  1  0  0  0  0
 18 20  2  0  0  0  0
 19 16  1  0  0  0  0
M  END
>  <Pose>
1

>  <Score>
-6.738

$$$$
