MODEL 1
REMARK VINA RESULT:    -6.738      0.000      0.000
REMARK INTER + INTRA:          -7.460
REMARK INTER:                  -7.132
REMARK INTRA:                  -0.327
REMARK UNBOUND:                -0.327
REMARK  1 active torsions:
REMARK  status: ('A' for Active; 'I' for Inactive)
REMARK    1  A    between atoms: C_9  and  N_11 
ROOT
ATOM      1 Br   UNK d   1      20.430  34.982  71.349  0.00  0.00    -0.026 Br
ATOM      2  C   UNK d   1      19.283  36.029  70.248  0.00  0.00     0.141 A 
ATOM      3  N   UNK d   1      17.989  36.361  70.528  0.00  0.00    -0.163 NA
ATOM      4  N   UNK d   1      17.526  37.106  69.553  0.00  0.00    -0.255 N 
ATOM      5  C   UNK d   1      18.478  37.285  68.622  0.00  0.00     0.164 A 
ATOM      6  N   UNK d   1      18.528  37.957  67.461  0.00  0.00    -0.222 NA
ATOM      7  C   UNK d   1      19.627  37.986  66.712  0.00  0.00     0.237 A 
ATOM      8  N   UNK d   1      20.715  37.334  67.112  0.00  0.00    -0.223 NA
ATOM      9  C   UNK d   1      20.772  36.616  68.282  0.00  0.00     0.144 A 
ATOM     10  C   UNK d   1      19.630  36.599  69.042  0.00  0.00     0.095 A 
ATOM     11  C   UNK d   1      16.186  37.696  69.421  0.00  0.00     0.182 C 
ENDROOT
BRANCH   9  12
ATOM     12  N   UNK d   1      21.924  35.915  68.639  0.00  0.00    -0.359 N 
ATOM     13  C   UNK d   1      22.151  34.561  68.184  0.00  0.00     0.131 C 
ATOM     14  C   UNK d   1      23.271  34.618  67.124  0.00  0.00     0.079 C 
ATOM     15  C   UNK d   1      24.274  35.627  67.527  0.00  0.00     0.040 A 
ATOM     16  N   UNK d   1      25.463  35.873  66.930  0.00  0.00    -0.347 N 
ATOM     17  C   UNK d   1      24.186  36.493  68.575  0.00  0.00     0.076 A 
ATOM     18  C   UNK d   1      26.065  36.864  67.610  0.00  0.00     0.209 A 
ATOM     19  C   UNK d   1      26.032  35.227  65.776  0.00  0.00     0.157 C 
ATOM     20  N   UNK d   1      25.298  37.259  68.624  0.00  0.00    -0.245 NA
ATOM     21  C   UNK d   1      22.982  36.474  69.441  0.00  0.00     0.185 C 
ENDBRANCH   9  12
TORSDOF 1
ENDMDL
