MODEL 1
REMARK VINA RESULT:    -8.669      0.000      0.000
REMARK INTER + INTRA:         -10.530
REMARK INTER:                 -10.189
REMARK INTRA:                  -0.341
REMARK UNBOUND:                -0.341
REMARK  3 active torsions:
REMARK  status: ('A' for Active; 'I' for Inactive)
REMARK    1  A    between atoms: C_9  and  N_11 
REMARK    2  A    between atoms: N_14  and  C_17 
REMARK    3  A    between atoms: C_17  and  C_19 
REMARK       I    between atoms: C_19  and  N_21 
ROOT
ATOM      1  N   UNK d   1      19.741  34.178  71.071  0.00  0.00    -0.362 N 
ATOM      2  C   UNK d   1      19.335  32.908  70.540  0.00  0.00     0.154 C 
ATOM      3  C   UNK d   1      17.836  32.813  70.839  0.00  0.00     0.293 C 
ATOM      4  N   UNK d   1      17.459  33.735  71.915  0.00  0.00     0.103 N 
ATOM      5  C   UNK d   1      18.460  33.675  72.984  0.00  0.00     0.293 C 
ATOM      6  C   UNK d   1      19.764  34.288  72.509  0.00  0.00     0.154 C 
ENDROOT
BRANCH   1   7
ATOM      7  C   UNK d   1      20.064  35.254  70.237  0.00  0.00     0.144 A 
ATOM      8  N   UNK d   1      19.160  36.222  69.955  0.00  0.00    -0.223 NA
ATOM      9  C   UNK d   1      19.425  37.238  69.143  0.00  0.00     0.237 A 
ATOM     10  N   UNK d   1      20.630  37.319  68.572  0.00  0.00    -0.222 NA
ATOM     11  C   UNK d   1      21.594  36.407  68.791  0.00  0.00     0.164 A 
ATOM     12  N   UNK d   1      22.860  36.282  68.349  0.00  0.00    -0.255 N 
ATOM     13  C   UNK d   1      21.317  35.342  69.643  0.00  0.00     0.095 A 
ATOM     14  N   UNK d   1      23.357  35.203  68.890  0.00  0.00    -0.163 NA
ATOM     15  C   UNK d   1      23.475  37.233  67.434  0.00  0.00     0.182 C 
ATOM     16  C   UNK d   1      22.467  34.588  69.689  0.00  0.00     0.141 A 
ATOM     17 Br   UNK d   1      22.696  33.011  70.716  0.00  0.00    -0.026 Br
ENDBRANCH   1   7
BRANCH   4  18
ATOM     18  C   UNK d   1      16.195  33.250  72.447  0.00  0.00     0.296 C 
ATOM     19  C   UNK d   1      16.435  31.784  72.903  0.00  0.00     0.052 C 
BRANCH  18  20
ATOM     20  C   UNK d   1      15.145  33.250  71.413  0.00  0.00     0.186 C 
ATOM     21  O   UNK d   1      14.467  32.141  71.365  0.00  0.00    -0.175 OA
ATOM     22  N   UNK d   1      14.806  34.266  70.505  0.00  0.00    -0.361 N 
ATOM     23  C   UNK d   1      15.415  35.550  70.333  0.00  0.00     0.124 C 
ATOM     24  C   UNK d   1      13.679  33.990  69.585  0.00  0.00     0.124 C 
ATOM     25  C   UNK d   1      14.431  36.695  70.201  0.00  0.00     0.020 C 
ATOM     26  C   UNK d   1      13.175  36.349  69.479  0.00  0.00     0.003 C 
ATOM     27  C   UNK d   1      12.616  35.008  69.904  0.00  0.00     0.020 C 
ENDBRANCH  18  20
ENDBRANCH   4  18
TORSDOF 3
ENDMDL
