/Users/jonathanwahrer/Desktop/Msc/3_Semester/Drug_Design_Praktikum/waehrer_HTS_screening/HTS_experiment/out/docking_results/vina_output/4x21/0729_docked.pdbqt
 OpenBabel03212201513D

 27 30  0  0  1  0  0  0  0  0999 V2000
   19.7410   34.1780   71.0710 N   0  0  0  0  0  0  0  0  0  0  0  0
   19.3350   32.9080   70.5400 C   0  0  0  0  0  2  0  0  0  0  0  0
   17.8360   32.8130   70.8390 C   0  0  0  0  0  2  0  0  0  0  0  0
   17.4590   33.7350   71.9150 N   0  0  0  0  0  0  0  0  0  0  0  0
   18.4600   33.6750   72.9840 C   0  0  0  0  0  2  0  0  0  0  0  0
   19.7640   34.2880   72.5090 C   0  0  0  0  0  2  0  0  0  0  0  0
   20.0640   35.2540   70.2370 C   0  0  0  0  0  0  0  0  0  0  0  0
   19.1600   36.2220   69.9550 N   0  0  0  0  0  0  0  0  0  0  0  0
   19.4250   37.2380   69.1430 C   0  0  0  0  0  3  0  0  0  0  0  0
   20.6300   37.3190   68.5720 N   0  0  0  0  0  0  0  0  0  0  0  0
   21.5940   36.4070   68.7910 C   0  0  0  0  0  0  0  0  0  0  0  0
   22.8600   36.2820   68.3490 N   0  0  0  0  0  0  0  0  0  0  0  0
   21.3170   35.3420   69.6430 C   0  0  0  0  0  0  0  0  0  0  0  0
   23.3570   35.2030   68.8900 N   0  0  0  0  0  0  0  0  0  0  0  0
   23.4750   37.2330   67.4340 C   0  0  0  0  0  1  0  0  0  0  0  0
   22.4670   34.5880   69.6890 C   0  0  0  0  0  0  0  0  0  0  0  0
   22.6960   33.0110   70.7160 Br  0  0  0  0  0  0  0  0  0  0  0  0
   16.1950   33.2500   72.4470 C   0  0  2  0  0  3  0  0  0  0  0  0
   16.4350   31.7840   72.9030 C   0  0  0  0  0  1  0  0  0  0  0  0
   15.1450   33.2500   71.4130 C   0  0  0  0  0  0  0  0  0  0  0  0
   14.4670   32.1410   71.3650 O   0  0  0  0  0  0  0  0  0  0  0  0
   14.8060   34.2660   70.5050 N   0  0  0  0  0  0  0  0  0  0  0  0
   15.4150   35.5500   70.3330 C   0  0  0  0  0  2  0  0  0  0  0  0
   13.6790   33.9900   69.5850 C   0  0  0  0  0  2  0  0  0  0  0  0
   14.4310   36.6950   70.2010 C   0  0  0  0  0  2  0  0  0  0  0  0
   13.1750   36.3490   69.4790 C   0  0  0  0  0  2  0  0  0  0  0  0
   12.6160   35.0080   69.9040 C   0  0  0  0  0  2  0  0  0  0  0  0
  1  6  1  0  0  0  0
  2  3  1  0  0  0  0
  2  1  1  0  0  0  0
  3  4  1  0  0  0  0
  4 18  1  0  0  0  0
  4  5  1  0  0  0  0
  6  5  1  0  0  0  0
  7  1  1  0  0  0  0
  8  7  1  0  0  0  0
  9  8  2  0  0  0  0
 10 11  2  0  0  0  0
 10  9  1  0  0  0  0
 11 13  1  0  0  0  0
 12 11  1  0  0  0  0
 12 14  1  0  0  0  0
 13 16  1  0  0  0  0
 13  7  2  0  0  0  0
 14 16  2  0  0  0  0
 15 12  1  0  0  0  0
 16 17  1  0  0  0  0
 18 19  1  6  0  0  0
 20 18  1  0  0  0  0
 21 20  2  0  0  0  0
 22 20  1  0  0  0  0
 23 22  1  0  0  0  0
 24 27  1  0  0  0  0
 24 22  1  0  0  0  0
 25 23  1  0  0  0  0
 26 27  1  0  0  0  0
 26 25  1  0  0  0  0
M  END
>  <Pose>
1

>  <Score>
-8.669

$$$$
