MODEL 1
REMARK VINA RESULT:    -7.478      0.000      0.000
REMARK INTER + INTRA:          -8.196
REMARK INTER:                  -7.915
REMARK INTRA:                  -0.281
REMARK UNBOUND:                -0.281
REMARK  1 active torsions:
REMARK  status: ('A' for Active; 'I' for Inactive)
REMARK    1  A    between atoms: N_8  and  C_11 
ROOT
ATOM      1  C   UNK d   1      14.286  30.762  73.046  0.00  0.00     0.148 A 
ATOM      2  C   UNK d   1      13.288  30.833  73.897  0.00  0.00     0.080 A 
ATOM      3  C   UNK d   1      12.984  29.734  74.827  0.00  0.00     0.043 A 
ATOM      4  C   UNK d   1      11.984  29.792  75.688  0.00  0.00     0.043 C 
ATOM      5  N   UNK d   1      13.842  28.607  74.735  0.00  0.00    -0.189 N 
ATOM      6  C   UNK d   1      14.927  28.548  73.799  0.00  0.00     0.730 A 
ATOM      7  N   UNK d   1      15.118  29.621  72.986  0.00  0.00    -0.044 N 
ATOM      8  N   UNK d   1      16.175  29.313  72.225  0.00  0.00    -0.143 NA
ATOM      9  C   UNK d   1      16.650  28.096  72.528  0.00  0.00     0.275 A 
ATOM     10  N   UNK d   1      15.864  27.628  73.512  0.00  0.00    -0.054 NA
ATOM     11  H   UNK d   1      13.679  27.795  75.367  0.00  0.00     0.184 HD
ENDROOT
BRANCH   1  12
ATOM     12  N   UNK d   1      14.532  31.844  72.179  0.00  0.00    -0.357 N 
ATOM     13  C   UNK d   1      13.654  32.015  71.047  0.00  0.00     0.203 C 
ATOM     14  C   UNK d   1      13.643  33.443  70.610  0.00  0.00     0.124 A 
ATOM     15  N   UNK d   1      14.717  34.212  70.775  0.00  0.00    -0.325 N 
ATOM     16  N   UNK d   1      12.689  34.211  70.021  0.00  0.00    -0.243 NA
ATOM     17  C   UNK d   1      14.465  35.440  70.307  0.00  0.00     0.101 A 
ATOM     18  C   UNK d   1      15.931  33.702  71.381  0.00  0.00     0.151 C 
ATOM     19 Br   UNK d   1      15.629  36.963  70.278  0.00  0.00    -0.029 Br
ATOM     20  C   UNK d   1      13.172  35.451  69.824  0.00  0.00     0.156 A 
ATOM     21  C   UNK d   1      15.647  32.713  72.473  0.00  0.00     0.145 C 
ENDBRANCH   1  12
TORSDOF 1
ENDMDL
