/Users/jonathanwahrer/Desktop/Msc/3_Semester/Drug_Design_Praktikum/waehrer_HTS_screening/HTS_experiment/out/docking_results/vina_output/4x21/0743_docked.pdbqt
 OpenBabel03212201513D

 30 33  0  0  1  0  0  0  0  0999 V2000
   23.4060   33.9710   68.5410 C   0  0  0  0  0  0  0  0  0  0  0  0
   23.4630   32.7510   68.1720 O   0  0  0  0  0  0  0  0  0  0  0  0
   23.7970   35.0090   67.6530 N   0  0  0  0  0  0  0  0  0  0  0  0
   24.2580   34.6780   66.3330 C   0  0  0  0  0  2  0  0  0  0  0  0
   23.9100   35.6970   65.2910 C   0  0  0  0  0  2  0  0  0  0  0  0
   23.6880   37.0730   65.8470 C   0  0  1  0  0  0  0  0  0  0  0  0
   24.0240   38.0730   64.8800 N   0  0  0  0  0  0  0  0  0  0  0  0
   23.8820   39.4110   65.3420 C   0  0  0  0  0  2  0  0  0  0  0  0
   22.6390   39.6930   66.1180 C   0  0  0  0  0  2  0  0  0  0  0  0
   21.7640   38.5030   66.2720 C   0  0  0  0  0  0  0  0  0  0  0  0
   20.4620   38.3880   66.5370 N   0  0  0  0  0  0  0  0  0  0  0  0
   20.1310   37.0900   66.5780 C   0  0  0  0  0  3  0  0  0  0  0  0
   21.2260   36.3560   66.3380 N   0  0  0  0  0  0  0  0  0  0  0  0
   22.2330   37.2180   66.1490 C   0  0  0  0  0  0  0  0  0  0  0  0
   24.4410   37.2360   67.1580 C   0  0  0  0  0  2  0  0  0  0  0  0
   23.7000   36.3750   68.1590 C   0  0  0  0  0  2  0  0  0  0  0  0
   25.0140   37.9210   64.5880 H   0  0  0  0  0  0  0  0  0  0  0  0
   21.2880   35.2880   66.3030 H   0  0  0  0  0  0  0  0  0  0  0  0
   22.9240   34.2230   69.9090 C   0  0  0  0  0  2  0  0  0  0  0  0
   21.6400   33.5180   70.2190 C   0  0  0  0  0  2  0  0  0  0  0  0
   20.4760   34.2680   69.8640 N   0  0  0  0  0  0  0  0  0  0  0  0
   19.8450   35.1700   70.7620 C   0  0  0  0  0  0  0  0  0  0  0  0
   20.3470   35.3000   71.9170 O   0  0  0  0  0  0  0  0  0  0  0  0
   20.0660   34.1590   68.9160 H   0  0  0  0  0  0  0  0  0  0  0  0
   18.6720   35.9380   70.4260 C   0  0  0  0  0  0  0  0  0  0  0  0
   17.4430   35.6170   70.6600 O   0  0  0  0  0  0  0  0  0  0  0  0
   16.6050   36.5160   70.2380 C   0  0  0  0  0  0  0  0  0  0  0  0
   14.6840   36.5190   70.3400 Br  0  0  0  0  0  0  0  0  0  0  0  0
   17.3480   37.5260   69.6700 C   0  0  0  0  0  3  0  0  0  0  0  0
   18.6780   37.1790   69.7780 C   0  0  0  0  0  3  0  0  0  0  0  0
  1 19  1  0  0  0  0
  2  1  2  0  0  0  0
  3 16  1  0  0  0  0
  3  1  1  0  0  0  0
  4  3  1  0  0  0  0
  5  4  1  0  0  0  0
  6  5  1  6  0  0  0
  6 14  1  0  0  0  0
  6 15  1  0  0  0  0
  7  8  1  0  0  0  0
  7  6  1  0  0  0  0
  8  9  1  0  0  0  0
  9 10  1  0  0  0  0
 10 11  1  0  0  0  0
 11 12  2  0  0  0  0
 13 12  1  0  0  0  0
 14 10  2  0  0  0  0
 14 13  1  0  0  0  0
 15 16  1  0  0  0  0
 17  7  1  0  0  0  0
 18 13  1  0  0  0  0
 19 20  1  0  0  0  0
 21 20  1  0  0  0  0
 21 22  1  0  0  0  0
 22 23  2  0  0  0  0
 24 21  1  0  0  0  0
 25 26  1  0  0  0  0
 25 22  1  0  0  0  0
 27 28  1  0  0  0  0
 27 26  1  0  0  0  0
 29 30  1  0  0  0  0
 29 27  2  0  0  0  0
 30 25  2  0  0  0  0
M  END
>  <Pose>
1

>  <Score>
-8.281

$$$$
