MODEL 1
REMARK VINA RESULT:    -8.281      0.000      0.000
REMARK INTER + INTRA:         -10.913
REMARK INTER:                 -10.217
REMARK INTRA:                  -0.696
REMARK UNBOUND:                -0.696
REMARK  4 active torsions:
REMARK  status: ('A' for Active; 'I' for Inactive)
REMARK    1  A    between atoms: C_4  and  C_7 
REMARK       I    between atoms: C_7  and  N_9 
REMARK    2  A    between atoms: N_9  and  C_10 
REMARK    3  A    between atoms: C_10  and  C_11 
REMARK    4  A    between atoms: C_11  and  C_12 
REMARK       I    between atoms: C_12  and  N_14 
ROOT
ATOM      1  C   UNK d   1      23.406  33.971  68.541  0.00  0.00     0.221 C 
ATOM      2  O   UNK d   1      23.463  32.751  68.172  0.00  0.00    -0.273 OA
ATOM      3  N   UNK d   1      23.797  35.009  67.653  0.00  0.00    -0.352 N 
ATOM      4  C   UNK d   1      24.258  34.678  66.333  0.00  0.00     0.129 C 
ATOM      5  C   UNK d   1      23.910  35.697  65.291  0.00  0.00     0.068 C 
ATOM      6  C   UNK d   1      23.688  37.073  65.847  0.00  0.00     0.204 C 
ATOM      7  N   UNK d   1      24.024  38.073  64.880  0.00  0.00     0.099 N 
ATOM      8  C   UNK d   1      23.882  39.411  65.342  0.00  0.00     0.277 C 
ATOM      9  C   UNK d   1      22.639  39.693  66.118  0.00  0.00     0.091 C 
ATOM     10  C   UNK d   1      21.764  38.503  66.272  0.00  0.00     0.062 A 
ATOM     11  N   UNK d   1      20.462  38.388  66.537  0.00  0.00    -0.246 NA
ATOM     12  C   UNK d   1      20.131  37.090  66.578  0.00  0.00     0.207 A 
ATOM     13  N   UNK d   1      21.226  36.356  66.338  0.00  0.00    -0.350 N 
ATOM     14  C   UNK d   1      22.233  37.218  66.149  0.00  0.00     0.074 A 
ATOM     15  C   UNK d   1      24.441  37.236  67.158  0.00  0.00     0.068 C 
ATOM     16  C   UNK d   1      23.700  36.375  68.159  0.00  0.00     0.129 C 
ATOM     17  H   UNK d   1      25.014  37.921  64.588  0.00  0.00     0.317 HD
ATOM     18  H   UNK d   1      21.288  35.288  66.303  0.00  0.00     0.166 HD
ENDROOT
BRANCH   1  19
ATOM     19  C   UNK d   1      22.924  34.223  69.909  0.00  0.00     0.122 C 
BRANCH  19  20
ATOM     20  C   UNK d   1      21.640  33.518  70.219  0.00  0.00     0.132 C 
BRANCH  20  21
ATOM     21  N   UNK d   1      20.476  34.268  69.864  0.00  0.00    -0.355 N 
ATOM     22  C   UNK d   1      19.845  35.170  70.762  0.00  0.00     0.275 C 
ATOM     23  O   UNK d   1      20.347  35.300  71.917  0.00  0.00    -0.265 OA
ATOM     24  H   UNK d   1      20.066  34.159  68.916  0.00  0.00     0.162 HD
BRANCH  22  25
ATOM     25  C   UNK d   1      18.672  35.938  70.426  0.00  0.00     0.144 A 
ATOM     26  O   UNK d   1      17.443  35.617  70.660  0.00  0.00    -0.298 OA
ATOM     27  C   UNK d   1      16.605  36.516  70.238  0.00  0.00     0.122 A 
ATOM     28 Br   UNK d   1      14.684  36.519  70.340  0.00  0.00    -0.023 Br
ATOM     29  C   UNK d   1      17.348  37.526  69.670  0.00  0.00     0.048 A 
ATOM     30  C   UNK d   1      18.678  37.179  69.778  0.00  0.00     0.046 A 
ENDBRANCH  22  25
ENDBRANCH  20  21
ENDBRANCH  19  20
ENDBRANCH   1  19
TORSDOF 4
ENDMDL
