/Users/jonathanwahrer/Desktop/Msc/3_Semester/Drug_Design_Praktikum/waehrer_HTS_screening/HTS_experiment/out/docking_results/vina_output/4x21/0754_docked.pdbqt
 OpenBabel03212201523D

 27 30  0  0  0  0  0  0  0  0999 V2000
   22.6310   35.4080   68.1500 C   0  0  0  0  0  0  0  0  0  0  0  0
   22.6910   34.2540   67.7020 O   0  0  0  0  0  0  0  0  0  0  0  0
   22.0480   35.6410   69.4190 N   0  0  0  0  0  0  0  0  0  0  0  0
   21.5280   34.5290   70.1890 C   0  0  0  0  0  2  0  0  0  0  0  0
   20.0520   34.6710   70.4690 C   0  0  0  0  0  2  0  0  0  0  0  0
   19.7750   36.1160   70.5200 N   0  0  0  0  0  0  0  0  0  0  0  0
   20.7990   36.9310   71.0800 C   0  0  0  0  0  2  0  0  0  0  0  0
   21.9270   36.9500   70.0320 C   0  0  0  0  0  2  0  0  0  0  0  0
   18.5260   36.5450   70.0090 C   0  0  0  0  0  0  0  0  0  0  0  0
   17.3550   36.0060   70.4470 N   0  0  0  0  0  0  0  0  0  0  0  0
   16.1640   36.4020   69.9700 C   0  0  0  0  0  0  0  0  0  0  0  0
   16.0990   37.3640   69.0240 N   0  0  0  0  0  0  0  0  0  0  0  0
   17.2030   37.9540   68.5330 C   0  0  0  0  0  0  0  0  0  0  0  0
   18.4300   37.5150   69.0530 C   0  0  0  0  0  3  0  0  0  0  0  0
   17.1550   39.0150   67.4920 C   0  0  0  0  0  1  0  0  0  0  0  0
   14.9730   35.8100   70.4590 N   0  0  0  0  0  0  0  0  0  0  0  0
   13.6630   36.1240   69.9410 C   0  0  0  0  0  2  0  0  0  0  0  0
   12.9450   34.8640   69.5600 C   0  0  0  0  0  2  0  0  0  0  0  0
   13.5930   33.7120   70.0020 O   0  0  0  0  0  0  0  0  0  0  0  0
   13.9480   33.8300   71.3430 C   0  0  0  0  0  2  0  0  0  0  0  0
   15.0540   34.8410   71.5300 C   0  0  0  0  0  2  0  0  0  0  0  0
   23.1740   36.5110   67.3370 C   0  0  0  0  0  0  0  0  0  0  0  0
   24.3400   37.0770   67.4240 O   0  0  0  0  0  0  0  0  0  0  0  0
   24.4870   38.0140   66.5580 C   0  0  0  0  0  0  0  0  0  0  0  0
   26.0260   39.1510   66.2770 Br  0  0  0  0  0  0  0  0  0  0  0  0
   23.3340   38.0990   65.8170 C   0  0  0  0  0  3  0  0  0  0  0  0
   22.4950   37.1370   66.3180 C   0  0  0  0  0  3  0  0  0  0  0  0
  1  3  1  0  0  0  0
  2  1  2  0  0  0  0
  3  8  1  0  0  0  0
  3  4  1  0  0  0  0
  4  5  1  0  0  0  0
  5  6  1  0  0  0  0
  6  7  1  0  0  0  0
  8  7  1  0  0  0  0
  9 10  1  0  0  0  0
  9  6  1  0  0  0  0
 11 10  2  0  0  0  0
 11 16  1  0  0  0  0
 12 11  1  0  0  0  0
 13 12  2  0  0  0  0
 13 14  1  0  0  0  0
 14  9  2  0  0  0  0
 15 13  1  0  0  0  0
 16 21  1  0  0  0  0
 17 16  1  0  0  0  0
 18 17  1  0  0  0  0
 18 19  1  0  0  0  0
 19 20  1  0  0  0  0
 20 21  1  0  0  0  0
 22 23  1  0  0  0  0
 22  1  1  0  0  0  0
 24 23  1  0  0  0  0
 25 24  1  0  0  0  0
 26 27  1  0  0  0  0
 26 24  2  0  0  0  0
 27 22  2  0  0  0  0
M  END
>  <Pose>
1

>  <Score>
-8.514

$$$$
