MODEL 1
REMARK VINA RESULT:    -8.476      0.000      0.000
REMARK INTER + INTRA:         -10.457
REMARK INTER:                  -9.963
REMARK INTRA:                  -0.494
REMARK UNBOUND:                -0.494
REMARK  3 active torsions:
REMARK  status: ('A' for Active; 'I' for Inactive)
REMARK    1  A    between atoms: C_4  and  C_7 
REMARK       I    between atoms: C_7  and  N_9 
REMARK    2  A    between atoms: N_12  and  C_15 
REMARK    3  A    between atoms: C_19  and  N_21 
ROOT
ATOM      1  C   UNK d   1      16.886  30.303  72.689  0.00  0.00     0.277 C 
ATOM      2  O   UNK d   1      17.319  29.257  72.182  0.00  0.00    -0.265 OA
ATOM      3  N   UNK d   1      17.677  31.481  72.722  0.00  0.00    -0.343 N 
ATOM      4  C   UNK d   1      17.160  32.708  73.322  0.00  0.00     0.146 C 
ATOM      5  C   UNK d   1      18.179  33.834  73.167  0.00  0.00     0.144 C 
ATOM      6  N   UNK d   1      18.580  33.862  71.774  0.00  0.00    -0.363 N 
ATOM      7  C   UNK d   1      19.141  32.673  71.194  0.00  0.00     0.144 C 
ATOM      8  C   UNK d   1      19.017  31.533  72.173  0.00  0.00     0.146 C 
ENDROOT
BRANCH   6   9
ATOM      9  C   UNK d   1      18.427  35.043  70.977  0.00  0.00     0.131 A 
ATOM     10  N   UNK d   1      17.273  35.724  70.941  0.00  0.00    -0.216 NA
ATOM     11  C   UNK d   1      17.159  36.823  70.186  0.00  0.00     0.126 A 
ATOM     12  N   UNK d   1      18.185  37.281  69.442  0.00  0.00    -0.216 NA
ATOM     13  C   UNK d   1      15.877  37.569  70.154  0.00  0.00     0.093 C 
ATOM     14  C   UNK d   1      19.370  36.646  69.433  0.00  0.00     0.131 A 
ATOM     15  C   UNK d   1      19.467  35.516  70.218  0.00  0.00     0.100 A 
BRANCH  14  16
ATOM     16  N   UNK d   1      20.477  37.088  68.669  0.00  0.00    -0.362 N 
ATOM     17  C   UNK d   1      20.336  37.332  67.248  0.00  0.00     0.154 C 
ATOM     18  C   UNK d   1      21.573  38.077  66.794  0.00  0.00     0.291 C 
ATOM     19  N   UNK d   1      22.724  37.247  67.026  0.00  0.00     0.087 N 
ATOM     20  C   UNK d   1      22.787  36.651  68.323  0.00  0.00     0.291 C 
ATOM     21  C   UNK d   1      22.895  36.324  65.933  0.00  0.00     0.310 C 
ATOM     22  C   UNK d   1      21.788  37.319  69.244  0.00  0.00     0.154 C 
ENDBRANCH  14  16
ENDBRANCH   6   9
BRANCH   1  23
ATOM     23  C   UNK d   1      15.523  30.327  73.269  0.00  0.00     0.144 A 
ATOM     24  O   UNK d   1      15.131  29.737  74.371  0.00  0.00    -0.298 OA
ATOM     25  C   UNK d   1      13.863  29.946  74.621  0.00  0.00     0.122 A 
ATOM     26 Br   UNK d   1      12.892  29.270  76.122  0.00  0.00    -0.023 Br
ATOM     27  C   UNK d   1      13.366  30.736  73.607  0.00  0.00     0.048 A 
ATOM     28  C   UNK d   1      14.420  30.969  72.761  0.00  0.00     0.046 A 
ENDBRANCH   1  23
TORSDOF 3
ENDMDL
