MODEL 1
REMARK VINA RESULT:    -9.449      0.000      0.000
REMARK INTER + INTRA:         -14.318
REMARK INTER:                 -12.764
REMARK INTRA:                  -1.554
REMARK UNBOUND:                -1.554
REMARK  6 active torsions:
REMARK  status: ('A' for Active; 'I' for Inactive)
REMARK    1  A    between atoms: C_4  and  C_7 
REMARK    2  A    between atoms: C_10  and  C_12 
REMARK       I    between atoms: C_12  and  N_14 
REMARK    3  A    between atoms: N_14  and  C_15 
REMARK    4  A    between atoms: C_15  and  C_16 
REMARK    5  A    between atoms: C_16  and  N_17 
REMARK       I    between atoms: N_17  and  C_18 
REMARK    6  A    between atoms: C_18  and  C_20 
ROOT
ATOM      1  C   UNK d   1      14.936  29.472  74.010  0.00  0.00     0.142 C 
ENDROOT
BRANCH   1   2
ATOM      2  N   UNK d   1      16.081  30.261  73.704  0.00  0.00    -0.352 N 
ATOM      3  C   UNK d   1      17.042  29.846  72.741  0.00  0.00     0.297 C 
ATOM      4  O   UNK d   1      16.856  28.731  72.145  0.00  0.00    -0.264 OA
ATOM      5  H   UNK d   1      16.225  31.164  74.191  0.00  0.00     0.162 HD
BRANCH   3   6
ATOM      6  C   UNK d   1      18.216  30.650  72.424  0.00  0.00     0.264 A 
ATOM      7  O   UNK d   1      19.446  30.223  72.558  0.00  0.00    -0.185 OA
ATOM      8  N   UNK d   1      20.287  31.152  72.203  0.00  0.00    -0.103 NA
ATOM      9  C   UNK d   1      19.607  32.253  71.812  0.00  0.00     0.213 A 
ATOM     10  N   UNK d   1      18.318  31.902  71.963  0.00  0.00    -0.193 NA
BRANCH   9  11
ATOM     11  C   UNK d   1      20.155  33.519  71.339  0.00  0.00     0.127 A 
ATOM     12  O   UNK d   1      20.534  33.825  70.124  0.00  0.00    -0.299 OA
ATOM     13  C   UNK d   1      20.978  35.042  70.036  0.00  0.00     0.122 A 
ATOM     14 Br   UNK d   1      21.640  35.963  68.516  0.00  0.00    -0.023 Br
ATOM     15  C   UNK d   1      20.901  35.633  71.299  0.00  0.00     0.048 A 
ATOM     16  C   UNK d   1      20.374  34.643  72.114  0.00  0.00     0.045 A 
ENDBRANCH   9  11
ENDBRANCH   3   6
ENDBRANCH   1   2
BRANCH   1  17
ATOM     17  C   UNK d   1      13.655  30.045  73.440  0.00  0.00     0.142 C 
BRANCH  17  18
ATOM     18  N   UNK d   1      13.781  31.473  73.186  0.00  0.00    -0.355 N 
ATOM     19  C   UNK d   1      14.183  31.907  71.911  0.00  0.00     0.257 C 
ATOM     20  O   UNK d   1      14.408  30.973  71.061  0.00  0.00    -0.267 OA
ATOM     21  H   UNK d   1      13.579  32.176  73.920  0.00  0.00     0.162 HD
BRANCH  19  22
ATOM     22  C   UNK d   1      14.369  33.260  71.452  0.00  0.00     0.108 A 
ATOM     23  C   UNK d   1      15.667  33.715  71.228  0.00  0.00     0.037 A 
ATOM     24  C   UNK d   1      15.873  34.996  70.781  0.00  0.00    -0.001 A 
ATOM     25  C   UNK d   1      14.815  35.822  70.558  0.00  0.00     0.089 A 
ATOM     26  C   UNK d   1      17.161  35.485  70.545  0.00  0.00     0.014 A 
ATOM     27  C   UNK d   1      15.030  37.126  70.103  0.00  0.00     0.038 A 
ATOM     28  O   UNK d   1      13.615  35.368  70.776  0.00  0.00    -0.274 OA
ATOM     29  C   UNK d   1      16.293  37.611  69.869  0.00  0.00     0.003 A 
ATOM     30  C   UNK d   1      17.355  36.773  70.097  0.00  0.00     0.001 A 
ATOM     31  C   UNK d   1      13.346  34.141  71.208  0.00  0.00     0.304 A 
ATOM     32  O   UNK d   1      12.144  33.830  71.378  0.00  0.00    -0.259 OA
ENDBRANCH  19  22
ENDBRANCH  17  18
ENDBRANCH   1  17
TORSDOF 6
ENDMDL
