/Users/jonathanwahrer/Desktop/Msc/3_Semester/Drug_Design_Praktikum/waehrer_HTS_screening/HTS_experiment/out/docking_results/vina_output/4x21/0769_docked.pdbqt
 OpenBabel03212201523D

 26 29  0  0  0  0  0  0  0  0999 V2000
   17.4900   33.2110   70.7370 C   0  0  0  0  0  0  0  0  0  0  0  0
   17.6690   31.9080   70.6360 O   0  0  0  0  0  0  0  0  0  0  0  0
   18.6490   33.9730   70.7750 N   0  0  0  0  0  0  0  0  0  0  0  0
   19.9620   33.2830   70.7010 C   0  0  0  0  0  2  0  0  0  0  0  0
   20.7450   33.8550   69.5430 C   0  0  0  0  0  2  0  0  0  0  0  0
   20.8940   35.2460   69.7120 N   0  0  0  0  0  0  0  0  0  0  0  0
   20.2540   35.7190   70.8920 C   0  0  0  0  0  2  0  0  0  0  0  0
   18.7440   35.3780   70.8770 C   0  0  0  0  0  2  0  0  0  0  0  0
   16.0850   33.5670   70.7840 C   0  0  0  0  0  0  0  0  0  0  0  0
   15.5670   34.6930   70.2020 C   0  0  0  0  0  3  0  0  0  0  0  0
   14.1970   34.9500   70.3010 C   0  0  0  0  0  0  0  0  0  0  0  0
   13.4200   36.4800   69.5240 Br  0  0  0  0  0  0  0  0  0  0  0  0
   13.4040   34.0590   70.9830 C   0  0  0  0  0  0  0  0  0  0  0  0
   13.9240   33.0110   71.5170 O   0  0  0  0  0  0  0  0  0  0  0  0
   12.1650   34.2440   71.0990 O   0  0  0  0  0  0  0  0  0  0  0  0
   15.1860   32.7300   71.4520 C   0  0  0  0  0  3  0  0  0  0  0  0
   22.2170   35.7640   69.5630 C   0  0  0  0  0  2  0  0  0  0  0  0
   22.7890   35.6690   68.2080 C   0  0  0  0  0  0  0  0  0  0  0  0
   23.8620   34.9100   67.8710 C   0  0  0  0  0  3  0  0  0  0  0  0
   24.3260   34.8890   66.5790 C   0  0  0  0  0  0  0  0  0  0  0  0
   23.6990   35.6420   65.6240 C   0  0  0  0  0  0  0  0  0  0  0  0
   25.3820   34.2250   65.9360 O   0  0  0  0  0  0  0  0  0  0  0  0
   22.6090   36.4200   65.9420 C   0  0  0  0  0  3  0  0  0  0  0  0
   24.3340   35.4670   64.4060 O   0  0  0  0  0  0  0  0  0  0  0  0
   22.1720   36.4220   67.2260 C   0  0  0  0  0  3  0  0  0  0  0  0
   25.5930   34.8780   64.6980 C   0  0  0  0  0  2  0  0  0  0  0  0
  1  3  1  0  0  0  0
  1  9  1  0  0  0  0
  2  1  2  0  0  0  0
  3  8  1  0  0  0  0
  4  3  1  0  0  0  0
  5  6  1  0  0  0  0
  5  4  1  0  0  0  0
  6  7  1  0  0  0  0
  8  7  1  0  0  0  0
  9 16  2  0  0  0  0
 10 11  2  0  0  0  0
 10  9  1  0  0  0  0
 11 13  1  0  0  0  0
 12 11  1  0  0  0  0
 13 15  2  0  0  0  0
 13 14  1  0  0  0  0
 16 14  1  0  0  0  0
 17  6  1  0  0  0  0
 18 17  1  0  0  0  0
 19 18  1  0  0  0  0
 20 19  2  0  0  0  0
 21 23  2  0  0  0  0
 21 20  1  0  0  0  0
 22 20  1  0  0  0  0
 23 25  1  0  0  0  0
 24 26  1  0  0  0  0
 24 21  1  0  0  0  0
 25 18  2  0  0  0  0
 26 22  1  0  0  0  0
M  END
>  <Pose>
1

>  <Score>
-8.788

$$$$
