MODEL 1
REMARK VINA RESULT:    -8.788      0.000      0.000
REMARK INTER + INTRA:         -10.626
REMARK INTER:                 -10.330
REMARK INTRA:                  -0.296
REMARK UNBOUND:                -0.296
REMARK  3 active torsions:
REMARK  status: ('A' for Active; 'I' for Inactive)
REMARK    1  A    between atoms: C_4  and  C_9 
REMARK       I    between atoms: C_9  and  N_11 
REMARK    2  A    between atoms: N_14  and  C_17 
REMARK    3  A    between atoms: C_17  and  C_18 
ROOT
ATOM      1  C   UNK d   1      17.490  33.211  70.737  0.00  0.00     0.189 C 
ATOM      2  O   UNK d   1      17.669  31.908  70.636  0.00  0.00    -0.171 OA
ATOM      3  N   UNK d   1      18.649  33.973  70.775  0.00  0.00    -0.355 N 
ATOM      4  C   UNK d   1      19.962  33.283  70.701  0.00  0.00     0.155 C 
ATOM      5  C   UNK d   1      20.745  33.855  69.543  0.00  0.00     0.292 C 
ATOM      6  N   UNK d   1      20.894  35.246  69.712  0.00  0.00     0.095 N 
ATOM      7  C   UNK d   1      20.254  35.719  70.892  0.00  0.00     0.292 C 
ATOM      8  C   UNK d   1      18.744  35.378  70.877  0.00  0.00     0.155 C 
ENDROOT
BRANCH   1   9
ATOM      9  C   UNK d   1      16.085  33.567  70.784  0.00  0.00     0.042 A 
ATOM     10  C   UNK d   1      15.567  34.693  70.202  0.00  0.00     0.043 A 
ATOM     11  C   UNK d   1      14.197  34.950  70.301  0.00  0.00     0.087 A 
ATOM     12 Br   UNK d   1      13.420  36.480  69.524  0.00  0.00    -0.045 Br
ATOM     13  C   UNK d   1      13.404  34.059  70.983  0.00  0.00     0.305 A 
ATOM     14  O   UNK d   1      13.924  33.011  71.517  0.00  0.00    -0.286 OA
ATOM     15  O   UNK d   1      12.165  34.244  71.099  0.00  0.00    -0.258 OA
ATOM     16  C   UNK d   1      15.186  32.730  71.452  0.00  0.00     0.162 A 
ENDBRANCH   1   9
BRANCH   6  17
ATOM     17  C   UNK d   1      22.217  35.764  69.563  0.00  0.00     0.311 C 
BRANCH  17  18
ATOM     18  C   UNK d   1      22.789  35.669  68.208  0.00  0.00    -0.027 A 
ATOM     19  C   UNK d   1      23.862  34.910  67.871  0.00  0.00     0.048 A 
ATOM     20  C   UNK d   1      24.326  34.889  66.579  0.00  0.00     0.105 A 
ATOM     21  C   UNK d   1      23.699  35.642  65.624  0.00  0.00     0.105 A 
ATOM     22  O   UNK d   1      25.382  34.225  65.936  0.00  0.00    -0.323 OA
ATOM     23  C   UNK d   1      22.609  36.420  65.942  0.00  0.00     0.040 A 
ATOM     24  O   UNK d   1      24.334  35.467  64.406  0.00  0.00    -0.323 OA
ATOM     25  C   UNK d   1      22.172  36.422  67.226  0.00  0.00     0.012 A 
ATOM     26  C   UNK d   1      25.593  34.878  64.698  0.00  0.00     0.352 C 
ENDBRANCH  17  18
ENDBRANCH   6  17
TORSDOF 3
ENDMDL
