/Users/jonathanwahrer/Desktop/Msc/3_Semester/Drug_Design_Praktikum/waehrer_HTS_screening/HTS_experiment/out/docking_results/vina_output/4x21/0776_docked.pdbqt
 OpenBabel03212201533D

 38 41  0  0  1  0  0  0  0  0999 V2000
   22.9130   34.7760   67.4300 C   0  0  2  0  0  3  0  0  0  0  0  0
   22.9850   36.1990   67.9970 C   0  0  1  0  0  0  0  0  0  0  0  0
   22.3610   36.2200   69.3500 C   0  0  0  0  0  2  0  0  0  0  0  0
   20.8990   35.8590   69.2120 C   0  0  1  0  0  0  0  0  0  0  0  0
   20.6210   35.2070   68.0250 O   0  0  0  0  0  0  0  0  0  0  0  0
   21.5490   34.2300   67.6950 C   0  0  0  0  0  2  0  0  0  0  0  0
   20.5030   35.1010   70.4270 C   0  0  0  0  0  2  0  0  0  0  0  0
   19.0090   34.7600   70.3180 C   0  0  0  0  0  2  0  0  0  0  0  0
   18.2790   35.9820   70.3980 N   0  0  0  0  0  0  0  0  0  0  0  0
   19.1280   37.2190   70.3380 C   0  0  0  0  0  2  0  0  0  0  0  0
   20.1080   37.1500   69.2150 C   0  0  0  0  0  2  0  0  0  0  0  0
   16.9090   36.1140   70.5150 C   0  0  0  0  0  0  0  0  0  0  0  0
   16.4680   37.3530   70.5920 O   0  0  0  0  0  0  0  0  0  0  0  0
   24.3830   36.7260   67.9610 C   0  0  0  0  0  1  0  0  0  0  0  0
   22.2060   36.9960   67.1540 O   0  0  0  0  0  0  0  0  0  0  0  0
   21.3180   37.2080   67.5380 H   0  0  0  0  0  0  0  0  0  0  0  0
   24.0030   33.9600   67.8600 N   0  0  0  0  0  0  0  0  0  0  0  0
   24.1970   33.5610   69.1290 C   0  0  0  0  0  3  0  0  0  0  0  0
   25.2560   32.7770   69.5110 C   0  0  0  0  0  0  0  0  0  0  0  0
   25.4050   32.2870   71.3440 Br  0  0  0  0  0  0  0  0  0  0  0  0
   26.1720   32.3700   68.5720 C   0  0  0  0  0  0  0  0  0  0  0  0
   25.9780   32.7680   67.3040 N   0  0  0  0  0  0  0  0  0  0  0  0
   27.1380   31.6530   68.9310 O   0  0  0  0  0  0  0  0  0  0  0  0
   24.9450   33.5260   66.9690 C   0  0  0  0  0  0  0  0  0  0  0  0
   26.6800   32.4520   66.6030 H   0  0  0  0  0  0  0  0  0  0  0  0
   24.8320   33.8600   65.7530 O   0  0  0  0  0  0  0  0  0  0  0  0
   15.8810   35.1370   70.5660 C   0  0  0  0  0  0  0  0  0  0  0  0
   15.9130   34.1270   71.5450 C   0  0  0  0  0  3  0  0  0  0  0  0
   14.9840   33.1500   71.7070 C   0  0  0  0  0  0  0  0  0  0  0  0
   13.8960   33.1620   70.8110 C   0  0  0  0  0  3  0  0  0  0  0  0
   13.8410   34.1240   69.8610 C   0  0  0  0  0  3  0  0  0  0  0  0
   14.8210   35.1210   69.7180 C   0  0  0  0  0  3  0  0  0  0  0  0
   15.0540   32.1840   72.6670 O   0  0  0  0  0  0  0  0  0  0  0  0
   15.5370   30.9100   72.6500 C   0  0  0  0  0  2  0  0  0  0  0  0
   14.4640   29.8810   72.5370 C   0  0  0  0  0  2  0  0  0  0  0  0
   13.2690   30.3400   73.2460 N   0  0  0  0  0  0  0  0  0  0  0  0
   13.0300   31.3160   73.0150 H   0  0  0  0  0  0  0  0  0  0  0  0
   13.2890   30.1200   74.2470 H   0  0  0  0  0  0  0  0  0  0  0  0
  1  6  1  1  0  0  0
  1 17  1  0  0  0  0
  1  2  1  0  0  0  0
  2 14  1  1  0  0  0
  2  3  1  0  0  0  0
  4 11  1  6  0  0  0
  4  3  1  0  0  0  0
  4  7  1  0  0  0  0
  5  4  1  0  0  0  0
  6  5  1  0  0  0  0
  8  9  1  0  0  0  0
  8  7  1  0  0  0  0
  9 12  1  0  0  0  0
 10  9  1  0  0  0  0
 11 10  1  0  0  0  0
 12 27  1  0  0  0  0
 12 13  2  0  0  0  0
 15 16  1  0  0  0  0
 15  2  1  0  0  0  0
 17 18  1  0  0  0  0
 18 19  2  0  0  0  0
 19 20  1  0  0  0  0
 21 23  2  0  0  0  0
 21 19  1  0  0  0  0
 22 21  1  0  0  0  0
 24 22  1  0  0  0  0
 24 17  1  0  0  0  0
 25 22  1  0  0  0  0
 26 24  2  0  0  0  0
 27 28  1  0  0  0  0
 28 29  2  0  0  0  0
 29 33  1  0  0  0  0
 30 29  1  0  0  0  0
 31 30  2  0  0  0  0
 32 31  1  0  0  0  0
 32 27  2  0  0  0  0
 34 33  1  0  0  0  0
 35 34  1  0  0  0  0
 35 36  1  0  0  0  0
 36 38  1  0  0  0  0
 37 36  1  0  0  0  0
M  END
>  <Pose>
1

>  <Score>
-8.669

$$$$
