MODEL 1
REMARK VINA RESULT:    -8.669      0.000      0.000
REMARK INTER + INTRA:         -12.002
REMARK INTER:                 -11.710
REMARK INTRA:                  -0.292
REMARK UNBOUND:                -0.292
REMARK  7 active torsions:
REMARK  status: ('A' for Active; 'I' for Inactive)
REMARK    1  A    between atoms: N_4  and  C_10 
REMARK    2  A    between atoms: C_11  and  O_33 
REMARK       I    between atoms: N_18  and  C_21 
REMARK    3  A    between atoms: C_21  and  C_23 
REMARK    4  A    between atoms: C_25  and  O_29 
REMARK    5  A    between atoms: O_29  and  C_30 
REMARK    6  A    between atoms: C_30  and  C_31 
REMARK    7  A    between atoms: C_31  and  N_32 
ROOT
ATOM      1  C   UNK d   1      22.913  34.776  67.430  0.00  0.00     0.152 C 
ATOM      2  C   UNK d   1      22.985  36.199  67.997  0.00  0.00     0.080 C 
ATOM      3  C   UNK d   1      22.361  36.220  69.350  0.00  0.00     0.077 C 
ATOM      4  C   UNK d   1      20.899  35.859  69.212  0.00  0.00     0.067 C 
ATOM      5  O   UNK d   1      20.621  35.207  68.025  0.00  0.00    -0.378 OA
ATOM      6  C   UNK d   1      21.549  34.230  67.695  0.00  0.00     0.197 C 
ATOM      7  C   UNK d   1      20.503  35.101  70.427  0.00  0.00     0.058 C 
ATOM      8  C   UNK d   1      19.009  34.760  70.318  0.00  0.00     0.128 C 
ATOM      9  N   UNK d   1      18.279  35.982  70.398  0.00  0.00    -0.359 N 
ATOM     10  C   UNK d   1      19.128  37.219  70.338  0.00  0.00     0.128 C 
ATOM     11  C   UNK d   1      20.108  37.150  69.215  0.00  0.00     0.058 C 
ATOM     12  C   UNK d   1      16.909  36.114  70.515  0.00  0.00     0.187 C 
ATOM     13  O   UNK d   1      16.468  37.353  70.592  0.00  0.00    -0.171 OA
ATOM     14  C   UNK d   1      24.383  36.726  67.961  0.00  0.00     0.048 C 
ENDROOT
BRANCH   2  15
ATOM     15  O   UNK d   1      22.206  36.996  67.154  0.00  0.00    -0.388 OA
ATOM     16  H   UNK d   1      21.318  37.208  67.538  0.00  0.00     0.210 HD
ENDBRANCH   2  15
BRANCH   1  17
ATOM     17  N   UNK d   1      24.003  33.960  67.860  0.00  0.00    -0.298 N 
ATOM     18  C   UNK d   1      24.197  33.561  69.129  0.00  0.00     0.121 A 
ATOM     19  C   UNK d   1      25.256  32.777  69.511  0.00  0.00     0.094 A 
ATOM     20 Br   UNK d   1      25.405  32.287  71.344  0.00  0.00    -0.044 Br
ATOM     21  C   UNK d   1      26.172  32.370  68.572  0.00  0.00     0.268 A 
ATOM     22  N   UNK d   1      25.978  32.768  67.304  0.00  0.00    -0.274 N 
ATOM     23  O   UNK d   1      27.138  31.653  68.931  0.00  0.00    -0.267 OA
ATOM     24  C   UNK d   1      24.945  33.526  66.969  0.00  0.00     0.329 A 
ATOM     25  H   UNK d   1      26.680  32.452  66.603  0.00  0.00     0.173 HD
ATOM     26  O   UNK d   1      24.832  33.860  65.753  0.00  0.00    -0.246 OA
ENDBRANCH   1  17
BRANCH  12  27
ATOM     27  C   UNK d   1      15.881  35.137  70.566  0.00  0.00     0.020 A 
ATOM     28  C   UNK d   1      15.913  34.127  71.545  0.00  0.00     0.052 A 
ATOM     29  C   UNK d   1      14.984  33.150  71.707  0.00  0.00     0.069 A 
ATOM     30  C   UNK d   1      13.896  33.162  70.811  0.00  0.00     0.037 A 
ATOM     31  C   UNK d   1      13.841  34.124  69.861  0.00  0.00     0.004 A 
ATOM     32  C   UNK d   1      14.821  35.121  69.718  0.00  0.00     0.016 A 
BRANCH  29  33
ATOM     33  O   UNK d   1      15.054  32.184  72.667  0.00  0.00    -0.349 OA
BRANCH  33  34
ATOM     34  C   UNK d   1      15.537  30.910  72.650  0.00  0.00     0.205 C 
BRANCH  34  35
ATOM     35  C   UNK d   1      14.464  29.881  72.537  0.00  0.00     0.293 C 
BRANCH  35  36
ATOM     36  N   UNK d   1      13.269  30.340  73.246  0.00  0.00     0.080 N 
ATOM     37  H   UNK d   1      13.030  31.316  73.015  0.00  0.00     0.312 HD
ATOM     38  H   UNK d   1      13.289  30.120  74.247  0.00  0.00     0.312 HD
ENDBRANCH  35  36
ENDBRANCH  34  35
ENDBRANCH  33  34
ENDBRANCH  29  33
ENDBRANCH  12  27
TORSDOF 7
ENDMDL
