MODEL 1
REMARK VINA RESULT:    -8.589      0.000      0.000
REMARK INTER + INTRA:         -11.781
REMARK INTER:                 -11.351
REMARK INTRA:                  -0.430
REMARK UNBOUND:                -0.430
REMARK  7 active torsions:
REMARK  status: ('A' for Active; 'I' for Inactive)
REMARK    1  A    between atoms: N_4  and  C_10 
REMARK    2  A    between atoms: C_11  and  O_33 
REMARK       I    between atoms: N_18  and  C_21 
REMARK    3  A    between atoms: C_21  and  C_23 
REMARK    4  A    between atoms: C_23  and  N_24 
REMARK    5  A    between atoms: C_23  and  C_25 
REMARK    6  A    between atoms: C_25  and  C_26 
REMARK    7  A    between atoms: C_29  and  O_32 
ROOT
ATOM      1  C   UNK d   1      16.313  30.297  72.004  0.00  0.00     0.152 C 
ATOM      2  C   UNK d   1      16.449  31.704  71.580  0.00  0.00     0.080 C 
ATOM      3  C   UNK d   1      17.884  32.118  71.235  0.00  0.00     0.077 C 
ATOM      4  C   UNK d   1      18.815  31.807  72.381  0.00  0.00     0.067 C 
ATOM      5  O   UNK d   1      18.299  30.831  73.211  0.00  0.00    -0.378 OA
ATOM      6  C   UNK d   1      17.617  29.830  72.591  0.00  0.00     0.197 C 
ATOM      7  C   UNK d   1      19.065  33.105  73.129  0.00  0.00     0.058 C 
ATOM      8  C   UNK d   1      20.340  33.749  72.655  0.00  0.00     0.129 C 
ATOM      9  N   UNK d   1      20.432  33.596  71.226  0.00  0.00    -0.350 N 
ATOM     10  C   UNK d   1      20.648  32.238  70.748  0.00  0.00     0.129 C 
ATOM     11  C   UNK d   1      20.113  31.296  71.802  0.00  0.00     0.058 C 
ATOM     12  C   UNK d   1      20.338  34.698  70.373  0.00  0.00     0.253 C 
ATOM     13  O   UNK d   1      20.431  34.433  69.119  0.00  0.00    -0.271 OA
ATOM     14  C   UNK d   1      15.837  32.717  72.492  0.00  0.00     0.048 C 
ENDROOT
BRANCH   2  15
ATOM     15  O   UNK d   1      15.760  31.834  70.346  0.00  0.00    -0.388 OA
ATOM     16  H   UNK d   1      15.770  30.992  69.834  0.00  0.00     0.210 HD
ENDBRANCH   2  15
BRANCH   1  17
ATOM     17  N   UNK d   1      15.208  30.041  72.906  0.00  0.00    -0.298 N 
ATOM     18  C   UNK d   1      15.454  29.734  74.175  0.00  0.00     0.121 A 
ATOM     19  C   UNK d   1      14.427  29.479  75.054  0.00  0.00     0.094 A 
ATOM     20 Br   UNK d   1      14.806  29.036  76.885  0.00  0.00    -0.044 Br
ATOM     21  C   UNK d   1      13.129  29.549  74.594  0.00  0.00     0.268 A 
ATOM     22  N   UNK d   1      12.943  29.865  73.299  0.00  0.00    -0.274 N 
ATOM     23  O   UNK d   1      12.149  29.323  75.364  0.00  0.00    -0.267 OA
ATOM     24  C   UNK d   1      13.958  30.110  72.456  0.00  0.00     0.329 A 
ATOM     25  H   UNK d   1      11.942  29.920  72.938  0.00  0.00     0.173 HD
ATOM     26  O   UNK d   1      13.681  30.401  71.246  0.00  0.00    -0.246 OA
ENDBRANCH   1  17
BRANCH  12  27
ATOM     27  C   UNK d   1      20.153  36.108  70.698  0.00  0.00     0.313 C 
BRANCH  27  28
ATOM     28  N   UNK d   1      21.421  36.767  71.018  0.00  0.00     0.092 N 
ATOM     29  H   UNK d   1      22.205  36.362  70.462  0.00  0.00     0.313 HD
ATOM     30  H   UNK d   1      21.648  36.577  72.025  0.00  0.00     0.313 HD
ENDBRANCH  27  28
BRANCH  27  31
ATOM     31  C   UNK d   1      19.516  36.944  69.611  0.00  0.00     0.083 C 
BRANCH  31  32
ATOM     32  C   UNK d   1      18.025  36.824  69.817  0.00  0.00    -0.056 A 
ATOM     33  C   UNK d   1      17.517  35.848  70.635  0.00  0.00     0.010 A 
ATOM     34  C   UNK d   1      16.137  35.773  70.797  0.00  0.00     0.037 A 
ATOM     35  C   UNK d   1      15.284  36.647  70.163  0.00  0.00     0.065 A 
ATOM     36  C   UNK d   1      15.833  37.616  69.348  0.00  0.00     0.037 A 
ATOM     37  C   UNK d   1      17.197  37.716  69.166  0.00  0.00     0.010 A 
BRANCH  35  38
ATOM     38  O   UNK d   1      13.922  36.525  70.361  0.00  0.00    -0.361 OA
ATOM     39  H   UNK d   1      13.314  35.928  69.800  0.00  0.00     0.217 HD
ENDBRANCH  35  38
ENDBRANCH  31  32
ENDBRANCH  27  31
ENDBRANCH  12  27
TORSDOF 7
ENDMDL
