/Users/jonathanwahrer/Desktop/Msc/3_Semester/Drug_Design_Praktikum/waehrer_HTS_screening/HTS_experiment/out/docking_results/vina_output/4x21/0783_docked.pdbqt
 OpenBabel03212201533D

 39 42  0  0  1  0  0  0  0  0999 V2000
   16.3130   30.2970   72.0040 C   0  0  1  0  0  3  0  0  0  0  0  0
   16.4490   31.7040   71.5800 C   0  0  2  0  0  0  0  0  0  0  0  0
   17.8840   32.1180   71.2350 C   0  0  0  0  0  2  0  0  0  0  0  0
   18.8150   31.8070   72.3810 C   0  0  2  0  0  0  0  0  0  0  0  0
   18.2990   30.8310   73.2110 O   0  0  0  0  0  0  0  0  0  0  0  0
   17.6170   29.8300   72.5910 C   0  0  0  0  0  2  0  0  0  0  0  0
   19.0650   33.1050   73.1290 C   0  0  0  0  0  2  0  0  0  0  0  0
   20.3400   33.7490   72.6550 C   0  0  0  0  0  2  0  0  0  0  0  0
   20.4320   33.5960   71.2260 N   0  0  0  0  0  0  0  0  0  0  0  0
   20.6480   32.2380   70.7480 C   0  0  0  0  0  2  0  0  0  0  0  0
   20.1130   31.2960   71.8020 C   0  0  0  0  0  2  0  0  0  0  0  0
   20.3380   34.6980   70.3730 C   0  0  0  0  0  0  0  0  0  0  0  0
   20.4310   34.4330   69.1190 O   0  0  0  0  0  0  0  0  0  0  0  0
   15.8370   32.7170   72.4920 C   0  0  0  0  0  1  0  0  0  0  0  0
   15.7600   31.8340   70.3460 O   0  0  0  0  0  0  0  0  0  0  0  0
   15.7700   30.9920   69.8340 H   0  0  0  0  0  0  0  0  0  0  0  0
   15.2080   30.0410   72.9060 N   0  0  0  0  0  0  0  0  0  0  0  0
   15.4540   29.7340   74.1750 C   0  0  0  0  0  3  0  0  0  0  0  0
   14.4270   29.4790   75.0540 C   0  0  0  0  0  0  0  0  0  0  0  0
   14.8060   29.0360   76.8850 Br  0  0  0  0  0  0  0  0  0  0  0  0
   13.1290   29.5490   74.5940 C   0  0  0  0  0  0  0  0  0  0  0  0
   12.9430   29.8650   73.2990 N   0  0  0  0  0  0  0  0  0  0  0  0
   12.1490   29.3230   75.3640 O   0  0  0  0  0  0  0  0  0  0  0  0
   13.9580   30.1100   72.4560 C   0  0  0  0  0  0  0  0  0  0  0  0
   11.9420   29.9200   72.9380 H   0  0  0  0  0  0  0  0  0  0  0  0
   13.6810   30.4010   71.2460 O   0  0  0  0  0  0  0  0  0  0  0  0
   20.1530   36.1080   70.6980 C   0  0  1  0  0  3  0  0  0  0  0  0
   21.4210   36.7670   71.0180 N   0  0  0  0  0  0  0  0  0  0  0  0
   22.2050   36.3620   70.4620 H   0  0  0  0  0  0  0  0  0  0  0  0
   21.6480   36.5770   72.0250 H   0  0  0  0  0  0  0  0  0  0  0  0
   19.5160   36.9440   69.6110 C   0  0  0  0  0  2  0  0  0  0  0  0
   18.0250   36.8240   69.8170 C   0  0  0  0  0  0  0  0  0  0  0  0
   17.5170   35.8480   70.6350 C   0  0  0  0  0  3  0  0  0  0  0  0
   16.1370   35.7730   70.7970 C   0  0  0  0  0  3  0  0  0  0  0  0
   15.2840   36.6470   70.1630 C   0  0  0  0  0  0  0  0  0  0  0  0
   15.8330   37.6160   69.3480 C   0  0  0  0  0  3  0  0  0  0  0  0
   17.1970   37.7160   69.1660 C   0  0  0  0  0  3  0  0  0  0  0  0
   13.9220   36.5250   70.3610 O   0  0  0  0  0  0  0  0  0  0  0  0
   13.3140   35.9280   69.8000 H   0  0  0  0  0  0  0  0  0  0  0  0
  1  6  1  1  0  0  0
  1 17  1  0  0  0  0
  2  1  1  0  0  0  0
  2 14  1  1  0  0  0
  3  2  1  0  0  0  0
  4  3  1  6  0  0  0
  4  7  1  0  0  0  0
  4  5  1  0  0  0  0
  6  5  1  0  0  0  0
  8  7  1  0  0  0  0
  9  8  1  0  0  0  0
 10  9  1  0  0  0  0
 10 11  1  0  0  0  0
 11  4  1  0  0  0  0
 12 27  1  0  0  0  0
 12  9  1  0  0  0  0
 13 12  2  0  0  0  0
 15  2  1  0  0  0  0
 16 15  1  0  0  0  0
 17 18  1  0  0  0  0
 18 19  2  0  0  0  0
 19 20  1  0  0  0  0
 21 19  1  0  0  0  0
 21 23  2  0  0  0  0
 22 21  1  0  0  0  0
 24 17  1  0  0  0  0
 24 22  1  0  0  0  0
 25 22  1  0  0  0  0
 26 24  2  0  0  0  0
 27 31  1  6  0  0  0
 27 28  1  0  0  0  0
 28 30  1  0  0  0  0
 29 28  1  0  0  0  0
 31 32  1  0  0  0  0
 32 33  1  0  0  0  0
 33 34  2  0  0  0  0
 35 38  1  0  0  0  0
 35 34  1  0  0  0  0
 36 35  2  0  0  0  0
 37 36  1  0  0  0  0
 37 32  2  0  0  0  0
 39 38  1  0  0  0  0
M  END
>  <Pose>
1

>  <Score>
-8.589

$$$$
