MODEL 1
REMARK VINA RESULT:    -8.307      0.000      0.000
REMARK INTER + INTRA:         -11.824
REMARK INTER:                 -10.978
REMARK INTRA:                  -0.845
REMARK UNBOUND:                -0.845
REMARK  6 active torsions:
REMARK  status: ('A' for Active; 'I' for Inactive)
REMARK    1  A    between atoms: N_4  and  C_10 
REMARK    2  A    between atoms: C_11  and  O_34 
REMARK       I    between atoms: N_18  and  C_21 
REMARK    3  A    between atoms: C_21  and  C_23 
REMARK    4  A    between atoms: C_23  and  N_24 
REMARK    5  A    between atoms: C_23  and  C_28 
REMARK       I    between atoms: N_24  and  C_25 
REMARK    6  A    between atoms: C_28  and  C_29 
ROOT
ATOM      1  C   UNK d   1      18.897  32.343  72.297  0.00  0.00     0.152 C 
ATOM      2  C   UNK d   1      18.522  32.438  70.809  0.00  0.00     0.080 C 
ATOM      3  C   UNK d   1      19.380  33.598  70.285  0.00  0.00     0.077 C 
ATOM      4  C   UNK d   1      19.198  34.821  71.141  0.00  0.00     0.067 C 
ATOM      5  O   UNK d   1      18.176  34.601  72.032  0.00  0.00    -0.378 OA
ATOM      6  C   UNK d   1      18.402  33.572  72.942  0.00  0.00     0.197 C 
ATOM      7  C   UNK d   1      18.734  35.928  70.205  0.00  0.00     0.058 C 
ATOM      8  C   UNK d   1      19.929  36.581  69.557  0.00  0.00     0.129 C 
ATOM      9  N   UNK d   1      21.087  35.671  69.584  0.00  0.00    -0.350 N 
ATOM     10  C   UNK d   1      21.627  35.407  70.885  0.00  0.00     0.129 C 
ATOM     11  C   UNK d   1      20.431  35.294  71.826  0.00  0.00     0.058 C 
ATOM     12  C   UNK d   1      21.598  35.076  68.431  0.00  0.00     0.243 C 
ATOM     13  O   UNK d   1      21.037  35.263  67.283  0.00  0.00    -0.271 OA
ATOM     14  C   UNK d   1      17.059  32.697  70.632  0.00  0.00     0.048 C 
ENDROOT
BRANCH   2  15
ATOM     15  O   UNK d   1      18.855  31.295  70.115  0.00  0.00    -0.388 OA
ATOM     16  H   UNK d   1      18.707  31.448  69.148  0.00  0.00     0.210 HD
ENDBRANCH   2  15
BRANCH   1  17
ATOM     17  N   UNK d   1      18.600  31.088  72.857  0.00  0.00    -0.298 N 
ATOM     18  C   UNK d   1      17.403  30.496  72.849  0.00  0.00     0.121 A 
ATOM     19  C   UNK d   1      17.191  29.245  73.428  0.00  0.00     0.094 A 
ATOM     20 Br   UNK d   1      15.453  28.496  73.362  0.00  0.00    -0.044 Br
ATOM     21  C   UNK d   1      18.239  28.585  74.031  0.00  0.00     0.268 A 
ATOM     22  N   UNK d   1      19.438  29.193  74.031  0.00  0.00    -0.274 N 
ATOM     23  O   UNK d   1      18.072  27.441  74.568  0.00  0.00    -0.267 OA
ATOM     24  C   UNK d   1      19.613  30.399  73.465  0.00  0.00     0.329 A 
ATOM     25  H   UNK d   1      20.272  28.729  74.480  0.00  0.00     0.173 HD
ATOM     26  O   UNK d   1      20.762  30.915  73.499  0.00  0.00    -0.246 OA
ENDBRANCH   1  17
BRANCH  12  27
ATOM     27  C   UNK d   1      22.774  34.219  68.429  0.00  0.00     0.182 C 
BRANCH  27  28
ATOM     28  N   UNK d   1      22.489  32.947  69.047  0.00  0.00    -0.348 N 
ATOM     29  C   UNK d   1      23.088  32.365  70.157  0.00  0.00     0.214 C 
ATOM     30  O   UNK d   1      24.020  32.862  70.824  0.00  0.00    -0.274 OA
ATOM     31  C   UNK d   1      22.627  31.011  70.665  0.00  0.00     0.117 C 
ATOM     32  H   UNK d   1      21.713  32.392  68.570  0.00  0.00     0.163 HD
ENDBRANCH  27  28
BRANCH  27  33
ATOM     33  C   UNK d   1      23.299  33.966  66.981  0.00  0.00     0.095 C 
BRANCH  33  34
ATOM     34  C   UNK d   1      24.736  33.642  67.017  0.00  0.00     0.053 A 
ATOM     35  N   UNK d   1      25.364  32.639  67.609  0.00  0.00    -0.247 NA
ATOM     36  C   UNK d   1      26.708  32.699  67.400  0.00  0.00     0.207 A 
ATOM     37  N   UNK d   1      26.920  33.791  66.642  0.00  0.00    -0.359 N 
ATOM     38  C   UNK d   1      25.730  34.381  66.399  0.00  0.00     0.116 A 
ATOM     39  H   UNK d   1      27.872  34.092  66.322  0.00  0.00     0.166 HD
ENDBRANCH  33  34
ENDBRANCH  27  33
ENDBRANCH  12  27
TORSDOF 6
ENDMDL
