MODEL 1
REMARK VINA RESULT:    -7.593      0.000      0.000
REMARK INTER + INTRA:          -8.222
REMARK INTER:                  -8.037
REMARK INTRA:                  -0.185
REMARK UNBOUND:                -0.185
REMARK  1 active torsions:
REMARK  status: ('A' for Active; 'I' for Inactive)
REMARK    1  A    between atoms: C_6  and  C_11 
REMARK       I    between atoms: C_11  and  N_13 
ROOT
ATOM      1  C   UNK d   1      14.117  32.742  71.473  0.00  0.00     0.274 C 
ATOM      2  O   UNK d   1      12.920  32.718  71.078  0.00  0.00    -0.266 OA
ATOM      3  N   UNK d   1      14.843  33.951  71.331  0.00  0.00    -0.343 N 
ATOM      4  C   UNK d   1      14.221  35.092  70.765  0.00  0.00     0.161 C 
ATOM      5  C   UNK d   1      15.164  36.025  70.102  0.00  0.00     0.241 C 
ATOM      6  N   UNK d   1      16.551  35.659  70.153  0.00  0.00     0.096 N 
ATOM      7  C   UNK d   1      16.945  35.253  71.490  0.00  0.00     0.292 C 
ATOM      8  C   UNK d   1      16.209  33.959  71.781  0.00  0.00     0.156 C 
ATOM      9  C   UNK d   1      17.226  36.822  69.665  0.00  0.00     0.273 C 
ATOM     10  C   UNK d   1      16.452  37.995  70.211  0.00  0.00     0.032 C 
ATOM     11  C   UNK d   1      15.166  37.403  70.744  0.00  0.00     0.039 C 
ENDROOT
BRANCH   1  12
ATOM     12  C   UNK d   1      14.702  31.528  72.059  0.00  0.00     0.148 A 
ATOM     13  N   UNK d   1      14.623  31.050  73.309  0.00  0.00    -0.161 NA
ATOM     14  N   UNK d   1      15.295  29.918  73.445  0.00  0.00    -0.225 N 
ATOM     15  C   UNK d   1      15.512  29.071  74.486  0.00  0.00     0.141 A 
ATOM     16  C   UNK d   1      15.859  29.593  72.267  0.00  0.00     0.152 A 
ATOM     17  C   UNK d   1      16.270  27.929  74.357  0.00  0.00     0.046 A 
ATOM     18 Br   UNK d   1      16.564  26.745  75.843  0.00  0.00    -0.048 Br
ATOM     19  C   UNK d   1      16.838  27.618  73.142  0.00  0.00     0.139 A 
ATOM     20  N   UNK d   1      16.610  28.468  72.130  0.00  0.00    -0.240 NA
ATOM     21  C   UNK d   1      15.495  30.595  71.391  0.00  0.00     0.091 A 
ENDBRANCH   1  12
TORSDOF 1
ENDMDL
