MODEL 1
REMARK VINA RESULT:    -8.125      0.000      0.000
REMARK INTER + INTRA:          -9.630
REMARK INTER:                  -9.075
REMARK INTRA:                  -0.554
REMARK UNBOUND:                -0.554
REMARK  2 active torsions:
REMARK  status: ('A' for Active; 'I' for Inactive)
REMARK    1  A    between atoms: C_7  and  C_11 
REMARK       I    between atoms: C_11  and  N_13 
REMARK       I    between atoms: N_16  and  C_19 
REMARK    2  A    between atoms: C_19  and  C_21 
ROOT
ATOM      1  C   UNK d   1      20.569  35.184  71.002  0.00  0.00     0.259 C 
ATOM      2  O   UNK d   1      20.866  35.211  72.231  0.00  0.00    -0.267 OA
ATOM      3  N   UNK d   1      21.395  34.511  70.066  0.00  0.00    -0.345 N 
ATOM      4  C   UNK d   1      20.975  34.529  68.656  0.00  0.00     0.146 C 
ATOM      5  C   UNK d   1      22.281  34.357  67.881  0.00  0.00     0.145 C 
ATOM      6  N   UNK d   1      23.263  35.119  68.594  0.00  0.00    -0.354 N 
ATOM      7  C   UNK d   1      23.848  34.358  69.737  0.00  0.00     0.145 C 
ATOM      8  C   UNK d   1      22.614  33.825  70.469  0.00  0.00     0.146 C 
ATOM      9  C   UNK d   1      23.670  36.425  68.376  0.00  0.00     0.211 C 
ATOM     10  O   UNK d   1      24.618  36.883  69.139  0.00  0.00    -0.169 OA
ENDROOT
BRANCH   1  11
ATOM     11  C   UNK d   1      19.364  35.858  70.583  0.00  0.00     0.099 A 
ATOM     12  C   UNK d   1      19.220  37.087  69.983  0.00  0.00     0.160 A 
ATOM     13  N   UNK d   1      17.916  37.324  69.764  0.00  0.00    -0.178 NA
ATOM     14  N   UNK d   1      17.223  36.274  70.210  0.00  0.00    -0.225 N 
ATOM     15  C   UNK d   1      15.921  36.019  70.228  0.00  0.00     0.141 A 
ATOM     16  C   UNK d   1      18.072  35.362  70.716  0.00  0.00     0.167 A 
ATOM     17  C   UNK d   1      15.440  34.857  70.746  0.00  0.00     0.046 A 
ATOM     18 Br   UNK d   1      13.571  34.498  70.767  0.00  0.00    -0.048 Br
ATOM     19  C   UNK d   1      16.308  33.932  71.259  0.00  0.00     0.139 A 
ATOM     20  N   UNK d   1      17.613  34.211  71.230  0.00  0.00    -0.239 NA
ENDBRANCH   1  11
BRANCH   9  21
ATOM     21  C   UNK d   1      23.195  37.398  67.407  0.00  0.00     0.128 A 
ATOM     22  O   UNK d   1      21.950  37.894  67.376  0.00  0.00    -0.318 OA
ATOM     23  C   UNK d   1      21.789  38.738  66.415  0.00  0.00     0.142 A 
ATOM     24  C   UNK d   1      22.963  38.862  65.715  0.00  0.00     0.027 A 
ATOM     25  C   UNK d   1      23.842  38.005  66.358  0.00  0.00     0.043 A 
ENDBRANCH   9  21
TORSDOF 2
ENDMDL
