/Users/jonathanwahrer/Desktop/Msc/3_Semester/Drug_Design_Praktikum/waehrer_HTS_screening/HTS_experiment/out/docking_results/vina_output/4x21/0797_docked.pdbqt
 OpenBabel03212201543D

 28 31  0  0  0  0  0  0  0  0999 V2000
   18.1970   30.8490   71.5140 O   0  0  0  0  0  0  0  0  0  0  0  0
   19.1480   31.6460   72.1680 C   0  0  0  0  0  2  0  0  0  0  0  0
   19.8680   32.5800   71.2640 C   0  0  0  0  0  0  0  0  0  0  0  0
   19.3760   33.8070   70.9710 N   0  0  0  0  0  0  0  0  0  0  0  0
   20.0090   34.6720   70.1590 C   0  0  0  0  0  0  0  0  0  0  0  0
   21.1840   34.3790   69.5740 N   0  0  0  0  0  0  0  0  0  0  0  0
   19.4720   35.9310   69.8790 C   0  0  0  0  0  3  0  0  0  0  0  0
   21.8060   35.2600   68.7610 C   0  0  0  0  0  3  0  0  0  0  0  0
   21.7140   33.1660   69.8370 C   0  0  0  0  0  0  0  0  0  0  0  0
   21.3010   36.5070   68.4670 C   0  0  0  0  0  0  0  0  0  0  0  0
   22.2260   37.7200   67.3040 Br  0  0  0  0  0  0  0  0  0  0  0  0
   20.0970   36.8370   69.0510 C   0  0  0  0  0  3  0  0  0  0  0  0
   21.0720   32.2580   70.6750 C   0  0  0  0  0  3  0  0  0  0  0  0
   22.7980   32.8870   69.3020 O   0  0  0  0  0  0  0  0  0  0  0  0
   17.0320   30.3680   72.0740 C   0  0  0  0  0  0  0  0  0  0  0  0
   16.6750   29.1960   71.8420 O   0  0  0  0  0  0  0  0  0  0  0  0
   16.2370   31.2670   72.9420 C   0  0  0  0  0  2  0  0  0  0  0  0
   15.6130   32.3060   72.1740 N   0  0  0  0  0  0  0  0  0  0  0  0
   14.5430   32.1450   71.2690 C   0  0  0  0  0  0  0  0  0  0  0  0
   13.9230   31.0990   70.9440 O   0  0  0  0  0  0  0  0  0  0  0  0
   14.2160   33.4700   70.7000 C   0  0  0  0  0  0  0  0  0  0  0  0
   15.0700   34.3820   71.2580 C   0  0  0  0  0  0  0  0  0  0  0  0
   13.2600   33.8610   69.7780 C   0  0  0  0  0  3  0  0  0  0  0  0
   15.0160   35.7070   70.9320 C   0  0  0  0  0  3  0  0  0  0  0  0
   15.9540   33.6730   72.1860 C   0  0  0  0  0  0  0  0  0  0  0  0
   14.0770   36.1200   70.0180 C   0  0  0  0  0  3  0  0  0  0  0  0
   13.2140   35.2000   69.4550 C   0  0  0  0  0  3  0  0  0  0  0  0
   16.8670   34.2290   72.8700 O   0  0  0  0  0  0  0  0  0  0  0  0
  1 15  1  0  0  0  0
  1  2  1  0  0  0  0
  3  2  1  0  0  0  0
  4  3  1  0  0  0  0
  5  4  2  0  0  0  0
  6  9  1  0  0  0  0
  6  5  1  0  0  0  0
  7  5  1  0  0  0  0
  8  6  1  0  0  0  0
  9 13  1  0  0  0  0
 10  8  2  0  0  0  0
 10 12  1  0  0  0  0
 11 10  1  0  0  0  0
 12  7  2  0  0  0  0
 13  3  2  0  0  0  0
 14  9  2  0  0  0  0
 15 17  1  0  0  0  0
 16 15  2  0  0  0  0
 18 25  1  0  0  0  0
 18 17  1  0  0  0  0
 19 18  1  0  0  0  0
 20 19  2  0  0  0  0
 21 22  1  0  0  0  0
 21 19  1  0  0  0  0
 22 25  1  0  0  0  0
 23 21  2  0  0  0  0
 24 22  2  0  0  0  0
 25 28  2  0  0  0  0
 26 24  1  0  0  0  0
 27 23  1  0  0  0  0
 27 26  2  0  0  0  0
M  END
>  <Pose>
1

>  <Score>
-8.955

$$$$
