MODEL 1
REMARK VINA RESULT:    -8.504      0.000      0.000
REMARK INTER + INTRA:         -12.138
REMARK INTER:                 -10.990
REMARK INTRA:                  -1.149
REMARK UNBOUND:                -1.149
REMARK  5 active torsions:
REMARK  status: ('A' for Active; 'I' for Inactive)
REMARK    1  A    between atoms: C_7  and  C_11 
REMARK    2  A    between atoms: C_11  and  O_12 
REMARK    3  A    between atoms: O_12  and  C_13 
REMARK    4  A    between atoms: C_13  and  C_15 
REMARK    5  A    between atoms: C_15  and  N_16 
ROOT
ATOM      1  C   UNK d   1      18.790  37.269  69.563  0.00  0.00     0.277 C 
ATOM      2  O   UNK d   1      18.631  37.617  68.364  0.00  0.00    -0.263 OA
ENDROOT
BRANCH   1   3
ATOM      3  O   UNK d   1      17.676  37.155  70.360  0.00  0.00    -0.314 OA
BRANCH   3   4
ATOM      4  C   UNK d   1      16.363  37.071  69.840  0.00  0.00     0.238 C 
BRANCH   4   5
ATOM      5  C   UNK d   1      15.707  35.862  70.398  0.00  0.00     0.066 A 
ATOM      6  N   UNK d   1      16.362  35.018  71.215  0.00  0.00    -0.233 NA
ATOM      7  C   UNK d   1      15.774  33.912  71.730  0.00  0.00     0.137 A 
ATOM      8  N   UNK d   1      14.492  33.611  71.437  0.00  0.00    -0.272 N 
ATOM      9  C   UNK d   1      16.491  33.077  72.564  0.00  0.00     0.052 A 
ATOM     10  C   UNK d   1      13.889  32.519  71.937  0.00  0.00     0.121 A 
ATOM     11  C   UNK d   1      13.792  34.430  70.620  0.00  0.00     0.255 A 
ATOM     12  C   UNK d   1      14.599  31.682  72.770  0.00  0.00     0.027 A 
ATOM     13 Br   UNK d   1      13.739  30.131  73.478  0.00  0.00    -0.050 Br
ATOM     14  C   UNK d   1      15.920  31.945  73.101  0.00  0.00     0.024 A 
ATOM     15  C   UNK d   1      14.399  35.572  70.088  0.00  0.00     0.104 A 
ATOM     16  O   UNK d   1      12.611  34.159  70.347  0.00  0.00    -0.268 OA
ENDBRANCH   4   5
ENDBRANCH   3   4
ENDBRANCH   1   3
BRANCH   1  17
ATOM     17  C   UNK d   1      20.181  37.009  70.018  0.00  0.00     0.247 C 
BRANCH  17  18
ATOM     18  N   UNK d   1      20.556  35.633  69.882  0.00  0.00    -0.259 N 
ATOM     19  C   UNK d   1      21.012  34.990  68.692  0.00  0.00     0.326 C 
ATOM     20  O   UNK d   1      21.152  35.557  67.570  0.00  0.00    -0.247 OA
ATOM     21  N   UNK d   1      21.273  33.626  69.000  0.00  0.00    -0.324 N 
ATOM     22  C   UNK d   1      20.831  33.360  70.346  0.00  0.00     0.116 C 
ATOM     23  H   UNK d   1      21.711  32.960  68.341  0.00  0.00     0.165 HD
ATOM     24  C   UNK d   1      19.596  32.501  70.398  0.00  0.00     0.041 C 
ATOM     25  C   UNK d   1      21.812  32.588  71.161  0.00  0.00     0.041 C 
ATOM     26  C   UNK d   1      20.533  34.665  70.933  0.00  0.00     0.256 C 
ATOM     27  C   UNK d   1      19.611  31.963  71.795  0.00  0.00     0.003 C 
ATOM     28  C   UNK d   1      20.983  32.184  72.361  0.00  0.00     0.003 C 
ATOM     29  O   UNK d   1      20.294  34.945  72.131  0.00  0.00    -0.270 OA
ENDBRANCH  17  18
ENDBRANCH   1  17
TORSDOF 5
ENDMDL
