MODEL 1
REMARK VINA RESULT:    -8.216      0.000      0.000
REMARK INTER + INTRA:         -11.926
REMARK INTER:                 -11.098
REMARK INTRA:                  -0.828
REMARK UNBOUND:                -0.828
REMARK  6 active torsions:
REMARK  status: ('A' for Active; 'I' for Inactive)
REMARK    1  A    between atoms: C_16  and  N_17 
REMARK    2  A    between atoms: N_17  and  C_18 
REMARK    3  A    between atoms: C_19  and  C_24 
REMARK    4  A    between atoms: C_24  and  O_26 
REMARK    5  A    between atoms: O_26  and  C_27 
REMARK    6  A    between atoms: C_27  and  C_28 
ROOT
ATOM      1 Br   UNK d   1      16.432  37.724  70.107  0.00  0.00    -0.046 Br
ATOM      2  C   UNK d   1      18.000  36.653  70.033  0.00  0.00     0.072 A 
ATOM      3  C   UNK d   1      19.191  37.108  69.586  0.00  0.00     0.141 A 
ATOM      4  N   UNK d   1      20.317  36.388  69.613  0.00  0.00    -0.118 N 
ATOM      5  C   UNK d   1      20.266  35.152  70.108  0.00  0.00     0.716 A 
ATOM      6  N   UNK d   1      21.399  34.396  70.138  0.00  0.00    -0.063 NA
ATOM      7  C   UNK d   1      22.571  34.829  69.694  0.00  0.00     0.091 A 
ATOM      8  C   UNK d   1      22.650  36.103  69.178  0.00  0.00     0.062 A 
ATOM      9  C   UNK d   1      23.839  36.608  68.693  0.00  0.00     0.019 A 
ATOM     10  C   UNK d   1      25.020  35.865  68.698  0.00  0.00     0.001 A 
ATOM     11  C   UNK d   1      24.929  34.591  69.216  0.00  0.00     0.002 A 
ATOM     12  C   UNK d   1      23.739  34.081  69.704  0.00  0.00     0.033 A 
ATOM     13  C   UNK d   1      21.483  36.858  69.157  0.00  0.00     0.278 A 
ATOM     14  O   UNK d   1      21.541  38.017  68.690  0.00  0.00    -0.266 OA
ATOM     15  N   UNK d   1      19.084  34.672  70.561  0.00  0.00    -0.173 N 
ATOM     16  C   UNK d   1      17.929  35.323  70.567  0.00  0.00     0.140 A 
ATOM     17  H   UNK d   1      19.178  33.672  70.932  0.00  0.00     0.186 HD
ENDROOT
BRANCH  16  18
ATOM     18  N   UNK d   1      16.692  34.873  70.905  0.00  0.00    -0.340 N 
ATOM     19  H   UNK d   1      17.175  34.233  72.011  0.00  0.00     0.167 HD
BRANCH  18  20
ATOM     20  C   UNK d   1      15.473  34.430  71.239  0.00  0.00     0.050 A 
ATOM     21  C   UNK d   1      15.332  33.148  71.787  0.00  0.00     0.066 A 
ATOM     22  C   UNK d   1      14.107  32.580  71.915  0.00  0.00     0.020 A 
ATOM     23  C   UNK d   1      12.980  33.255  71.513  0.00  0.00     0.001 A 
ATOM     24  C   UNK d   1      13.051  34.520  70.974  0.00  0.00     0.002 A 
ATOM     25  C   UNK d   1      14.304  35.073  70.852  0.00  0.00     0.030 A 
BRANCH  21  26
ATOM     26  C   UNK d   1      16.468  32.430  72.378  0.00  0.00     0.295 C 
ATOM     27  O   UNK d   1      16.986  32.914  73.416  0.00  0.00    -0.259 OA
BRANCH  26  28
ATOM     28  O   UNK d   1      17.017  31.278  71.894  0.00  0.00    -0.317 OA
BRANCH  28  29
ATOM     29  C   UNK d   1      17.117  30.094  72.662  0.00  0.00     0.178 C 
BRANCH  29  30
ATOM     30  C   UNK d   1      15.777  29.353  72.670  0.00  0.00     0.022 C 
ATOM     31  C   UNK d   1      15.137  29.529  74.027  0.00  0.00     0.007 C 
ENDBRANCH  29  30
ENDBRANCH  28  29
ENDBRANCH  26  28
ENDBRANCH  21  26
ENDBRANCH  18  20
ENDBRANCH  16  18
TORSDOF 6
ENDMDL
