MODEL 1
REMARK VINA RESULT:    -8.758      0.000      0.000
REMARK INTER + INTRA:         -14.025
REMARK INTER:                 -12.341
REMARK INTRA:                  -1.683
REMARK UNBOUND:                -1.683
REMARK  7 active torsions:
REMARK  status: ('A' for Active; 'I' for Inactive)
REMARK    1  A    between atoms: C_5  and  C_8 
REMARK    2  A    between atoms: C_8  and  C_10 
REMARK    3  A    between atoms: C_10  and  N_11 
REMARK    4  A    between atoms: C_13  and  C_21 
REMARK    5  A    between atoms: C_21  and  N_22 
REMARK    6  A    between atoms: N_22  and  C_23 
REMARK    7  A    between atoms: C_26  and  O_29 
ROOT
ATOM      1  N   UNK d   1      20.366  36.529  70.034  0.00  0.00    -0.249 N 
ATOM      2  N   UNK d   1      19.139  36.992  70.110  0.00  0.00    -0.155 NA
ATOM      3  C   UNK d   1      18.713  37.400  68.906  0.00  0.00     0.145 A 
ATOM      4  N   UNK d   1      19.716  37.183  68.043  0.00  0.00    -0.321 N 
ATOM      5  C   UNK d   1      20.745  36.639  68.756  0.00  0.00     0.104 A 
ATOM      6  C   UNK d   1      22.046  36.238  68.222  0.00  0.00     0.078 C 
ATOM      7  C   UNK d   1      22.787  37.374  67.557  0.00  0.00     0.008 C 
ATOM      8  C   UNK d   1      22.167  37.755  66.231  0.00  0.00     0.002 C 
ATOM      9  C   UNK d   1      20.848  38.449  66.373  0.00  0.00     0.020 C 
ATOM     10  C   UNK d   1      19.706  37.473  66.622  0.00  0.00     0.132 C 
ENDROOT
BRANCH   3  11
ATOM     11  C   UNK d   1      17.407  37.979  68.559  0.00  0.00     0.200 C 
BRANCH  11  12
ATOM     12  N   UNK d   1      16.504  38.004  69.668  0.00  0.00    -0.383 N 
ATOM     13  H   UNK d   1      16.545  38.775  70.351  0.00  0.00     0.160 HD
BRANCH  12  14
ATOM     14  C   UNK d   1      15.524  36.995  69.893  0.00  0.00     0.028 A 
ATOM     15  C   UNK d   1      14.248  37.084  69.385  0.00  0.00     0.032 A 
ATOM     16  C   UNK d   1      13.314  36.104  69.604  0.00  0.00     0.039 A 
ATOM     17  C   UNK d   1      13.647  35.012  70.342  0.00  0.00     0.068 A 
ATOM     18  C   UNK d   1      14.923  34.920  70.853  0.00  0.00     0.039 A 
ATOM     19  C   UNK d   1      15.871  35.899  70.638  0.00  0.00     0.032 A 
BRANCH  17  20
ATOM     20  O   UNK d   1      12.731  34.015  70.578  0.00  0.00    -0.356 OA
ATOM     21  C   UNK d   1      12.789  33.174  71.704  0.00  0.00     0.210 C 
ENDBRANCH  17  20
ENDBRANCH  12  14
ENDBRANCH  11  12
ENDBRANCH   3  11
BRANCH   1  22
ATOM     22  C   UNK d   1      21.154  36.005  71.109  0.00  0.00     0.236 C 
BRANCH  22  23
ATOM     23  C   UNK d   1      21.026  34.528  71.221  0.00  0.00     0.179 C 
ATOM     24  O   UNK d   1      22.031  33.832  70.919  0.00  0.00    -0.290 OA
BRANCH  23  25
ATOM     25  C   UNK d   1      19.812  33.872  71.656  0.00  0.00     0.011 A 
ATOM     26  C   UNK d   1      19.201  34.184  72.848  0.00  0.00     0.016 A 
ATOM     27  C   UNK d   1      18.034  33.544  73.254  0.00  0.00     0.020 A 
ATOM     28  C   UNK d   1      17.461  32.571  72.453  0.00  0.00     0.011 A 
ATOM     29 Br   UNK d   1      15.847  31.691  73.021  0.00  0.00    -0.051 Br
ATOM     30  C   UNK d   1      18.064  32.252  71.259  0.00  0.00     0.020 A 
ATOM     31  C   UNK d   1      19.215  32.900  70.884  0.00  0.00     0.016 A 
ENDBRANCH  23  25
ENDBRANCH  22  23
ENDBRANCH   1  22
TORSDOF 7
ENDMDL
