/Users/jonathanwahrer/Desktop/Msc/3_Semester/Drug_Design_Praktikum/waehrer_HTS_screening/HTS_experiment/out/docking_results/vina_output/4x21/0827_docked.pdbqt
 OpenBabel03212201553D

 29 32  0  0  1  0  0  0  0  0999 V2000
   20.7040   36.5990   71.0130 C   0  0  2  0  0  0  0  0  0  0  0  0
   19.7350   36.9050   69.9640 N   0  0  0  0  0  4  0  0  0  0  0  0
   20.3300   36.7760   68.7320 C   0  0  0  0  0  0  0  0  0  0  0  0
   19.9560   37.2430   67.5670 C   0  0  0  0  0  3  0  0  0  0  0  0
   20.5110   37.1610   66.1850 C   0  0  0  0  0  2  0  0  0  0  0  0
   21.8720   36.5440   66.1060 C   0  0  0  0  0  2  0  0  0  0  0  0
   21.8880   35.1530   66.6940 C   0  0  0  0  0  2  0  0  0  0  0  0
   22.3640   35.2060   68.1330 C   0  0  0  0  0  2  0  0  0  0  0  0
   21.5910   36.0980   68.9350 N   0  0  0  0  0  0  0  0  0  0  0  0
   22.0700   36.5160   70.2590 C   0  0  0  0  0  2  0  0  0  0  0  0
   19.7260   38.0380   70.0800 H   0  0  0  0  0  0  0  0  0  0  0  0
   18.4290   36.5980   70.2390 C   0  0  0  0  0  0  0  0  0  0  0  0
   17.8860   35.3480   70.2270 C   0  0  0  0  0  3  0  0  0  0  0  0
   16.5060   35.1120   70.3460 C   0  0  0  0  0  3  0  0  0  0  0  0
   15.6260   36.1530   70.4840 C   0  0  0  0  0  0  0  0  0  0  0  0
   16.1710   37.4290   70.5000 C   0  0  0  0  0  3  0  0  0  0  0  0
   17.5250   37.6560   70.3810 C   0  0  0  0  0  3  0  0  0  0  0  0
   14.2620   35.9420   70.5910 O   0  0  0  0  0  0  0  0  0  0  0  0
   13.3360   36.0670   69.5420 C   0  0  0  0  0  2  0  0  0  0  0  0
   12.9480   34.6260   69.1580 C   0  0  0  0  0  1  0  0  0  0  0  0
   20.5270   35.2030   71.5040 C   0  0  0  0  0  0  0  0  0  0  0  0
   21.1720   34.1290   70.9350 C   0  0  0  0  0  3  0  0  0  0  0  0
   20.9840   32.8540   71.4260 C   0  0  0  0  0  3  0  0  0  0  0  0
   20.1430   32.6370   72.5020 C   0  0  0  0  0  0  0  0  0  0  0  0
   19.8960   30.8760   73.1500 Br  0  0  0  0  0  0  0  0  0  0  0  0
   19.4940   33.6990   73.0800 C   0  0  0  0  0  3  0  0  0  0  0  0
   19.7000   34.9860   72.5640 C   0  0  0  0  0  3  0  0  0  0  0  0
   20.8160   37.5620   71.9400 O   0  0  0  0  0  0  0  0  0  0  0  0
   21.5410   37.5520   72.5820 H   0  0  0  0  0  0  0  0  0  0  0  0
  1 21  1  0  0  0  0
  1 28  1  1  0  0  0
  2 11  1  0  0  0  0
  2 12  1  0  0  0  0
  2  1  1  0  0  0  0
  3  9  1  0  0  0  0
  3  2  1  0  0  0  0
  4  3  2  0  0  0  0
  5  4  1  0  0  0  0
  6  5  1  0  0  0  0
  6  7  1  0  0  0  0
  7  8  1  0  0  0  0
  8  9  1  0  0  0  0
  9 10  1  0  0  0  0
 10  1  1  0  0  0  0
 12 17  1  0  0  0  0
 13 12  2  0  0  0  0
 13 14  1  0  0  0  0
 14 15  2  0  0  0  0
 15 16  1  0  0  0  0
 15 18  1  0  0  0  0
 17 16  2  0  0  0  0
 19 18  1  0  0  0  0
 20 19  1  0  0  0  0
 21 27  1  0  0  0  0
 22 23  1  0  0  0  0
 22 21  2  0  0  0  0
 23 24  2  0  0  0  0
 24 26  1  0  0  0  0
 24 25  1  0  0  0  0
 27 26  2  0  0  0  0
 28 29  1  0  0  0  0
M  END
>  <Pose>
1

>  <Score>
-7.942

$$$$
