MODEL 1
REMARK VINA RESULT:    -7.654      0.000      0.000
REMARK INTER + INTRA:          -9.928
REMARK INTER:                  -9.220
REMARK INTRA:                  -0.708
REMARK UNBOUND:                -0.708
REMARK  4 active torsions:
REMARK  status: ('A' for Active; 'I' for Inactive)
REMARK    1  A    between atoms: C_5  and  C_8 
REMARK    2  A    between atoms: C_8  and  O_26 
REMARK    3  A    between atoms: N_16  and  C_18 
REMARK    4  A    between atoms: C_19  and  O_24 
ROOT
ATOM      1  C   UNK d   1      20.026  35.074  71.638  0.00  0.00     0.189 C 
ATOM      2  N   UNK d   1      20.700  33.998  70.924  0.00  0.00    -0.324 N 
ATOM      3  C   UNK d   1      20.089  32.691  70.713  0.00  0.00     0.128 C 
ATOM      4  C   UNK d   1      21.051  31.663  70.243  0.00  0.00     0.020 C 
ATOM      5  C   UNK d   1      22.295  31.553  71.086  0.00  0.00     0.005 C 
ATOM      6  C   UNK d   1      23.350  32.390  70.386  0.00  0.00     0.031 C 
ATOM      7  C   UNK d   1      23.084  33.796  70.314  0.00  0.00     0.030 C 
ATOM      8  C   UNK d   1      21.946  34.491  70.545  0.00  0.00     0.208 C 
ATOM      9  N   UNK d   1      21.914  35.892  70.396  0.00  0.00     0.011 N 
ATOM     10  C   UNK d   1      20.659  36.253  70.986  0.00  0.00     0.316 C 
ATOM     11  H   UNK d   1      22.679  36.398  70.899  0.00  0.00     0.295 HD
ENDROOT
BRANCH   1  12
ATOM     12  C   UNK d   1      18.565  34.993  71.437  0.00  0.00    -0.001 A 
ATOM     13  C   UNK d   1      17.993  35.768  70.423  0.00  0.00     0.013 A 
ATOM     14  C   UNK d   1      16.606  35.700  70.281  0.00  0.00     0.020 A 
ATOM     15  C   UNK d   1      15.853  34.903  71.112  0.00  0.00     0.011 A 
ATOM     16 Br   UNK d   1      13.953  34.839  70.881  0.00  0.00    -0.051 Br
ATOM     17  C   UNK d   1      16.455  34.149  72.104  0.00  0.00     0.020 A 
ATOM     18  C   UNK d   1      17.830  34.202  72.261  0.00  0.00     0.013 A 
ENDBRANCH   1  12
BRANCH   1  19
ATOM     19  O   UNK d   1      20.327  34.936  72.968  0.00  0.00    -0.365 OA
ATOM     20  H   UNK d   1      19.576  35.116  73.571  0.00  0.00     0.213 HD
ENDBRANCH   1  19
BRANCH   9  21
ATOM     21  C   UNK d   1      21.948  36.141  68.990  0.00  0.00     0.175 A 
ATOM     22  C   UNK d   1      23.057  36.723  68.400  0.00  0.00     0.103 A 
ATOM     23  C   UNK d   1      22.960  36.994  67.041  0.00  0.00     0.039 A 
ATOM     24  C   UNK d   1      21.844  36.720  66.272  0.00  0.00     0.003 A 
ATOM     25  C   UNK d   1      20.739  36.126  66.918  0.00  0.00     0.002 A 
ATOM     26  C   UNK d   1      20.847  35.867  68.237  0.00  0.00     0.041 A 
BRANCH  22  27
ATOM     27  O   UNK d   1      24.163  36.996  69.146  0.00  0.00    -0.354 OA
ATOM     28  C   UNK d   1      25.450  36.988  68.585  0.00  0.00     0.210 C 
ENDBRANCH  22  27
ENDBRANCH   9  21
TORSDOF 4
ENDMDL
