MODEL 1
REMARK VINA RESULT:    -7.236      0.000      0.000
REMARK INTER + INTRA:          -9.225
REMARK INTER:                  -8.716
REMARK INTRA:                  -0.509
REMARK UNBOUND:                -0.509
REMARK  4 active torsions:
REMARK  status: ('A' for Active; 'I' for Inactive)
REMARK    1  A    between atoms: C_5  and  C_8 
REMARK    2  A    between atoms: C_8  and  O_26 
REMARK    3  A    between atoms: N_16  and  C_18 
REMARK    4  A    between atoms: C_21  and  O_24 
ROOT
ATOM      1  C   UNK d   1      20.694  33.182  70.822  0.00  0.00     0.189 C 
ATOM      2  N   UNK d   1      20.751  34.426  70.125  0.00  0.00    -0.324 N 
ATOM      3  C   UNK d   1      21.045  34.648  68.743  0.00  0.00     0.128 C 
ATOM      4  C   UNK d   1      22.001  35.729  68.414  0.00  0.00     0.020 C 
ATOM      5  C   UNK d   1      22.542  36.527  69.544  0.00  0.00     0.005 C 
ATOM      6  C   UNK d   1      21.498  37.479  70.130  0.00  0.00     0.031 C 
ATOM      7  C   UNK d   1      20.729  36.695  71.145  0.00  0.00     0.030 C 
ATOM      8  C   UNK d   1      20.416  35.410  71.141  0.00  0.00     0.208 C 
ATOM      9  N   UNK d   1      19.689  34.763  72.178  0.00  0.00     0.009 N 
ATOM     10  C   UNK d   1      20.428  33.541  72.288  0.00  0.00     0.316 C 
ATOM     11  H   UNK d   1      19.763  35.358  73.041  0.00  0.00     0.295 HD
ENDROOT
BRANCH   1  12
ATOM     12  C   UNK d   1      21.900  32.359  70.854  0.00  0.00    -0.001 A 
ATOM     13  C   UNK d   1      23.175  32.731  70.583  0.00  0.00     0.013 A 
ATOM     14  C   UNK d   1      24.238  31.840  70.655  0.00  0.00     0.020 A 
ATOM     15  C   UNK d   1      24.020  30.526  71.013  0.00  0.00     0.011 A 
ATOM     16 Br   UNK d   1      25.466  29.279  71.124  0.00  0.00    -0.051 Br
ATOM     17  C   UNK d   1      22.728  30.145  71.288  0.00  0.00     0.020 A 
ATOM     18  C   UNK d   1      21.671  31.016  71.221  0.00  0.00     0.013 A 
ENDBRANCH   1  12
BRANCH   1  19
ATOM     19  O   UNK d   1      19.669  32.344  70.339  0.00  0.00    -0.365 OA
ATOM     20  H   UNK d   1      19.897  31.441  70.679  0.00  0.00     0.213 HD
ENDBRANCH   1  19
BRANCH   9  21
ATOM     21  C   UNK d   1      18.359  34.583  71.764  0.00  0.00     0.142 A 
ATOM     22  C   UNK d   1      17.530  33.638  72.397  0.00  0.00     0.040 A 
ATOM     23  C   UNK d   1      16.232  33.436  72.014  0.00  0.00     0.039 A 
ATOM     24  C   UNK d   1      15.677  34.161  70.981  0.00  0.00     0.068 A 
ATOM     25  C   UNK d   1      16.465  35.087  70.349  0.00  0.00     0.039 A 
ATOM     26  C   UNK d   1      17.774  35.290  70.735  0.00  0.00     0.040 A 
BRANCH  24  27
ATOM     27  O   UNK d   1      14.340  33.946  70.595  0.00  0.00    -0.356 OA
ATOM     28  C   UNK d   1      13.566  32.978  71.254  0.00  0.00     0.210 C 
ENDBRANCH  24  27
ENDBRANCH   9  21
TORSDOF 4
ENDMDL
