MODEL 1
REMARK VINA RESULT:    -7.260      0.000      0.000
REMARK INTER + INTRA:          -8.753
REMARK INTER:                  -8.745
REMARK INTRA:                  -0.008
REMARK UNBOUND:                -0.008
REMARK  4 active torsions:
REMARK  status: ('A' for Active; 'I' for Inactive)
REMARK    1  A    between atoms: C_5  and  C_8 
REMARK    2  A    between atoms: C_8  and  O_25 
REMARK    3  A    between atoms: N_15  and  C_17 
REMARK    4  A    between atoms: C_18  and  O_23 
ROOT
ATOM      1  C   UNK d   1      14.758  30.541  72.921  0.00  0.00     0.189 C 
ATOM      2  N   UNK d   1      13.868  30.385  74.052  0.00  0.00    -0.324 N 
ATOM      3  C   UNK d   1      12.543  30.820  74.441  0.00  0.00     0.128 C 
ATOM      4  C   UNK d   1      11.812  29.771  75.254  0.00  0.00     0.024 C 
ATOM      5  C   UNK d   1      12.631  29.461  76.461  0.00  0.00     0.032 C 
ATOM      6  C   UNK d   1      14.030  29.144  76.105  0.00  0.00     0.030 C 
ATOM      7  C   UNK d   1      14.597  29.581  74.977  0.00  0.00     0.208 C 
ATOM      8  N   UNK d   1      15.920  29.371  74.537  0.00  0.00     0.011 N 
ATOM      9  C   UNK d   1      16.110  30.473  73.571  0.00  0.00     0.316 C 
ATOM     10  H   UNK d   1      16.624  29.626  75.305  0.00  0.00     0.295 HD
ENDROOT
BRANCH   1  11
ATOM     11  C   UNK d   1      14.552  31.814  72.188  0.00  0.00    -0.001 A 
ATOM     12  C   UNK d   1      15.407  32.875  72.397  0.00  0.00     0.013 A 
ATOM     13  C   UNK d   1      15.271  34.093  71.732  0.00  0.00     0.020 A 
ATOM     14  C   UNK d   1      14.242  34.244  70.830  0.00  0.00     0.011 A 
ATOM     15 Br   UNK d   1      14.037  35.918  69.912  0.00  0.00    -0.051 Br
ATOM     16  C   UNK d   1      13.378  33.192  70.611  0.00  0.00     0.020 A 
ATOM     17  C   UNK d   1      13.527  31.991  71.278  0.00  0.00     0.013 A 
ENDBRANCH   1  11
BRANCH   1  18
ATOM     18  O   UNK d   1      14.663  29.493  72.012  0.00  0.00    -0.365 OA
ATOM     19  H   UNK d   1      13.992  29.762  71.339  0.00  0.00     0.213 HD
ENDBRANCH   1  18
BRANCH   8  20
ATOM     20  C   UNK d   1      16.211  28.140  73.959  0.00  0.00     0.175 A 
ATOM     21  C   UNK d   1      17.376  27.871  73.286  0.00  0.00     0.103 A 
ATOM     22  C   UNK d   1      17.594  26.616  72.713  0.00  0.00     0.039 A 
ATOM     23  C   UNK d   1      16.651  25.626  72.810  0.00  0.00     0.003 A 
ATOM     24  C   UNK d   1      15.479  25.885  73.486  0.00  0.00     0.002 A 
ATOM     25  C   UNK d   1      15.272  27.120  74.047  0.00  0.00     0.041 A 
BRANCH  21  26
ATOM     26  O   UNK d   1      18.379  28.809  73.142  0.00  0.00    -0.354 OA
ATOM     27  C   UNK d   1      19.486  28.816  73.980  0.00  0.00     0.210 C 
ENDBRANCH  21  26
ENDBRANCH   8  20
TORSDOF 4
ENDMDL
