/Users/jonathanwahrer/Desktop/Msc/3_Semester/Drug_Design_Praktikum/waehrer_HTS_screening/HTS_experiment/out/docking_results/vina_output/4x21/0835_docked.pdbqt
 OpenBabel03212201563D

 27 30  0  0  1  0  0  0  0  0999 V2000
   14.7580   30.5410   72.9210 C   0  0  2  0  0  0  0  0  0  0  0  0
   13.8680   30.3850   74.0520 N   0  0  0  0  0  0  0  0  0  0  0  0
   12.5430   30.8200   74.4410 C   0  0  0  0  0  2  0  0  0  0  0  0
   11.8120   29.7710   75.2540 C   0  0  0  0  0  2  0  0  0  0  0  0
   12.6310   29.4610   76.4610 C   0  0  0  0  0  2  0  0  0  0  0  0
   14.0300   29.1440   76.1050 C   0  0  0  0  0  3  0  0  0  0  0  0
   14.5970   29.5810   74.9770 C   0  0  0  0  0  0  0  0  0  0  0  0
   15.9200   29.3710   74.5370 N   0  0  0  0  0  4  0  0  0  0  0  0
   16.1100   30.4730   73.5710 C   0  0  0  0  0  2  0  0  0  0  0  0
   16.6240   29.6260   75.3050 H   0  0  0  0  0  0  0  0  0  0  0  0
   14.5520   31.8140   72.1880 C   0  0  0  0  0  0  0  0  0  0  0  0
   15.4070   32.8750   72.3970 C   0  0  0  0  0  3  0  0  0  0  0  0
   15.2710   34.0930   71.7320 C   0  0  0  0  0  3  0  0  0  0  0  0
   14.2420   34.2440   70.8300 C   0  0  0  0  0  0  0  0  0  0  0  0
   14.0370   35.9180   69.9120 Br  0  0  0  0  0  0  0  0  0  0  0  0
   13.3780   33.1920   70.6110 C   0  0  0  0  0  3  0  0  0  0  0  0
   13.5270   31.9910   71.2780 C   0  0  0  0  0  3  0  0  0  0  0  0
   14.6630   29.4930   72.0120 O   0  0  0  0  0  0  0  0  0  0  0  0
   13.9920   29.7620   71.3390 H   0  0  0  0  0  0  0  0  0  0  0  0
   16.2110   28.1400   73.9590 C   0  0  0  0  0  0  0  0  0  0  0  0
   17.3760   27.8710   73.2860 C   0  0  0  0  0  0  0  0  0  0  0  0
   17.5940   26.6160   72.7130 C   0  0  0  0  0  3  0  0  0  0  0  0
   16.6510   25.6260   72.8100 C   0  0  0  0  0  3  0  0  0  0  0  0
   15.4790   25.8850   73.4860 C   0  0  0  0  0  3  0  0  0  0  0  0
   15.2720   27.1200   74.0470 C   0  0  0  0  0  3  0  0  0  0  0  0
   18.3790   28.8090   73.1420 O   0  0  0  0  0  0  0  0  0  0  0  0
   19.4860   28.8160   73.9800 C   0  0  0  0  0  1  0  0  0  0  0  0
  1 18  1  6  0  0  0
  1  9  1  0  0  0  0
  1  2  1  0  0  0  0
  2  3  1  0  0  0  0
  2  7  1  0  0  0  0
  3  4  1  0  0  0  0
  4  5  1  0  0  0  0
  6  5  1  0  0  0  0
  7  6  2  0  0  0  0
  8  7  1  0  0  0  0
  8 10  1  0  0  0  0
  9  8  1  0  0  0  0
 11 12  1  0  0  0  0
 11  1  1  0  0  0  0
 13 12  2  0  0  0  0
 14 13  1  0  0  0  0
 15 14  1  0  0  0  0
 16 14  2  0  0  0  0
 16 17  1  0  0  0  0
 17 11  2  0  0  0  0
 19 18  1  0  0  0  0
 20 25  1  0  0  0  0
 20  8  1  0  0  0  0
 21 20  2  0  0  0  0
 22 23  2  0  0  0  0
 22 21  1  0  0  0  0
 23 24  1  0  0  0  0
 24 25  2  0  0  0  0
 26 21  1  0  0  0  0
 26 27  1  0  0  0  0
M  END
>  <Pose>
1

>  <Score>
-7.260

$$$$
