MODEL 1
REMARK VINA RESULT:    -7.821      0.000      0.000
REMARK INTER + INTRA:         -10.047
REMARK INTER:                  -9.421
REMARK INTRA:                  -0.625
REMARK UNBOUND:                -0.625
REMARK  4 active torsions:
REMARK  status: ('A' for Active; 'I' for Inactive)
REMARK    1  A    between atoms: C_5  and  C_8 
REMARK    2  A    between atoms: C_8  and  O_25 
REMARK    3  A    between atoms: N_15  and  C_17 
REMARK    4  A    between atoms: C_20  and  O_23 
ROOT
ATOM      1  C   UNK d   1      21.225  36.109  69.920  0.00  0.00     0.189 C 
ATOM      2  N   UNK d   1      21.737  34.899  69.326  0.00  0.00    -0.324 N 
ATOM      3  C   UNK d   1      21.863  34.374  67.973  0.00  0.00     0.128 C 
ATOM      4  C   UNK d   1      23.008  33.462  67.763  0.00  0.00     0.024 C 
ATOM      5  C   UNK d   1      23.942  33.301  68.936  0.00  0.00     0.032 C 
ATOM      6  C   UNK d   1      23.259  33.334  70.226  0.00  0.00     0.030 C 
ATOM      7  C   UNK d   1      22.201  34.103  70.405  0.00  0.00     0.208 C 
ATOM      8  N   UNK d   1      21.348  34.337  71.522  0.00  0.00     0.009 N 
ATOM      9  C   UNK d   1      20.829  35.652  71.305  0.00  0.00     0.316 C 
ATOM     10  H   UNK d   1      21.963  34.319  72.380  0.00  0.00     0.295 HD
ENDROOT
BRANCH   1  11
ATOM     11  C   UNK d   1      20.129  36.738  69.188  0.00  0.00    -0.001 A 
ATOM     12  C   UNK d   1      18.905  36.929  69.794  0.00  0.00     0.013 A 
ATOM     13  C   UNK d   1      17.835  37.516  69.151  0.00  0.00     0.020 A 
ATOM     14  C   UNK d   1      17.943  37.949  67.843  0.00  0.00     0.011 A 
ATOM     15 Br   UNK d   1      16.476  38.761  66.931  0.00  0.00    -0.051 Br
ATOM     16  C   UNK d   1      19.159  37.767  67.222  0.00  0.00     0.020 A 
ATOM     17  C   UNK d   1      20.227  37.177  67.873  0.00  0.00     0.013 A 
ENDBRANCH   1  11
BRANCH   1  18
ATOM     18  O   UNK d   1      22.297  37.023  69.981  0.00  0.00    -0.365 OA
ATOM     19  H   UNK d   1      22.110  37.607  70.756  0.00  0.00     0.213 HD
ENDBRANCH   1  18
BRANCH   8  20
ATOM     20  C   UNK d   1      20.404  33.322  71.592  0.00  0.00     0.142 A 
ATOM     21  C   UNK d   1      20.425  32.412  72.623  0.00  0.00     0.040 A 
ATOM     22  C   UNK d   1      19.469  31.386  72.692  0.00  0.00     0.039 A 
ATOM     23  C   UNK d   1      18.491  31.252  71.747  0.00  0.00     0.068 A 
ATOM     24  C   UNK d   1      18.472  32.185  70.693  0.00  0.00     0.039 A 
ATOM     25  C   UNK d   1      19.425  33.181  70.654  0.00  0.00     0.040 A 
BRANCH  23  26
ATOM     26  O   UNK d   1      17.512  30.260  71.753  0.00  0.00    -0.356 OA
ATOM     27  C   UNK d   1      16.183  30.408  71.371  0.00  0.00     0.210 C 
ENDBRANCH  23  26
ENDBRANCH   8  20
TORSDOF 4
ENDMDL
