MODEL 1
REMARK VINA RESULT:    -8.272      0.000      0.000
REMARK INTER + INTRA:         -12.511
REMARK INTER:                 -11.174
REMARK INTRA:                  -1.338
REMARK UNBOUND:                -1.338
REMARK  6 active torsions:
REMARK  status: ('A' for Active; 'I' for Inactive)
REMARK    1  A    between atoms: C_5  and  N_8 
REMARK    2  A    between atoms: N_8  and  C_9 
REMARK    3  A    between atoms: C_9  and  C_10 
REMARK    4  A    between atoms: N_13  and  C_15 
REMARK    5  A    between atoms: C_16  and  C_18 
REMARK    6  A    between atoms: C_21  and  O_24 
ROOT
ATOM      1  C   UNK d   1      20.160  36.251  70.070  0.00  0.00     0.145 A 
ATOM      2  N   UNK d   1      20.732  36.136  68.861  0.00  0.00    -0.321 N 
ATOM      3  C   UNK d   1      21.594  35.104  68.904  0.00  0.00     0.104 A 
ATOM      4  N   UNK d   1      21.555  34.566  70.168  0.00  0.00    -0.250 N 
ATOM      5  N   UNK d   1      20.677  35.288  70.843  0.00  0.00    -0.155 NA
ATOM      6  C   UNK d   1      22.484  34.511  67.901  0.00  0.00     0.078 C 
ATOM      7  C   UNK d   1      23.062  35.484  66.910  0.00  0.00     0.008 C 
ATOM      8  C   UNK d   1      22.033  36.180  66.080  0.00  0.00     0.002 C 
ATOM      9  C   UNK d   1      21.551  37.370  66.876  0.00  0.00     0.020 C 
ATOM     10  C   UNK d   1      20.402  37.012  67.784  0.00  0.00     0.132 C 
ENDROOT
BRANCH   4  11
ATOM     11  C   UNK d   1      22.244  33.447  70.675  0.00  0.00     0.221 C 
ATOM     12  C   UNK d   1      21.478  32.337  71.177  0.00  0.00     0.114 C 
ATOM     13  O   UNK d   1      22.249  31.364  71.664  0.00  0.00    -0.194 OA
BRANCH  12  14
ATOM     14  C   UNK d   1      20.076  32.042  71.271  0.00  0.00    -0.002 A 
ATOM     15  C   UNK d   1      19.493  31.725  72.518  0.00  0.00     0.017 A 
ATOM     16  C   UNK d   1      18.163  31.430  72.664  0.00  0.00     0.037 A 
ATOM     17  C   UNK d   1      17.320  31.429  71.582  0.00  0.00     0.068 A 
ATOM     18  C   UNK d   1      17.844  31.730  70.355  0.00  0.00     0.037 A 
ATOM     19  C   UNK d   1      19.212  32.031  70.219  0.00  0.00     0.017 A 
BRANCH  17  20
ATOM     20  O   UNK d   1      15.967  31.129  71.732  0.00  0.00    -0.356 OA
ATOM     21  C   UNK d   1      15.286  31.300  72.951  0.00  0.00     0.210 C 
ENDBRANCH  17  20
ENDBRANCH  12  14
ENDBRANCH   4  11
BRANCH   1  22
ATOM     22  C   UNK d   1      19.137  37.231  70.559  0.00  0.00     0.200 C 
BRANCH  22  23
ATOM     23  N   UNK d   1      17.927  37.216  69.763  0.00  0.00    -0.383 N 
ATOM     24  H   UNK d   1      17.873  37.730  68.856  0.00  0.00     0.160 HD
BRANCH  23  25
ATOM     25  C   UNK d   1      16.745  36.510  70.162  0.00  0.00     0.028 A 
ATOM     26  C   UNK d   1      15.498  37.001  69.844  0.00  0.00     0.030 A 
ATOM     27  C   UNK d   1      14.372  36.321  70.224  0.00  0.00     0.021 A 
ATOM     28  C   UNK d   1      14.480  35.130  70.935  0.00  0.00     0.011 A 
ATOM     29 Br   UNK d   1      12.918  34.185  71.462  0.00  0.00    -0.051 Br
ATOM     30  C   UNK d   1      15.724  34.621  71.265  0.00  0.00     0.021 A 
ATOM     31  C   UNK d   1      16.834  35.329  70.868  0.00  0.00     0.030 A 
ENDBRANCH  23  25
ENDBRANCH  22  23
ENDBRANCH   1  22
TORSDOF 6
ENDMDL
