MODEL 1
REMARK VINA RESULT:    -7.856      0.000      0.000
REMARK INTER + INTRA:         -10.065
REMARK INTER:                  -9.923
REMARK INTRA:                  -0.142
REMARK UNBOUND:                -0.142
REMARK  5 active torsions:
REMARK  status: ('A' for Active; 'I' for Inactive)
REMARK    1  A    between atoms: C_5  and  N_8 
REMARK    2  A    between atoms: C_9  and  O_18 
REMARK    3  A    between atoms: C_9  and  C_19 
REMARK    4  A    between atoms: C_22  and  O_25 
REMARK    5  A    between atoms: O_25  and  C_26 
ROOT
ATOM      1  N   UNK d   1      15.069  31.203  73.080  0.00  0.00     0.042 N 
ATOM      2  C   UNK d   1      14.392  31.013  71.831  0.00  0.00     0.283 C 
ATOM      3  C   UNK d   1      15.560  30.531  70.972  0.00  0.00     0.200 C 
ATOM      4  N   UNK d   1      16.675  31.374  71.430  0.00  0.00    -0.356 N 
ATOM      5  C   UNK d   1      17.839  31.541  70.634  0.00  0.00     0.124 C 
ATOM      6  C   UNK d   1      18.865  32.475  71.201  0.00  0.00     0.020 C 
ATOM      7  C   UNK d   1      18.199  33.761  71.606  0.00  0.00     0.005 C 
ATOM      8  C   UNK d   1      18.010  33.652  73.126  0.00  0.00     0.031 C 
ATOM      9  C   UNK d   1      16.795  32.855  73.391  0.00  0.00     0.030 C 
ATOM     10  C   UNK d   1      16.250  31.885  72.692  0.00  0.00     0.210 C 
ATOM     11  H   UNK d   1      14.428  31.801  73.689  0.00  0.00     0.299 HD
ENDROOT
BRANCH   2  12
ATOM     12  O   UNK d   1      13.293  30.214  71.825  0.00  0.00    -0.359 OA
ATOM     13  H   UNK d   1      13.443  29.347  71.405  0.00  0.00     0.213 HD
ENDBRANCH   2  12
BRANCH   2  14
ATOM     14  C   UNK d   1      13.973  32.308  71.223  0.00  0.00     0.007 A 
ATOM     15  C   UNK d   1      14.357  32.758  69.995  0.00  0.00     0.015 A 
ATOM     16  C   UNK d   1      13.917  33.993  69.473  0.00  0.00     0.037 A 
ATOM     17  C   UNK d   1      13.072  34.801  70.195  0.00  0.00     0.068 A 
ATOM     18  C   UNK d   1      12.679  34.358  71.435  0.00  0.00     0.037 A 
ATOM     19  C   UNK d   1      13.111  33.153  71.940  0.00  0.00     0.015 A 
BRANCH  17  20
ATOM     20  O   UNK d   1      12.625  36.030  69.683  0.00  0.00    -0.352 OA
BRANCH  20  21
ATOM     21  C   UNK d   1      13.523  37.066  69.362  0.00  0.00     0.171 C 
ATOM     22  C   UNK d   1      14.564  37.272  70.417  0.00  0.00     0.034 C 
ENDBRANCH  20  21
ENDBRANCH  17  20
ENDBRANCH   2  14
BRANCH   1  23
ATOM     23  C   UNK d   1      15.352  30.087  73.839  0.00  0.00     0.146 A 
ATOM     24  C   UNK d   1      14.492  29.729  74.875  0.00  0.00     0.039 A 
ATOM     25  C   UNK d   1      14.705  28.605  75.659  0.00  0.00     0.021 A 
ATOM     26  C   UNK d   1      15.792  27.790  75.439  0.00  0.00     0.011 A 
ATOM     27 Br   UNK d   1      16.093  26.221  76.499  0.00  0.00    -0.051 Br
ATOM     28  C   UNK d   1      16.651  28.113  74.435  0.00  0.00     0.021 A 
ATOM     29  C   UNK d   1      16.412  29.248  73.664  0.00  0.00     0.039 A 
ENDBRANCH   1  23
TORSDOF 5
ENDMDL
