/Users/jonathanwahrer/Desktop/Msc/3_Semester/Drug_Design_Praktikum/waehrer_HTS_screening/HTS_experiment/out/docking_results/vina_output/4x21/0862_docked.pdbqt
 OpenBabel03212201573D

 30 33  0  0  0  0  0  0  0  0999 V2000
   21.1900   37.5590   71.1220 Br  0  0  0  0  0  0  0  0  0  0  0  0
   21.2870   35.8060   70.4300 C   0  0  0  0  0  0  0  0  0  0  0  0
   20.4710   34.8500   70.9830 C   0  0  0  0  0  0  0  0  0  0  0  0
   20.4530   33.5130   70.5520 C   0  0  0  0  0  0  0  0  0  0  0  0
   21.3090   33.1360   69.5090 C   0  0  0  0  0  3  0  0  0  0  0  0
   22.1220   34.1050   68.9640 C   0  0  0  0  0  0  0  0  0  0  0  0
   22.1230   35.4160   69.4040 C   0  0  0  0  0  0  0  0  0  0  0  0
   23.0230   36.4510   68.7900 C   0  0  0  0  0  1  0  0  0  0  0  0
   23.2850   33.5910   67.5450 Br  0  0  0  0  0  0  0  0  0  0  0  0
   19.5740   32.5450   71.1790 C   0  0  0  0  0  0  0  0  0  0  0  0
   19.9910   31.3610   71.2250 O   0  0  0  0  0  0  0  0  0  0  0  0
   18.2860   33.0390   71.7000 C   0  0  0  0  0  0  0  0  0  0  0  0
   18.8150   34.1770   72.6840 C   0  0  0  0  0  2  0  0  0  0  0  0
   19.5880   35.1080   72.0160 O   0  0  0  0  0  0  0  0  0  0  0  0
   17.5170   32.1350   72.5320 C   0  0  0  0  0  2  0  0  0  0  0  0
   16.2950   31.5370   72.2680 N   0  0  0  0  0  4  0  0  0  0  0  0
   15.3020   31.3480   73.2520 C   0  0  0  0  0  2  0  0  0  0  0  0
   14.3940   30.1550   72.9870 C   0  0  0  0  0  2  0  0  0  0  0  0
   15.1390   28.8600   73.0660 C   0  0  0  0  0  2  0  0  0  0  0  0
   16.5300   29.0870   72.5590 C   0  0  0  0  0  2  0  0  0  0  0  0
   16.5290   30.2350   71.6040 C   0  0  0  0  0  2  0  0  0  0  0  0
   15.7740   32.0510   71.4410 H   0  0  0  0  0  0  0  0  0  0  0  0
   17.5300   33.7160   70.6200 C   0  0  0  0  0  2  0  0  0  0  0  0
   16.6280   34.7510   70.9090 N   0  0  0  0  0  4  0  0  0  0  0  0
   16.9840   35.9140   70.0850 C   0  0  0  0  0  2  0  0  0  0  0  0
   16.2640   37.1700   70.5290 C   0  0  0  0  0  2  0  0  0  0  0  0
   14.7740   36.9080   70.2590 C   0  0  0  0  0  2  0  0  0  0  0  0
   14.4410   35.7180   71.1280 C   0  0  0  0  0  2  0  0  0  0  0  0
   15.2310   34.5140   70.5870 C   0  0  0  0  0  2  0  0  0  0  0  0
   16.6090   35.1370   71.8750 H   0  0  0  0  0  0  0  0  0  0  0  0
  2  3  1  0  0  0  0
  2  1  1  0  0  0  0
  3 14  1  0  0  0  0
  4  3  2  0  0  0  0
  4 10  1  0  0  0  0
  5  4  1  0  0  0  0
  6  7  1  0  0  0  0
  6  5  2  0  0  0  0
  7  2  2  0  0  0  0
  8  7  1  0  0  0  0
  9  6  1  0  0  0  0
 10 11  2  0  0  0  0
 10 12  1  0  0  0  0
 12 15  1  0  0  0  0
 12 13  1  0  0  0  0
 14 13  1  0  0  0  0
 16 15  1  0  0  0  0
 16 17  1  0  0  0  0
 18 19  1  0  0  0  0
 18 17  1  0  0  0  0
 20 19  1  0  0  0  0
 21 16  1  0  0  0  0
 21 20  1  0  0  0  0
 22 16  1  0  0  0  0
 23 24  1  0  0  0  0
 23 12  1  0  0  0  0
 24 30  1  0  0  0  0
 25 26  1  0  0  0  0
 25 24  1  0  0  0  0
 27 26  1  0  0  0  0
 27 28  1  0  0  0  0
 29 24  1  0  0  0  0
 29 28  1  0  0  0  0
M  END
>  <Pose>
1

>  <Score>
-8.114

$$$$
