MODEL 1
REMARK VINA RESULT:    -8.488      0.000      0.000
REMARK INTER + INTRA:         -11.641
REMARK INTER:                 -10.473
REMARK INTRA:                  -1.168
REMARK UNBOUND:                -1.168
REMARK  4 active torsions:
REMARK  status: ('A' for Active; 'I' for Inactive)
REMARK    1  A    between atoms: C_5  and  N_8 
REMARK    2  A    between atoms: N_15  and  C_16 
REMARK    3  A    between atoms: C_16  and  C_17 
REMARK       I    between atoms: C_17  and  N_19 
REMARK    4  A    between atoms: N_19  and  C_20 
ROOT
ATOM      1  N   UNK d   1      15.039  33.478  71.196  0.00  0.00    -0.241 N 
ATOM      2  C   UNK d   1      15.782  34.596  71.142  0.00  0.00     0.286 A 
ATOM      3  O   UNK d   1      16.951  34.633  71.612  0.00  0.00    -0.265 OA
ATOM      4  C   UNK d   1      15.113  35.639  70.529  0.00  0.00     0.155 A 
ATOM      5  C   UNK d   1      13.925  35.136  70.202  0.00  0.00     0.152 A 
ATOM      6  N   UNK d   1      13.240  36.116  69.607  0.00  0.00    -0.279 N 
ATOM      7  N   UNK d   1      13.998  37.196  69.574  0.00  0.00    -0.239 N 
ATOM      8  N   UNK d   1      15.173  36.937  70.140  0.00  0.00    -0.261 N 
ATOM      9  C   UNK d   1      13.866  33.818  70.603  0.00  0.00     0.286 A 
ATOM     10  O   UNK d   1      12.919  32.991  70.478  0.00  0.00    -0.265 OA
ATOM     11  H   UNK d   1      12.256  36.003  69.238  0.00  0.00     0.189 HD
ATOM     12  H   UNK d   1      13.740  38.109  69.176  0.00  0.00     0.208 HD
ENDROOT
BRANCH   8  13
ATOM     13  C   UNK d   1      16.302  37.801  70.324  0.00  0.00     0.254 C 
BRANCH  13  14
ATOM     14  C   UNK d   1      17.528  37.400  69.626  0.00  0.00     0.242 C 
ATOM     15  O   UNK d   1      17.585  37.607  68.404  0.00  0.00    -0.271 OA
ATOM     16  N   UNK d   1      18.586  36.810  70.324  0.00  0.00    -0.326 N 
ATOM     17  H   UNK d   1      18.467  36.662  71.391  0.00  0.00     0.169 HD
BRANCH  16  18
ATOM     18  C   UNK d   1      19.835  36.359  69.838  0.00  0.00     0.034 A 
ATOM     19  C   UNK d   1      20.821  37.229  69.439  0.00  0.00     0.031 A 
ATOM     20  C   UNK d   1      22.067  36.820  68.953  0.00  0.00     0.021 A 
ATOM     21  C   UNK d   1      22.283  35.467  68.885  0.00  0.00     0.011 A 
ATOM     22  C   UNK d   1      21.316  34.576  69.277  0.00  0.00     0.021 A 
ATOM     23 Br   UNK d   1      23.980  34.832  68.225  0.00  0.00    -0.051 Br
ATOM     24  C   UNK d   1      20.102  35.003  69.750  0.00  0.00     0.031 A 
ENDBRANCH  16  18
ENDBRANCH  13  14
ENDBRANCH   8  13
BRANCH   1  25
ATOM     25  C   UNK d   1      15.378  32.210  71.753  0.00  0.00     0.046 A 
ATOM     26  C   UNK d   1      14.890  31.734  72.949  0.00  0.00     0.033 A 
ATOM     27  C   UNK d   1      15.263  30.485  73.452  0.00  0.00     0.044 A 
ATOM     28  C   UNK d   1      16.135  29.696  72.757  0.00  0.00     0.116 A 
ATOM     29  F   UNK d   1      16.494  28.476  73.258  0.00  0.00    -0.206 F 
ATOM     30  C   UNK d   1      16.635  30.151  71.559  0.00  0.00     0.044 A 
ATOM     31  C   UNK d   1      16.261  31.384  71.074  0.00  0.00     0.033 A 
ENDBRANCH   1  25
TORSDOF 4
ENDMDL
