MODEL 1
REMARK VINA RESULT:    -8.000      0.000      0.000
REMARK INTER + INTRA:          -8.582
REMARK INTER:                  -8.467
REMARK INTRA:                  -0.114
REMARK UNBOUND:                -0.114
REMARK  1 active torsions:
REMARK  status: ('A' for Active; 'I' for Inactive)
REMARK    1  A    between atoms: C_4  and  C_9 
ROOT
ATOM      1  C   UNK d   1      19.038  33.373  73.122  0.00  0.00     0.222 C 
ATOM      2  N   UNK d   1      19.676  34.662  72.977  0.00  0.00    -0.358 N 
ATOM      3  C   UNK d   1      20.239  35.033  71.715  0.00  0.00     0.088 A 
ATOM      4  S   UNK d   1      20.567  36.566  70.962  0.00  0.00    -0.074 SA
ATOM      5  C   UNK d   1      21.231  36.019  69.496  0.00  0.00     0.018 A 
ATOM      6  C   UNK d   1      21.182  34.675  69.626  0.00  0.00    -0.023 A 
ATOM      7  C   UNK d   1      20.675  34.161  70.759  0.00  0.00     0.073 A 
ATOM      8  C   UNK d   1      20.492  32.747  71.193  0.00  0.00     0.256 C 
ATOM      9  O   UNK d   1      20.835  31.793  70.456  0.00  0.00    -0.267 OA
ATOM     10  N   UNK d   1      19.927  32.440  72.451  0.00  0.00    -0.331 N 
ATOM     11  C   UNK d   1      21.728  33.905  68.429  0.00  0.00     0.068 C 
ATOM     12  C   UNK d   1      22.656  34.805  67.680  0.00  0.00     0.239 C 
ATOM     13  N   UNK d   1      21.826  35.922  67.204  0.00  0.00    -0.070 N 
ATOM     14  C   UNK d   1      21.744  36.804  68.349  0.00  0.00     0.281 C 
ATOM     15  C   UNK d   1      22.417  36.563  66.053  0.00  0.00     0.270 C 
ATOM     16  H   UNK d   1      19.753  35.352  73.756  0.00  0.00     0.162 HD
ATOM     17  H   UNK d   1      20.138  31.527  72.928  0.00  0.00     0.165 HD
ATOM     18  H   UNK d   1      20.865  35.567  67.014  0.00  0.00     0.279 HD
ENDROOT
BRANCH   1  19
ATOM     19  C   UNK d   1      17.738  33.461  72.405  0.00  0.00     0.023 A 
ATOM     20  C   UNK d   1      16.863  32.411  72.266  0.00  0.00     0.134 A 
ATOM     21  C   UNK d   1      15.659  32.543  71.573  0.00  0.00     0.044 A 
ATOM     22  O   UNK d   1      17.177  31.192  72.825  0.00  0.00    -0.190 OA
ATOM     23  I   UNK d   1      14.364  30.895  71.395  0.00  0.00    -0.042 I 
ATOM     24  C   UNK d   1      15.301  33.725  71.004  0.00  0.00     0.040 A 
ATOM     25  C   UNK d   1      16.163  34.790  71.131  0.00  0.00     0.013 A 
ATOM     26  C   UNK d   1      17.347  34.669  71.810  0.00  0.00     0.033 A 
ATOM     27 Br   UNK d   1      15.666  36.447  70.337  0.00  0.00    -0.051 Br
ENDBRANCH   1  19
TORSDOF 1
ENDMDL
