MODEL 1
REMARK VINA RESULT:    -8.895      0.000      0.000
REMARK INTER + INTRA:         -10.354
REMARK INTER:                  -9.934
REMARK INTRA:                  -0.420
REMARK UNBOUND:                -0.420
REMARK  2 active torsions:
REMARK  status: ('A' for Active; 'I' for Inactive)
REMARK    1  A    between atoms: C_4  and  O_23 
REMARK    2  A    between atoms: C_6  and  C_8 
ROOT
ATOM      1  C   UNK d   1      19.569  35.887  70.647  0.00  0.00     0.219 C 
ATOM      2  N   UNK d   1      18.693  34.751  70.931  0.00  0.00    -0.358 N 
ATOM      3  C   UNK d   1      17.253  34.913  70.973  0.00  0.00     0.088 A 
ATOM      4  S   UNK d   1      15.983  33.914  71.560  0.00  0.00    -0.074 SA
ATOM      5  C   UNK d   1      14.664  34.913  71.187  0.00  0.00     0.018 A 
ATOM      6  C   UNK d   1      15.246  36.008  70.609  0.00  0.00    -0.023 A 
ATOM      7  C   UNK d   1      16.592  36.001  70.501  0.00  0.00     0.073 A 
ATOM      8  C   UNK d   1      17.459  37.064  69.915  0.00  0.00     0.256 C 
ATOM      9  O   UNK d   1      16.968  38.132  69.439  0.00  0.00    -0.267 OA
ATOM     10  N   UNK d   1      18.855  36.877  69.889  0.00  0.00    -0.332 N 
ATOM     11  C   UNK d   1      14.210  37.047  70.193  0.00  0.00     0.068 C 
ATOM     12  C   UNK d   1      13.126  36.374  69.393  0.00  0.00     0.239 C 
ATOM     13  N   UNK d   1      12.674  35.142  69.947  0.00  0.00    -0.070 N 
ATOM     14  C   UNK d   1      13.160  34.925  71.306  0.00  0.00     0.281 C 
ATOM     15  C   UNK d   1      13.269  34.061  69.145  0.00  0.00     0.270 C 
ATOM     16  H   UNK d   1      19.069  33.802  71.111  0.00  0.00     0.162 HD
ATOM     17  H   UNK d   1      19.437  37.502  69.272  0.00  0.00     0.165 HD
ATOM     18  H   UNK d   1      11.627  35.024  69.925  0.00  0.00     0.279 HD
ENDROOT
BRANCH   1  19
ATOM     19  C   UNK d   1      20.652  35.356  69.774  0.00  0.00    -0.012 A 
ATOM     20  C   UNK d   1      21.185  34.110  70.077  0.00  0.00     0.050 A 
ATOM     21  C   UNK d   1      22.177  33.524  69.351  0.00  0.00     0.106 A 
ATOM     22  C   UNK d   1      22.672  34.224  68.251  0.00  0.00     0.157 A 
ATOM     23  C   UNK d   1      22.160  35.464  67.927  0.00  0.00     0.046 A 
ATOM     24  O   UNK d   1      23.679  33.662  67.489  0.00  0.00    -0.188 OA
ATOM     25  I   UNK d   1      22.922  36.505  66.259  0.00  0.00    -0.041 I 
ATOM     26  C   UNK d   1      21.150  36.027  68.691  0.00  0.00     0.032 A 
BRANCH  21  27
ATOM     27  O   UNK d   1      22.730  32.281  69.628  0.00  0.00    -0.353 OA
ATOM     28  C   UNK d   1      22.168  31.511  70.675  0.00  0.00     0.210 C 
ENDBRANCH  21  27
ENDBRANCH   1  19
TORSDOF 2
ENDMDL
