MODEL 1
REMARK VINA RESULT:    -8.445      0.000      0.000
REMARK INTER + INTRA:         -12.266
REMARK INTER:                 -11.408
REMARK INTRA:                  -0.858
REMARK UNBOUND:                -0.858
REMARK  6 active torsions:
REMARK  status: ('A' for Active; 'I' for Inactive)
REMARK    1  A    between atoms: C_3  and  N_8 
REMARK    2  A    between atoms: N_8  and  C_9 
REMARK    3  A    between atoms: C_20  and  C_21 
REMARK    4  A    between atoms: C_21  and  C_22 
REMARK    5  A    between atoms: C_22  and  O_24 
REMARK    6  A    between atoms: O_24  and  C_25 
ROOT
ATOM      1  C   UNK d   1      16.355  35.880  70.703  0.00  0.00     0.179 A 
ATOM      2  N   UNK d   1      15.167  36.163  70.183  0.00  0.00    -0.202 NA
ATOM      3  C   UNK d   1      14.062  35.406  70.289  0.00  0.00     0.230 A 
ATOM      4  N   UNK d   1      12.786  35.438  69.885  0.00  0.00    -0.081 NA
ATOM      5  O   UNK d   1      12.150  34.383  70.304  0.00  0.00    -0.103 OA
ATOM      6  N   UNK d   1      12.963  33.627  70.986  0.00  0.00    -0.082 NA
ATOM      7  C   UNK d   1      14.170  34.213  71.012  0.00  0.00     0.217 A 
ATOM      8  N   UNK d   1      15.328  33.880  71.551  0.00  0.00    -0.256 N 
ATOM      9  C   UNK d   1      16.399  34.666  71.417  0.00  0.00     0.206 A 
ATOM     10  N   UNK d   1      17.388  34.068  72.061  0.00  0.00    -0.126 NA
ATOM     11  N   UNK d   1      16.942  32.917  72.595  0.00  0.00    -0.133 NA
ATOM     12  C   UNK d   1      15.645  32.776  72.286  0.00  0.00     0.145 A 
ENDROOT
BRANCH   1  13
ATOM     13  N   UNK d   1      17.521  36.666  70.598  0.00  0.00    -0.337 N 
ATOM     14  H   UNK d   1      17.944  37.050  71.515  0.00  0.00     0.167 HD
BRANCH  13  15
ATOM     15  C   UNK d   1      18.225  37.027  69.431  0.00  0.00     0.050 A 
ATOM     16  C   UNK d   1      19.596  36.700  69.337  0.00  0.00     0.033 A 
ATOM     17  I   UNK d   1      20.532  35.675  70.929  0.00  0.00    -0.042 I 
ATOM     18  C   UNK d   1      20.316  37.042  68.219  0.00  0.00     0.020 A 
ATOM     19  C   UNK d   1      19.694  37.716  67.171  0.00  0.00     0.001 A 
ATOM     20  C   UNK d   1      18.367  38.019  67.290  0.00  0.00     0.002 A 
ATOM     21  C   UNK d   1      17.602  37.686  68.410  0.00  0.00     0.031 A 
ENDBRANCH  13  15
ENDBRANCH   1  13
BRANCH  12  22
ATOM     22  C   UNK d   1      14.703  31.681  72.644  0.00  0.00     0.192 C 
BRANCH  22  23
ATOM     23  C   UNK d   1      14.696  30.572  71.660  0.00  0.00     0.266 C 
ATOM     24  O   UNK d   1      13.729  30.334  70.907  0.00  0.00    -0.265 OA
BRANCH  23  25
ATOM     25  O   UNK d   1      15.798  29.767  71.573  0.00  0.00    -0.322 OA
BRANCH  25  26
ATOM     26  C   UNK d   1      16.301  28.984  72.596  0.00  0.00     0.174 C 
ATOM     27  C   UNK d   1      17.592  29.414  73.180  0.00  0.00     0.034 C 
ENDBRANCH  25  26
ENDBRANCH  23  25
ENDBRANCH  22  23
ENDBRANCH  12  22
TORSDOF 6
ENDMDL
