/Users/jonathanwahrer/Desktop/Msc/3_Semester/Drug_Design_Praktikum/waehrer_HTS_screening/HTS_experiment/out/docking_results/vina_output/4x21/0906_docked.pdbqt
 OpenBabel03212201593D

 27 30  0  0  1  0  0  0  0  0999 V2000
   16.3550   35.8800   70.7030 C   0  0  1  0  0  3  0  0  0  0  0  0
   15.1670   36.1630   70.1830 N   0  0  0  0  0  0  0  0  0  0  0  0
   14.0620   35.4060   70.2890 C   0  0  0  0  0  0  0  0  0  0  0  0
   12.7860   35.4380   69.8850 N   0  0  0  0  0  2  0  0  0  0  0  0
   12.1500   34.3830   70.3040 O   0  0  0  0  0  0  0  0  0  0  0  0
   12.9630   33.6270   70.9860 N   0  0  0  0  0  0  0  0  0  0  0  0
   14.1700   34.2130   71.0120 C   0  0  0  0  0  0  0  0  0  0  0  0
   15.3280   33.8800   71.5510 N   0  0  0  0  0  0  0  0  0  0  0  0
   16.3990   34.6660   71.4170 C   0  0  0  0  0  0  0  0  0  0  0  0
   17.3880   34.0680   72.0610 N   0  0  0  0  0  0  0  0  0  0  0  0
   16.9420   32.9170   72.5950 N   0  0  0  0  0  0  0  0  0  0  0  0
   15.6450   32.7760   72.2860 C   0  0  0  0  0  0  0  0  0  0  0  0
   17.5210   36.6660   70.5980 N   0  0  0  0  0  0  0  0  0  0  0  0
   17.9440   37.0500   71.5150 H   0  0  0  0  0  0  0  0  0  0  0  0
   18.2250   37.0270   69.4310 C   0  0  0  0  0  0  0  0  0  0  0  0
   19.5960   36.7000   69.3370 C   0  0  0  0  0  0  0  0  0  0  0  0
   20.5320   35.6750   70.9290 I   0  0  0  0  0  0  0  0  0  0  0  0
   20.3160   37.0420   68.2190 C   0  0  0  0  0  3  0  0  0  0  0  0
   19.6940   37.7160   67.1710 C   0  0  0  0  0  3  0  0  0  0  0  0
   18.3670   38.0190   67.2900 C   0  0  0  0  0  3  0  0  0  0  0  0
   17.6020   37.6860   68.4100 C   0  0  0  0  0  3  0  0  0  0  0  0
   14.7030   31.6810   72.6440 C   0  0  0  0  0  2  0  0  0  0  0  0
   14.6960   30.5720   71.6600 C   0  0  0  0  0  0  0  0  0  0  0  0
   13.7290   30.3340   70.9070 O   0  0  0  0  0  0  0  0  0  0  0  0
   15.7980   29.7670   71.5730 O   0  0  0  0  0  0  0  0  0  0  0  0
   16.3010   28.9840   72.5960 C   0  0  0  0  0  2  0  0  0  0  0  0
   17.5920   29.4140   73.1800 C   0  0  0  0  0  1  0  0  0  0  0  0
  1 13  1  6  0  0  0
  1  9  1  0  0  0  0
  2  3  2  0  0  0  0
  2  1  1  0  0  0  0
  3  7  1  0  0  0  0
  4  3  1  0  0  0  0
  4  5  1  0  0  0  0
  5  6  1  0  0  0  0
  6  7  2  0  0  0  0
  7  8  1  0  0  0  0
  8 12  1  0  0  0  0
  9  8  1  0  0  0  0
  9 10  2  0  0  0  0
 10 11  1  0  0  0  0
 12 11  2  0  0  0  0
 12 22  1  0  0  0  0
 13 14  1  0  0  0  0
 15 13  1  0  0  0  0
 16 15  1  0  0  0  0
 16 17  1  0  0  0  0
 18 16  2  0  0  0  0
 19 20  2  0  0  0  0
 19 18  1  0  0  0  0
 20 21  1  0  0  0  0
 21 15  2  0  0  0  0
 23 22  1  0  0  0  0
 24 23  2  0  0  0  0
 25 23  1  0  0  0  0
 25 26  1  0  0  0  0
 26 27  1  0  0  0  0
M  END
>  <Pose>
1

>  <Score>
-8.445

$$$$
