MODEL 1
REMARK VINA RESULT:    -8.084      0.000      0.000
REMARK INTER + INTRA:          -9.540
REMARK INTER:                  -9.029
REMARK INTRA:                  -0.511
REMARK UNBOUND:                -0.511
REMARK  2 active torsions:
REMARK  status: ('A' for Active; 'I' for Inactive)
REMARK    1  A    between atoms: C_3  and  N_8 
REMARK    2  A    between atoms: N_15  and  C_16 
ROOT
ATOM      1  N   UNK d   1      22.902  36.019  68.249  0.00  0.00    -0.240 N 
ATOM      2  C   UNK d   1      21.612  35.838  68.584  0.00  0.00     0.286 A 
ATOM      3  O   UNK d   1      20.793  35.097  67.963  0.00  0.00    -0.265 OA
ATOM      4  C   UNK d   1      21.276  36.569  69.706  0.00  0.00     0.160 A 
ATOM      5  C   UNK d   1      22.381  37.204  70.059  0.00  0.00     0.152 A 
ATOM      6  N   UNK d   1      22.036  37.914  71.159  0.00  0.00    -0.278 N 
ATOM      7  N   UNK d   1      20.767  37.714  71.461  0.00  0.00    -0.234 N 
ATOM      8  N   UNK d   1      20.277  36.886  70.576  0.00  0.00    -0.234 N 
ATOM      9  C   UNK d   1      23.389  36.872  69.168  0.00  0.00     0.286 A 
ATOM     10  O   UNK d   1      24.581  37.319  69.230  0.00  0.00    -0.265 OA
ATOM     11  H   UNK d   1      22.667  38.537  71.707  0.00  0.00     0.189 HD
ATOM     12  H   UNK d   1      20.247  38.139  72.257  0.00  0.00     0.209 HD
ENDROOT
BRANCH   1  13
ATOM     13  C   UNK d   1      23.632  35.448  67.162  0.00  0.00     0.062 A 
ATOM     14  C   UNK d   1      24.238  34.213  67.269  0.00  0.00     0.034 A 
ATOM     15  I   UNK d   1      24.043  33.192  69.113  0.00  0.00    -0.042 I 
ATOM     16  C   UNK d   1      24.949  33.642  66.233  0.00  0.00     0.020 A 
ATOM     17  C   UNK d   1      25.082  34.297  65.026  0.00  0.00     0.001 A 
ATOM     18  C   UNK d   1      24.481  35.533  64.908  0.00  0.00     0.002 A 
ATOM     19  C   UNK d   1      23.770  36.097  65.953  0.00  0.00     0.031 A 
ENDBRANCH   1  13
BRANCH   8  20
ATOM     20  C   UNK d   1      18.954  36.373  70.484  0.00  0.00     0.058 A 
ATOM     21  C   UNK d   1      18.630  35.104  70.910  0.00  0.00     0.031 A 
ATOM     22  C   UNK d   1      17.331  34.634  70.808  0.00  0.00     0.002 A 
ATOM     23  C   UNK d   1      16.316  35.406  70.281  0.00  0.00     0.000 A 
ATOM     24  C   UNK d   1      16.639  36.676  69.855  0.00  0.00     0.002 A 
ATOM     25  C   UNK d   1      17.924  37.151  69.952  0.00  0.00     0.031 A 
ENDBRANCH   8  20
TORSDOF 2
ENDMDL
