MODEL 1
REMARK VINA RESULT:    -7.677      0.000      0.000
REMARK INTER + INTRA:          -7.585
REMARK INTER:                  -9.024
REMARK INTRA:                   1.438
REMARK UNBOUND:                 1.438
REMARK  3 active torsions:
REMARK  status: ('A' for Active; 'I' for Inactive)
REMARK    1  A    between atoms: C_5  and  N_8 
REMARK    2  A    between atoms: C_10  and  C_16 
REMARK    3  A    between atoms: C_22  and  O_29 
ROOT
ATOM      1  N   UNK d   1      20.691  32.520  71.207  0.00  0.00    -0.241 N 
ATOM      2  C   UNK d   1      21.253  33.582  70.604  0.00  0.00     0.204 A 
ATOM      3  C   UNK d   1      22.617  33.722  70.473  0.00  0.00     0.100 A 
ATOM      4  C   UNK d   1      23.383  32.700  70.999  0.00  0.00     0.262 A 
ATOM      5  O   UNK d   1      24.650  32.678  70.959  0.00  0.00    -0.267 OA
ATOM      6  N   UNK d   1      22.823  31.613  71.615  0.00  0.00    -0.274 N 
ATOM      7  C   UNK d   1      21.482  31.555  71.702  0.00  0.00     0.336 A 
ATOM      8  O   UNK d   1      20.923  30.577  72.260  0.00  0.00    -0.246 OA
ATOM      9  O   UNK d   1      20.458  34.575  70.092  0.00  0.00    -0.171 OA
ATOM     10  H   UNK d   1      23.401  30.848  72.009  0.00  0.00     0.173 HD
ENDROOT
BRANCH   3  11
ATOM     11  C   UNK d   1      23.298  34.843  69.851  0.00  0.00     0.267 C 
ATOM     12  N   UNK d   1      24.550  34.584  69.215  0.00  0.00    -0.062 N 
ATOM     13  C   UNK d   1      24.475  33.708  68.078  0.00  0.00     0.240 C 
ATOM     14  C   UNK d   1      24.978  35.895  68.660  0.00  0.00     0.270 C 
ATOM     15  H   UNK d   1      25.346  34.361  69.835  0.00  0.00     0.280 HD
ATOM     16  C   UNK d   1      23.056  33.427  67.630  0.00  0.00     0.067 C 
ATOM     17  C   UNK d   1      22.291  34.730  67.628  0.00  0.00    -0.042 A 
ATOM     18  C   UNK d   1      22.442  35.464  68.777  0.00  0.00     0.020 A 
ATOM     19  C   UNK d   1      21.544  35.172  66.586  0.00  0.00     0.047 A 
ATOM     20  C   UNK d   1      21.832  36.688  68.907  0.00  0.00     0.113 A 
ATOM     21  C   UNK d   1      21.069  37.136  67.838  0.00  0.00     0.139 A 
ATOM     22  C   UNK d   1      20.907  36.409  66.676  0.00  0.00     0.108 A 
ATOM     23  O   UNK d   1      20.329  38.312  67.641  0.00  0.00    -0.320 OA
ATOM     24  O   UNK d   1      20.094  37.132  65.816  0.00  0.00    -0.323 OA
ATOM     25  C   UNK d   1      19.425  38.161  66.563  0.00  0.00     0.352 C 
BRANCH  20  26
ATOM     26  O   UNK d   1      21.989  37.413  70.054  0.00  0.00    -0.352 OA
ATOM     27  C   UNK d   1      21.067  37.569  71.085  0.00  0.00     0.210 C 
ENDBRANCH  20  26
ENDBRANCH   3  11
BRANCH   1  28
ATOM     28  C   UNK d   1      19.283  32.398  71.332  0.00  0.00     0.046 A 
ATOM     29  C   UNK d   1      18.503  31.765  70.378  0.00  0.00     0.031 A 
ATOM     30  C   UNK d   1      17.149  31.646  70.496  0.00  0.00     0.020 A 
ATOM     31  C   UNK d   1      16.491  32.169  71.604  0.00  0.00     0.006 A 
ATOM     32  I   UNK d   1      14.407  31.980  71.773  0.00  0.00    -0.045 I 
ATOM     33  C   UNK d   1      17.262  32.797  72.553  0.00  0.00     0.020 A 
ATOM     34  C   UNK d   1      18.631  32.923  72.443  0.00  0.00     0.031 A 
ENDBRANCH   1  28
TORSDOF 3
ENDMDL
