MODEL 1
REMARK VINA RESULT:    -8.401      0.000      0.000
REMARK INTER + INTRA:         -10.357
REMARK INTER:                  -9.874
REMARK INTRA:                  -0.483
REMARK UNBOUND:                -0.483
REMARK  3 active torsions:
REMARK  status: ('A' for Active; 'I' for Inactive)
REMARK    1  A    between atoms: C_5  and  N_8 
REMARK    2  A    between atoms: C_11  and  N_15 
REMARK    3  A    between atoms: N_18  and  C_21 
ROOT
ATOM      1  N   UNK d   1      18.793  35.357  71.043  0.00  0.00    -0.251 N 
ATOM      2  C   UNK d   1      18.728  36.579  70.326  0.00  0.00     0.254 C 
ATOM      3  O   UNK d   1      17.650  37.119  69.964  0.00  0.00    -0.270 OA
ATOM      4  C   UNK d   1      20.105  37.093  70.087  0.00  0.00     0.181 C 
ATOM      5  C   UNK d   1      20.849  36.531  71.286  0.00  0.00     0.138 C 
ATOM      6  C   UNK d   1      20.064  35.348  71.689  0.00  0.00     0.233 C 
ATOM      7  O   UNK d   1      20.432  34.439  72.489  0.00  0.00    -0.273 OA
ENDROOT
BRANCH   4   8
ATOM      8  N   UNK d   1      20.557  36.593  68.854  0.00  0.00    -0.397 N 
ATOM      9  C   UNK d   1      19.893  36.889  67.664  0.00  0.00     0.138 C 
ATOM     10  C   UNK d   1      20.937  36.776  66.523  0.00  0.00     0.161 C 
ATOM     11  N   UNK d   1      22.113  37.538  66.915  0.00  0.00    -0.211 N 
ATOM     12  C   UNK d   1      22.779  37.115  68.121  0.00  0.00     0.161 C 
ATOM     13  C   UNK d   1      21.872  36.095  68.805  0.00  0.00     0.138 C 
BRANCH  11  14
ATOM     14  C   UNK d   1      22.563  38.634  66.150  0.00  0.00     0.724 A 
ATOM     15  N   UNK d   1      21.861  39.799  66.126  0.00  0.00    -0.075 NA
ATOM     16  C   UNK d   1      22.239  40.870  65.432  0.00  0.00     0.138 A 
ATOM     17  C   UNK d   1      23.406  40.837  64.680  0.00  0.00     0.040 A 
ATOM     18  C   UNK d   1      24.116  39.650  64.708  0.00  0.00     0.138 A 
ATOM     19  N   UNK d   1      23.698  38.595  65.422  0.00  0.00    -0.075 NA
ENDBRANCH  11  14
ENDBRANCH   4   8
BRANCH   1  20
ATOM     20  C   UNK d   1      17.800  34.317  71.125  0.00  0.00     0.045 A 
ATOM     21  C   UNK d   1      16.594  34.575  71.741  0.00  0.00     0.031 A 
ATOM     22  C   UNK d   1      15.612  33.610  71.846  0.00  0.00     0.020 A 
ATOM     23  C   UNK d   1      15.807  32.345  71.333  0.00  0.00     0.006 A 
ATOM     24  I   UNK d   1      14.332  30.838  71.470  0.00  0.00    -0.045 I 
ATOM     25  C   UNK d   1      17.007  32.069  70.714  0.00  0.00     0.020 A 
ATOM     26  C   UNK d   1      17.974  33.050  70.621  0.00  0.00     0.031 A 
ENDBRANCH   1  20
TORSDOF 3
ENDMDL
