/Users/jonathanwahrer/Desktop/Msc/3_Semester/Drug_Design_Praktikum/waehrer_HTS_screening/HTS_experiment/out/docking_results/vina_output/4x21/0937_docked.pdbqt
 OpenBabel03212202003D

 26 29  0  0  1  0  0  0  0  0999 V2000
   18.7930   35.3570   71.0430 N   0  0  0  0  0  0  0  0  0  0  0  0
   18.7280   36.5790   70.3260 C   0  0  0  0  0  0  0  0  0  0  0  0
   17.6500   37.1190   69.9640 O   0  0  0  0  0  0  0  0  0  0  0  0
   20.1050   37.0930   70.0870 C   0  0  1  0  0  3  0  0  0  0  0  0
   20.8490   36.5310   71.2860 C   0  0  0  0  0  2  0  0  0  0  0  0
   20.0640   35.3480   71.6890 C   0  0  0  0  0  0  0  0  0  0  0  0
   20.4320   34.4390   72.4890 O   0  0  0  0  0  0  0  0  0  0  0  0
   20.5570   36.5930   68.8540 N   0  0  1  0  0  0  0  0  0  0  0  0
   19.8930   36.8890   67.6640 C   0  0  0  0  0  2  0  0  0  0  0  0
   20.9370   36.7760   66.5230 C   0  0  0  0  0  2  0  0  0  0  0  0
   22.1130   37.5380   66.9150 N   0  0  0  0  0  0  0  0  0  0  0  0
   22.7790   37.1150   68.1210 C   0  0  0  0  0  2  0  0  0  0  0  0
   21.8720   36.0950   68.8050 C   0  0  0  0  0  2  0  0  0  0  0  0
   22.5630   38.6340   66.1500 C   0  0  0  0  0  0  0  0  0  0  0  0
   21.8610   39.7990   66.1260 N   0  0  0  0  0  0  0  0  0  0  0  0
   22.2390   40.8700   65.4320 C   0  0  0  0  0  3  0  0  0  0  0  0
   23.4060   40.8370   64.6800 C   0  0  0  0  0  3  0  0  0  0  0  0
   24.1160   39.6500   64.7080 C   0  0  0  0  0  3  0  0  0  0  0  0
   23.6980   38.5950   65.4220 N   0  0  0  0  0  0  0  0  0  0  0  0
   17.8000   34.3170   71.1250 C   0  0  0  0  0  0  0  0  0  0  0  0
   16.5940   34.5750   71.7410 C   0  0  0  0  0  3  0  0  0  0  0  0
   15.6120   33.6100   71.8460 C   0  0  0  0  0  3  0  0  0  0  0  0
   15.8070   32.3450   71.3330 C   0  0  0  0  0  0  0  0  0  0  0  0
   14.3320   30.8380   71.4700 I   0  0  0  0  0  0  0  0  0  0  0  0
   17.0070   32.0690   70.7140 C   0  0  0  0  0  3  0  0  0  0  0  0
   17.9740   33.0500   70.6210 C   0  0  0  0  0  3  0  0  0  0  0  0
  1 20  1  0  0  0  0
  1  6  1  0  0  0  0
  2  1  1  0  0  0  0
  3  2  2  0  0  0  0
  4  2  1  0  0  0  0
  4  5  1  1  0  0  0
  5  6  1  0  0  0  0
  6  7  2  0  0  0  0
  8  9  1  6  0  0  0
  8  4  1  0  0  0  0
 10 11  1  0  0  0  0
 10  9  1  0  0  0  0
 11 12  1  0  0  0  0
 12 13  1  0  0  0  0
 13  8  1  0  0  0  0
 14 11  1  0  0  0  0
 15 14  2  0  0  0  0
 16 15  1  0  0  0  0
 17 18  1  0  0  0  0
 17 16  2  0  0  0  0
 18 19  2  0  0  0  0
 19 14  1  0  0  0  0
 20 21  1  0  0  0  0
 21 22  2  0  0  0  0
 23 24  1  0  0  0  0
 23 22  1  0  0  0  0
 25 23  2  0  0  0  0
 26 25  1  0  0  0  0
 26 20  2  0  0  0  0
M  END
>  <Pose>
1

>  <Score>
-8.401

$$$$
