MODEL 1
REMARK VINA RESULT:    -8.620      0.000      0.000
REMARK INTER + INTRA:         -11.872
REMARK INTER:                 -11.140
REMARK INTRA:                  -0.732
REMARK UNBOUND:                -0.732
REMARK  6 active torsions:
REMARK  status: ('A' for Active; 'I' for Inactive)
REMARK    1  A    between atoms: N_5  and  C_7 
REMARK    2  A    between atoms: C_9  and  C_13 
REMARK    3  A    between atoms: C_10  and  O_12 
REMARK    4  A    between atoms: C_13  and  O_14 
REMARK    5  A    between atoms: C_18  and  N_19 
REMARK       I    between atoms: N_19  and  C_20 
REMARK    6  A    between atoms: C_20  and  C_22 
ROOT
ATOM      1  I   UNK d   1      21.048  34.107  70.727  0.00  0.00    -0.042 I 
ATOM      2  C   UNK d   1      18.996  34.593  70.758  0.00  0.00     0.040 A 
ATOM      3  C   UNK d   1      18.437  35.765  70.343  0.00  0.00     0.074 A 
ATOM      4  C   UNK d   1      17.069  35.597  70.564  0.00  0.00     0.148 A 
ATOM      5  N   UNK d   1      16.796  34.398  71.082  0.00  0.00    -0.312 N 
ATOM      6  C   UNK d   1      17.969  33.778  71.203  0.00  0.00     0.114 A 
ATOM      7  N   UNK d   1      16.256  36.616  70.239  0.00  0.00    -0.223 NA
ATOM      8  C   UNK d   1      16.744  37.754  69.722  0.00  0.00     0.237 A 
ATOM      9  N   UNK d   1      18.054  37.912  69.512  0.00  0.00    -0.223 NA
ATOM     10  C   UNK d   1      18.953  36.925  69.814  0.00  0.00     0.147 A 
ENDROOT
BRANCH   5  11
ATOM     11  C   UNK d   1      15.526  33.846  71.447  0.00  0.00     0.232 C 
ATOM     12  O   UNK d   1      15.593  32.525  71.873  0.00  0.00    -0.356 OA
ATOM     13  C   UNK d   1      14.250  32.193  72.030  0.00  0.00     0.176 C 
ATOM     14  C   UNK d   1      13.503  32.824  70.878  0.00  0.00     0.153 C 
ATOM     15  C   UNK d   1      14.583  33.712  70.249  0.00  0.00     0.088 C 
BRANCH  13  16
ATOM     16  C   UNK d   1      14.067  30.676  71.883  0.00  0.00     0.198 C 
BRANCH  16  17
ATOM     17  O   UNK d   1      13.361  30.421  70.700  0.00  0.00    -0.398 OA
ATOM     18  H   UNK d   1      12.696  31.156  70.515  0.00  0.00     0.209 HD
ENDBRANCH  16  17
ENDBRANCH  13  16
BRANCH  14  19
ATOM     19  O   UNK d   1      12.500  33.686  71.323  0.00  0.00    -0.393 OA
ATOM     20  H   UNK d   1      11.698  33.477  70.752  0.00  0.00     0.210 HD
ENDBRANCH  14  19
ENDBRANCH   5  11
BRANCH  10  21
ATOM     21  N   UNK d   1      20.338  37.149  69.568  0.00  0.00    -0.306 N 
ATOM     22  C   UNK d   1      20.813  37.076  68.227  0.00  0.00     0.257 C 
ATOM     23  O   UNK d   1      19.971  36.815  67.331  0.00  0.00    -0.267 OA
ATOM     24  H   UNK d   1      21.043  37.363  70.278  0.00  0.00     0.170 HD
BRANCH  22  25
ATOM     25  C   UNK d   1      22.182  37.279  67.839  0.00  0.00     0.032 A 
ATOM     26  C   UNK d   1      23.215  36.883  68.644  0.00  0.00     0.017 A 
ATOM     27  C   UNK d   1      24.550  37.071  68.279  0.00  0.00     0.001 A 
ATOM     28  C   UNK d   1      24.841  37.666  67.088  0.00  0.00     0.000 A 
ATOM     29  C   UNK d   1      23.827  38.073  66.260  0.00  0.00     0.001 A 
ATOM     30  C   UNK d   1      22.496  37.875  66.645  0.00  0.00     0.017 A 
ENDBRANCH  22  25
ENDBRANCH  10  21
TORSDOF 6
ENDMDL
