MODEL 1
REMARK VINA RESULT:    -9.483      0.000      0.000
REMARK INTER + INTRA:         -11.770
REMARK INTER:                 -11.146
REMARK INTRA:                  -0.623
REMARK UNBOUND:                -0.623
REMARK  3 active torsions:
REMARK  status: ('A' for Active; 'I' for Inactive)
REMARK    1  A    between atoms: C_7  and  C_8 
REMARK    2  A    between atoms: C_9  and  C_10 
REMARK    3  A    between atoms: C_16  and  C_19 
ROOT
ATOM      1  C   UNK d   1      19.505  32.767  71.406  0.00  0.00     0.065 A 
ATOM      2  N   UNK d   1      19.934  31.758  72.126  0.00  0.00    -0.359 N 
ATOM      3  C   UNK d   1      19.041  30.963  72.789  0.00  0.00     0.093 A 
ATOM      4  C   UNK d   1      17.693  31.147  72.754  0.00  0.00     0.049 A 
ATOM      5  C   UNK d   1      17.204  32.195  72.005  0.00  0.00     0.068 A 
ATOM      6  N   UNK d   1      15.942  32.681  71.737  0.00  0.00    -0.333 N 
ATOM      7  C   UNK d   1      16.037  33.734  70.943  0.00  0.00     0.141 A 
ATOM      8  N   UNK d   1      17.366  33.909  70.711  0.00  0.00    -0.226 NA
ATOM      9  C   UNK d   1      18.099  32.986  71.346  0.00  0.00     0.113 A 
ATOM     10  C   UNK d   1      14.786  32.029  72.284  0.00  0.00     0.158 C 
ATOM     11  C   UNK d   1      21.320  31.398  72.192  0.00  0.00     0.156 C 
ENDROOT
BRANCH   1  12
ATOM     12  C   UNK d   1      20.316  33.761  70.728  0.00  0.00     0.033 C 
ATOM     13  C   UNK d   1      20.697  33.879  69.506  0.00  0.00     0.015 C 
BRANCH  13  14
ATOM     14  C   UNK d   1      21.496  34.874  68.827  0.00  0.00    -0.016 A 
ATOM     15  C   UNK d   1      22.778  34.738  68.406  0.00  0.00     0.024 A 
ATOM     16 Br   UNK d   1      23.773  33.167  68.823  0.00  0.00    -0.050 Br
ATOM     17  C   UNK d   1      23.448  35.762  67.690  0.00  0.00     0.059 A 
ATOM     18  C   UNK d   1      22.813  36.938  67.396  0.00  0.00     0.106 A 
ATOM     19  C   UNK d   1      21.511  37.105  67.813  0.00  0.00     0.105 A 
ATOM     20  O   UNK d   1      23.174  38.112  66.728  0.00  0.00    -0.323 OA
ATOM     21  C   UNK d   1      20.869  36.105  68.508  0.00  0.00     0.052 A 
ATOM     22  O   UNK d   1      21.103  38.381  67.391  0.00  0.00    -0.323 OA
ATOM     23  C   UNK d   1      21.954  38.728  66.317  0.00  0.00     0.352 C 
ENDBRANCH  13  14
ENDBRANCH   1  12
BRANCH   7  24
ATOM     24  C   UNK d   1      14.972  34.569  70.375  0.00  0.00     0.010 A 
ATOM     25  C   UNK d   1      13.873  34.105  69.733  0.00  0.00     0.015 A 
ATOM     26  C   UNK d   1      12.930  35.006  69.202  0.00  0.00     0.001 A 
ATOM     27  C   UNK d   1      13.118  36.363  69.330  0.00  0.00     0.000 A 
ATOM     28  C   UNK d   1      14.236  36.864  69.985  0.00  0.00     0.001 A 
ATOM     29  C   UNK d   1      15.118  35.962  70.481  0.00  0.00     0.015 A 
ENDBRANCH   7  24
TORSDOF 3
ENDMDL
