MODEL 1
REMARK VINA RESULT:    -6.683      0.000      0.000
REMARK INTER + INTRA:          -8.082
REMARK INTER:                  -7.464
REMARK INTRA:                  -0.618
REMARK UNBOUND:                -0.618
REMARK  2 active torsions:
REMARK  status: ('A' for Active; 'I' for Inactive)
REMARK    1  A    between atoms: C_10  and  C_21 
REMARK    2  A    between atoms: C_26  and  C_27 
ROOT
ATOM      1 Br   UNK d   1      25.007  33.758  67.944  0.00  0.00    -0.045 Br
ATOM      2  C   UNK d   1      23.700  33.312  69.250  0.00  0.00     0.083 A 
ATOM      3  C   UNK d   1      22.483  33.976  69.371  0.00  0.00     0.107 A 
ATOM      4  C   UNK d   1      21.563  33.613  70.341  0.00  0.00     0.013 A 
ATOM      5  C   UNK d   1      21.846  32.578  71.209  0.00  0.00     0.037 A 
ATOM      6  C   UNK d   1      23.039  31.920  71.097  0.00  0.00     0.049 A 
ATOM      7  C   UNK d   1      23.945  32.285  70.133  0.00  0.00     0.144 A 
ATOM      8  O   UNK d   1      25.150  31.561  70.079  0.00  0.00    -0.189 OA
ATOM      9 Br   UNK d   1      23.368  30.489  72.333  0.00  0.00    -0.048 Br
ATOM     10  C   UNK d   1      20.352  34.255  70.482  0.00  0.00     0.003 A 
ATOM     11  C   UNK d   1      20.076  35.288  69.610  0.00  0.00     0.013 A 
ATOM     12  C   UNK d   1      21.108  35.604  68.615  0.00  0.00     0.108 A 
ATOM     13  C   UNK d   1      20.815  36.652  67.742  0.00  0.00     0.097 A 
ATOM     14  C   UNK d   1      19.622  37.330  67.833  0.00  0.00     0.209 A 
ATOM     15  O   UNK d   1      19.402  38.266  67.024  0.00  0.00    -0.285 OA
ATOM     16  C   UNK d   1      18.664  37.005  68.788  0.00  0.00     0.063 A 
ATOM     17  C   UNK d   1      18.884  35.991  69.674  0.00  0.00     0.038 A 
ATOM     18 Br   UNK d   1      17.032  37.998  68.844  0.00  0.00    -0.047 Br
ATOM     19 Br   UNK d   1      22.122  37.123  66.413  0.00  0.00    -0.044 Br
ATOM     20  O   UNK d   1      22.244  34.953  68.534  0.00  0.00    -0.306 OA
ENDROOT
BRANCH  10  21
ATOM     21  C   UNK d   1      19.385  33.875  71.513  0.00  0.00     0.016 A 
ATOM     22  C   UNK d   1      19.311  34.576  72.703  0.00  0.00     0.046 A 
ATOM     23  C   UNK d   1      18.413  34.235  73.691  0.00  0.00     0.026 A 
ATOM     24 Cl   UNK d   1      20.398  35.947  72.953  0.00  0.00    -0.083 Cl
ATOM     25  C   UNK d   1      17.571  33.163  73.477  0.00  0.00     0.026 A 
ATOM     26  C   UNK d   1      17.611  32.445  72.321  0.00  0.00     0.052 A 
ATOM     27  C   UNK d   1      18.515  32.800  71.344  0.00  0.00     0.075 A 
ATOM     28 Cl   UNK d   1      16.502  31.096  72.130  0.00  0.00    -0.083 Cl
BRANCH  27  29
ATOM     29  C   UNK d   1      18.567  32.041  70.118  0.00  0.00     0.212 C 
ATOM     30  O   UNK d   1      17.809  32.287  69.139  0.00  0.00    -0.644 OA
ATOM     31  O   UNK d   1      19.473  30.993  69.976  0.00  0.00    -0.644 OA
ENDBRANCH  27  29
ENDBRANCH  10  21
TORSDOF 2
ENDMDL
