MODEL 1
REMARK VINA RESULT:    -9.056      0.000      0.000
REMARK INTER + INTRA:          -9.056
REMARK INTER:                  -9.056
REMARK INTRA:                   0.000
REMARK UNBOUND:                 0.000
REMARK  0 active torsions:
REMARK  status: ('A' for Active; 'I' for Inactive)
ROOT
ATOM      1 Br   UNK d   1      21.253  30.119  72.223  0.00  0.00    -0.045 Br
ATOM      2  C   UNK d   1      22.023  31.685  71.452  0.00  0.00     0.083 A 
ATOM      3  C   UNK d   1      21.240  32.813  71.145  0.00  0.00     0.106 A 
ATOM      4  C   UNK d   1      21.751  33.950  70.594  0.00  0.00     0.023 A 
ATOM      5  C   UNK d   1      23.122  33.978  70.328  0.00  0.00     0.036 A 
ATOM      6  C   UNK d   1      23.881  32.885  70.625  0.00  0.00     0.049 A 
ATOM      7  C   UNK d   1      23.369  31.731  71.184  0.00  0.00     0.144 A 
ATOM      8  O   UNK d   1      24.212  30.642  71.464  0.00  0.00    -0.189 OA
ATOM      9 Br   UNK d   1      25.754  32.914  70.266  0.00  0.00    -0.048 Br
ATOM     10  C   UNK d   1      20.915  35.103  70.287  0.00  0.00     0.159 A 
ATOM     11  O   UNK d   1      21.385  36.175  71.102  0.00  0.00    -0.291 OA
ATOM     12  C   UNK d   1      21.830  37.232  70.356  0.00  0.00     0.295 A 
ATOM     13  O   UNK d   1      22.294  38.302  70.812  0.00  0.00    -0.259 OA
ATOM     14  C   UNK d   1      21.647  36.846  68.971  0.00  0.00     0.049 A 
ATOM     15  C   UNK d   1      21.104  35.584  68.889  0.00  0.00     0.003 A 
ATOM     16  C   UNK d   1      20.867  35.067  67.658  0.00  0.00     0.012 A 
ATOM     17  C   UNK d   1      21.169  35.804  66.531  0.00  0.00     0.001 A 
ATOM     18  C   UNK d   1      21.713  37.068  66.609  0.00  0.00     0.001 A 
ATOM     19  C   UNK d   1      21.958  37.604  67.845  0.00  0.00     0.018 A 
ATOM     20  C   UNK d   1      19.508  34.915  70.624  0.00  0.00     0.023 A 
ATOM     21  C   UNK d   1      19.054  33.750  71.176  0.00  0.00     0.106 A 
ATOM     22  C   UNK d   1      17.690  33.586  71.495  0.00  0.00     0.083 A 
ATOM     23  C   UNK d   1      16.822  34.622  71.241  0.00  0.00     0.144 A 
ATOM     24  C   UNK d   1      17.275  35.808  70.681  0.00  0.00     0.049 A 
ATOM     25  C   UNK d   1      18.598  35.959  70.374  0.00  0.00     0.036 A 
ATOM     26 Br   UNK d   1      16.084  37.251  70.324  0.00  0.00    -0.048 Br
ATOM     27  O   UNK d   1      15.483  34.448  71.559  0.00  0.00    -0.189 OA
ATOM     28 Br   UNK d   1      17.093  31.940  72.266  0.00  0.00    -0.045 Br
ATOM     29  O   UNK d   1      19.884  32.673  71.454  0.00  0.00    -0.306 OA
ENDROOT
TORSDOF 0
ENDMDL
