MODEL 1
REMARK VINA RESULT:    -5.997      0.000      0.000
REMARK INTER + INTRA:          -5.997
REMARK INTER:                  -5.997
REMARK INTRA:                   0.000
REMARK UNBOUND:                 0.000
REMARK  0 active torsions:
REMARK  status: ('A' for Active; 'I' for Inactive)
ROOT
ATOM      1  I   UNK d   1      16.646  25.255  73.948  0.00  0.00    -0.038 I 
ATOM      2  C   UNK d   1      18.679  25.823  73.955  0.00  0.00     0.078 A 
ATOM      3  C   UNK d   1      18.963  27.169  73.747  0.00  0.00     0.105 A 
ATOM      4  C   UNK d   1      20.261  27.564  73.746  0.00  0.00     0.023 A 
ATOM      5  C   UNK d   1      21.262  26.612  73.953  0.00  0.00     0.035 A 
ATOM      6  C   UNK d   1      20.991  25.277  74.159  0.00  0.00     0.045 A 
ATOM      7  C   UNK d   1      19.668  24.883  74.159  0.00  0.00     0.143 A 
ATOM      8  O   UNK d   1      19.371  23.544  74.365  0.00  0.00    -0.189 OA
ATOM      9  I   UNK d   1      22.546  23.870  74.468  0.00  0.00    -0.042 I 
ATOM     10  C   UNK d   1      20.668  28.942  73.539  0.00  0.00     0.161 A 
ATOM     11  O   UNK d   1      21.521  29.068  72.392  0.00  0.00    -0.291 OA
ATOM     12  C   UNK d   1      22.737  29.613  72.709  0.00  0.00     0.297 A 
ATOM     13  O   UNK d   1      23.726  29.869  71.963  0.00  0.00    -0.259 OA
ATOM     14  C   UNK d   1      22.708  29.869  74.142  0.00  0.00     0.074 A 
ATOM     15  C   UNK d   1      21.498  29.477  74.630  0.00  0.00     0.028 A 
ATOM     16  C   UNK d   1      21.209  29.615  75.988  0.00  0.00     0.068 A 
ATOM     17  C   UNK d   1      22.132  30.147  76.862  0.00  0.00     0.080 A 
ATOM     18  C   UNK d   1      23.367  30.547  76.360  0.00  0.00     0.080 A 
ATOM     19  C   UNK d   1      23.656  30.413  75.025  0.00  0.00     0.074 A 
ATOM     20 Cl   UNK d   1      25.189  30.913  74.419  0.00  0.00    -0.081 Cl
ATOM     21 Cl   UNK d   1      24.577  31.228  77.411  0.00  0.00    -0.081 Cl
ATOM     22 Cl   UNK d   1      21.735  30.306  78.557  0.00  0.00    -0.081 Cl
ATOM     23 Cl   UNK d   1      19.652  29.096  76.542  0.00  0.00    -0.082 Cl
ATOM     24  C   UNK d   1      19.503  29.843  73.333  0.00  0.00     0.023 A 
ATOM     25  C   UNK d   1      18.219  29.415  73.340  0.00  0.00     0.105 A 
ATOM     26  C   UNK d   1      17.222  30.367  73.134  0.00  0.00     0.078 A 
ATOM     27  C   UNK d   1      17.493  31.700  72.927  0.00  0.00     0.143 A 
ATOM     28  C   UNK d   1      18.814  32.101  72.927  0.00  0.00     0.045 A 
ATOM     29  C   UNK d   1      19.821  31.192  73.126  0.00  0.00     0.035 A 
ATOM     30  I   UNK d   1      19.260  34.136  72.613  0.00  0.00    -0.042 I 
ATOM     31  O   UNK d   1      16.512  32.637  72.725  0.00  0.00    -0.189 OA
ATOM     32  I   UNK d   1      15.227  29.715  73.142  0.00  0.00    -0.038 I 
ATOM     33  O   UNK d   1      17.910  28.083  73.544  0.00  0.00    -0.307 OA
ENDROOT
TORSDOF 0
ENDMDL
