MODEL 1
REMARK VINA RESULT:    -8.759      0.000      0.000
REMARK INTER + INTRA:          -8.759
REMARK INTER:                  -8.759
REMARK INTRA:                   0.000
REMARK UNBOUND:                 0.000
REMARK  0 active torsions:
REMARK  status: ('A' for Active; 'I' for Inactive)
ROOT
ATOM      1  I   UNK d   1      24.793  32.737  69.462  0.00  0.00    -0.038 I 
ATOM      2  C   UNK d   1      23.224  32.343  70.830  0.00  0.00     0.078 A 
ATOM      3  C   UNK d   1      22.096  33.176  70.738  0.00  0.00     0.105 A 
ATOM      4  C   UNK d   1      21.075  32.944  71.605  0.00  0.00     0.023 A 
ATOM      5  C   UNK d   1      21.191  31.899  72.539  0.00  0.00     0.035 A 
ATOM      6  C   UNK d   1      22.292  31.087  72.626  0.00  0.00     0.045 A 
ATOM      7  C   UNK d   1      23.326  31.323  71.747  0.00  0.00     0.143 A 
ATOM      8  O   UNK d   1      24.455  30.520  71.808  0.00  0.00    -0.189 OA
ATOM      9  I   UNK d   1      22.400  29.528  74.059  0.00  0.00    -0.042 I 
ATOM     10  C   UNK d   1      19.855  33.760  71.588  0.00  0.00     0.159 A 
ATOM     11  O   UNK d   1      19.558  34.287  72.867  0.00  0.00    -0.291 OA
ATOM     12  C   UNK d   1      18.345  33.861  73.340  0.00  0.00     0.295 A 
ATOM     13  O   UNK d   1      17.781  34.138  74.432  0.00  0.00    -0.259 OA
ATOM     14  C   UNK d   1      17.773  32.988  72.325  0.00  0.00     0.049 A 
ATOM     15  C   UNK d   1      18.652  32.921  71.293  0.00  0.00     0.003 A 
ATOM     16  C   UNK d   1      18.318  32.132  70.186  0.00  0.00     0.012 A 
ATOM     17  C   UNK d   1      17.125  31.446  70.159  0.00  0.00     0.001 A 
ATOM     18  C   UNK d   1      16.231  31.512  71.206  0.00  0.00     0.001 A 
ATOM     19  C   UNK d   1      16.548  32.284  72.298  0.00  0.00     0.018 A 
ATOM     20  C   UNK d   1      19.874  34.814  70.560  0.00  0.00     0.023 A 
ATOM     21  C   UNK d   1      20.922  34.995  69.725  0.00  0.00     0.105 A 
ATOM     22  C   UNK d   1      20.871  36.014  68.778  0.00  0.00     0.078 A 
ATOM     23  C   UNK d   1      19.777  36.826  68.686  0.00  0.00     0.143 A 
ATOM     24  C   UNK d   1      18.693  36.670  69.518  0.00  0.00     0.045 A 
ATOM     25  C   UNK d   1      18.767  35.663  70.441  0.00  0.00     0.035 A 
ATOM     26  I   UNK d   1      17.001  37.931  69.370  0.00  0.00    -0.042 I 
ATOM     27  O   UNK d   1      19.751  37.834  67.731  0.00  0.00    -0.189 OA
ATOM     28  I   UNK d   1      22.524  36.290  67.470  0.00  0.00    -0.038 I 
ATOM     29  O   UNK d   1      22.072  34.190  69.777  0.00  0.00    -0.307 OA
ENDROOT
TORSDOF 0
ENDMDL
