/Users/jonathanwahrer/Desktop/Msc/3_Semester/Drug_Design_Praktikum/waehrer_HTS_screening/HTS_experiment/out/docking_results/vina_output/4x21/0980_docked.pdbqt
 OpenBabel03212202013D

 27 30  0  0  1  0  0  0  0  0999 V2000
   20.4210   32.9680   72.0710 I   0  0  0  0  0  0  0  0  0  0  0  0
   22.0410   33.0620   70.7280 C   0  0  0  0  0  0  0  0  0  0  0  0
   22.1050   33.9870   69.7050 C   0  0  0  0  0  0  0  0  0  0  0  0
   23.1630   34.0520   68.8240 C   0  0  0  0  0  0  0  0  0  0  0  0
   24.1900   33.1420   68.9910 C   0  0  0  0  0  2  0  0  0  0  0  0
   24.1340   32.2080   70.0150 C   0  0  0  0  0  3  0  0  0  0  0  0
   23.0630   32.1490   70.8980 C   0  0  0  0  0  0  0  0  0  0  0  0
   23.0580   31.1920   71.9090 O   0  0  0  0  0  1  0  0  0  0  0  0
   23.2460   34.9700   67.7970 C   0  0  0  0  0  0  0  0  0  0  0  0
   22.1770   35.8550   67.6890 C   0  0  0  0  0  0  0  0  0  0  0  0
   21.0750   35.7540   68.6420 C   0  0  0  0  0  0  0  0  0  0  0  0
   20.0460   36.6580   68.4850 C   0  0  1  0  0  3  0  0  0  0  0  0
   20.0320   37.6140   67.4920 C   0  0  0  0  0  0  0  0  0  0  0  0
   19.0770   38.4360   67.3630 O   0  0  0  0  0  0  0  0  0  0  0  0
   21.0730   37.7100   66.5890 C   0  0  0  0  0  3  0  0  0  0  0  0
   22.1200   36.8190   66.7210 C   0  0  0  0  0  3  0  0  0  0  0  0
   18.4150   36.5920   69.8090 I   0  0  0  0  0  0  0  0  0  0  0  0
   21.1160   34.8350   69.5750 O   0  0  0  0  0  0  0  0  0  0  0  0
   24.3630   35.0420   66.8620 C   0  0  0  0  0  0  0  0  0  0  0  0
   25.5180   35.7100   67.2600 C   0  0  0  0  0  0  0  0  0  0  0  0
   26.5930   35.8020   66.4170 C   0  0  0  0  0  3  0  0  0  0  0  0
   26.5280   35.2300   65.1650 C   0  0  0  0  0  3  0  0  0  0  0  0
   25.3980   34.5630   64.7470 C   0  0  0  0  0  3  0  0  0  0  0  0
   24.3290   34.4820   65.6120 C   0  0  0  0  0  3  0  0  0  0  0  0
   25.5970   36.3200   68.5840 C   0  0  0  0  0  0  0  0  0  0  0  0
   25.1290   37.4510   68.8400 O   0  0  0  0  0  0  0  0  0  0  0  0
   26.2130   35.6510   69.6320 O   0  0  0  0  0  1  0  0  0  0  0  0
  2  7  1  0  0  0  0
  2  1  1  0  0  0  0
  3  2  2  0  0  0  0
  4  5  1  0  0  0  0
  4  3  1  0  0  0  0
  5  6  1  0  0  0  0
  6  7  2  0  0  0  0
  7  8  1  0  0  0  0
  9  4  2  0  0  0  0
 10  9  1  0  0  0  0
 10 11  2  0  0  0  0
 11 18  1  0  0  0  0
 12 11  1  0  0  0  0
 12 17  1  6  0  0  0
 13 12  1  0  0  0  0
 14 13  2  0  0  0  0
 15 16  2  0  0  0  0
 15 13  1  0  0  0  0
 16 10  1  0  0  0  0
 18  3  1  0  0  0  0
 19 20  1  0  0  0  0
 19  9  1  0  0  0  0
 20 25  1  0  0  0  0
 21 20  2  0  0  0  0
 22 21  1  0  0  0  0
 23 22  2  0  0  0  0
 23 24  1  0  0  0  0
 24 19  2  0  0  0  0
 25 26  2  0  0  0  0
 25 27  1  0  0  0  0
M  END
>  <Pose>
1

>  <Score>
-7.849

$$$$
