MODEL 1
REMARK VINA RESULT:    -7.849      0.000      0.000
REMARK INTER + INTRA:          -9.320
REMARK INTER:                  -8.767
REMARK INTRA:                  -0.554
REMARK UNBOUND:                -0.554
REMARK  2 active torsions:
REMARK  status: ('A' for Active; 'I' for Inactive)
REMARK    1  A    between atoms: C_9  and  C_19 
REMARK    2  A    between atoms: C_20  and  C_25 
ROOT
ATOM      1  I   UNK d   1      20.421  32.968  72.071  0.00  0.00    -0.038 I 
ATOM      2  C   UNK d   1      22.041  33.062  70.728  0.00  0.00     0.077 A 
ATOM      3  C   UNK d   1      22.105  33.987  69.705  0.00  0.00     0.106 A 
ATOM      4  C   UNK d   1      23.163  34.052  68.824  0.00  0.00     0.011 A 
ATOM      5  C   UNK d   1      24.190  33.142  68.991  0.00  0.00     0.018 A 
ATOM      6  C   UNK d   1      24.134  32.208  70.015  0.00  0.00     0.042 A 
ATOM      7  C   UNK d   1      23.063  32.149  70.898  0.00  0.00     0.126 A 
ATOM      8  O   UNK d   1      23.058  31.192  71.909  0.00  0.00    -0.191 OA
ATOM      9  C   UNK d   1      23.246  34.970  67.797  0.00  0.00     0.001 A 
ATOM     10  C   UNK d   1      22.177  35.855  67.689  0.00  0.00     0.011 A 
ATOM     11  C   UNK d   1      21.075  35.754  68.642  0.00  0.00     0.107 A 
ATOM     12  C   UNK d   1      20.046  36.658  68.485  0.00  0.00     0.091 A 
ATOM     13  C   UNK d   1      20.032  37.614  67.492  0.00  0.00     0.191 A 
ATOM     14  O   UNK d   1      19.077  38.436  67.363  0.00  0.00    -0.287 OA
ATOM     15  C   UNK d   1      21.073  37.710  66.589  0.00  0.00     0.057 A 
ATOM     16  C   UNK d   1      22.120  36.819  66.721  0.00  0.00     0.019 A 
ATOM     17  I   UNK d   1      18.415  36.592  69.809  0.00  0.00    -0.037 I 
ATOM     18  O   UNK d   1      21.116  34.835  69.575  0.00  0.00    -0.306 OA
ENDROOT
BRANCH   9  19
ATOM     19  C   UNK d   1      24.363  35.042  66.862  0.00  0.00    -0.007 A 
ATOM     20  C   UNK d   1      25.518  35.710  67.260  0.00  0.00     0.051 A 
ATOM     21  C   UNK d   1      26.593  35.802  66.417  0.00  0.00     0.019 A 
ATOM     22  C   UNK d   1      26.528  35.230  65.165  0.00  0.00     0.001 A 
ATOM     23  C   UNK d   1      25.398  34.563  64.747  0.00  0.00     0.001 A 
ATOM     24  C   UNK d   1      24.329  34.482  65.612  0.00  0.00     0.013 A 
BRANCH  20  25
ATOM     25  C   UNK d   1      25.597  36.320  68.584  0.00  0.00     0.210 C 
ATOM     26  O   UNK d   1      25.129  37.451  68.840  0.00  0.00    -0.644 OA
ATOM     27  O   UNK d   1      26.213  35.651  69.632  0.00  0.00    -0.644 OA
ENDBRANCH  20  25
ENDBRANCH   9  19
TORSDOF 2
ENDMDL
