MODEL 1
REMARK VINA RESULT:    -8.220      0.000      0.000
REMARK INTER + INTRA:          -9.371
REMARK INTER:                  -9.422
REMARK INTRA:                   0.051
REMARK UNBOUND:                 0.051
REMARK  4 active torsions:
REMARK  status: ('A' for Active; 'I' for Inactive)
REMARK    1  A    between atoms: C_7  and  N_10 
REMARK    2  A    between atoms: C_8  and  O_9 
REMARK    3  A    between atoms: C_13  and  N_21 
REMARK    4  A    between atoms: C_15  and  O_20 
ROOT
ATOM      1  N   UNK d   1      16.418  34.336  71.037  0.00  0.00    -0.277 N 
ATOM      2  C   UNK d   1      15.229  33.765  71.264  0.00  0.00     0.186 A 
ATOM      3  N   UNK d   1      14.887  32.562  71.803  0.00  0.00    -0.042 NA
ATOM      4  C   UNK d   1      13.628  32.161  71.952  0.00  0.00     0.724 A 
ATOM      5  N   UNK d   1      12.641  32.982  71.550  0.00  0.00    -0.036 NA
ATOM      6  C   UNK d   1      12.909  34.188  71.008  0.00  0.00     0.214 A 
ATOM      7  C   UNK d   1      14.214  34.607  70.853  0.00  0.00     0.159 A 
ATOM      8  N   UNK d   1      14.819  35.702  70.370  0.00  0.00    -0.216 NA
ATOM      9  C   UNK d   1      16.157  35.533  70.484  0.00  0.00     0.182 A 
ATOM     10 Br   UNK d   1      17.501  36.789  69.948  0.00  0.00    -0.008 Br
ENDROOT
BRANCH   1  11
ATOM     11  C   UNK d   1      17.675  33.706  71.358  0.00  0.00     0.263 C 
ATOM     12  O   UNK d   1      18.755  34.572  71.188  0.00  0.00    -0.353 OA
ATOM     13  C   UNK d   1      19.814  33.737  71.446  0.00  0.00     0.180 C 
ATOM     14  C   UNK d   1      19.538  32.578  70.481  0.00  0.00     0.198 C 
ATOM     15  C   UNK d   1      21.153  34.291  71.133  0.00  0.00     0.216 C 
ATOM     16  O   UNK d   1      19.994  31.430  71.125  0.00  0.00    -0.279 OA
ATOM     17  C   UNK d   1      18.030  32.607  70.359  0.00  0.00     0.199 C 
ATOM     18  P   UNK d   1      21.450  31.864  71.903  0.00  0.00     0.408 P 
ATOM     19  O   UNK d   1      21.275  31.890  73.406  0.00  0.00    -0.624 OA
ATOM     20  O   UNK d   1      22.099  33.273  71.292  0.00  0.00    -0.287 OA
ATOM     21  O   UNK d   1      22.543  30.589  71.578  0.00  0.00    -0.624 OA
BRANCH  17  22
ATOM     22  O   UNK d   1      17.435  31.407  70.659  0.00  0.00    -0.388 OA
ATOM     23  H   UNK d   1      17.530  31.215  71.645  0.00  0.00     0.210 HD
ENDBRANCH  17  22
ENDBRANCH   1  11
BRANCH   4  24
ATOM     24  N   UNK d   1      13.321  30.891  72.522  0.00  0.00    -0.231 N 
ATOM     25  H   UNK d   1      12.379  30.500  72.307  0.00  0.00     0.174 HD
ATOM     26  H   UNK d   1      14.000  30.367  73.128  0.00  0.00     0.174 HD
ENDBRANCH   4  24
BRANCH   6  27
ATOM     27  O   UNK d   1      11.892  35.042  70.591  0.00  0.00    -0.343 OA
ATOM     28  H   UNK d   1      12.154  35.738  69.878  0.00  0.00     0.219 HD
ENDBRANCH   6  27
TORSDOF 4
ENDMDL
