MODEL 1
REMARK VINA RESULT:    -9.062      0.000      0.000
REMARK INTER + INTRA:         -11.442
REMARK INTER:                 -10.387
REMARK INTRA:                  -1.055
REMARK UNBOUND:                -1.055
REMARK  3 active torsions:
REMARK  status: ('A' for Active; 'I' for Inactive)
REMARK    1  A    between atoms: C_7  and  N_10 
REMARK    2  A    between atoms: C_8  and  O_9 
REMARK    3  A    between atoms: C_21  and  C_23 
ROOT
ATOM      1  N   UNK d   1      23.726  32.917  69.840  0.00  0.00    -0.279 N 
ATOM      2  C   UNK d   1      22.428  33.178  70.137  0.00  0.00     0.162 A 
ATOM      3  C   UNK d   1      21.889  32.160  70.895  0.00  0.00     0.173 A 
ATOM      4  N   UNK d   1      22.891  31.270  71.054  0.00  0.00    -0.214 NA
ATOM      5  C   UNK d   1      23.987  31.731  70.417  0.00  0.00     0.182 A 
ATOM      6 Br   UNK d   1      25.699  30.886  70.307  0.00  0.00    -0.008 Br
ATOM      7  C   UNK d   1      20.573  32.238  71.302  0.00  0.00     0.298 A 
ATOM      8  O   UNK d   1      20.074  31.321  71.990  0.00  0.00    -0.264 OA
ATOM      9  N   UNK d   1      19.781  33.287  70.983  0.00  0.00    -0.115 N 
ATOM     10  C   UNK d   1      20.327  34.269  70.242  0.00  0.00     0.716 A 
ATOM     11  N   UNK d   1      19.351  35.177  70.065  0.00  0.00    -0.062 NA
ATOM     12  C   UNK d   1      18.207  34.806  70.667  0.00  0.00     0.102 A 
ATOM     13  C   UNK d   1      18.482  33.590  71.257  0.00  0.00     0.152 A 
ATOM     14  N   UNK d   1      21.625  34.210  69.831  0.00  0.00    -0.171 N 
ATOM     15  H   UNK d   1      22.044  34.975  69.256  0.00  0.00     0.186 HD
ENDROOT
BRANCH   1  16
ATOM     16  C   UNK d   1      24.649  33.739  69.061  0.00  0.00     0.263 C 
ATOM     17  O   UNK d   1      24.370  35.094  69.223  0.00  0.00    -0.353 OA
ATOM     18  C   UNK d   1      24.825  35.756  68.117  0.00  0.00     0.180 C 
ATOM     19  C   UNK d   1      24.551  34.788  66.964  0.00  0.00     0.197 C 
ATOM     20  C   UNK d   1      24.061  37.020  67.800  0.00  0.00     0.214 C 
ATOM     21  O   UNK d   1      25.565  35.001  66.035  0.00  0.00    -0.292 OA
ATOM     22  C   UNK d   1      24.609  33.434  67.603  0.00  0.00     0.199 C 
ATOM     23  P   UNK d   1      25.759  36.684  65.908  0.00  0.00     0.422 P 
ATOM     24  S   UNK d   1      25.812  37.090  64.220  0.00  0.00     0.009 SA
ATOM     25  O   UNK d   1      24.444  37.510  66.572  0.00  0.00    -0.300 OA
ATOM     26  O   UNK d   1      27.151  37.210  66.709  0.00  0.00    -0.240 OA
BRANCH  22  27
ATOM     27  O   UNK d   1      25.760  32.747  67.196  0.00  0.00    -0.388 OA
ATOM     28  H   UNK d   1      26.447  33.353  66.850  0.00  0.00     0.210 HD
ENDBRANCH  22  27
ENDBRANCH   1  16
BRANCH  12  29
ATOM     29  C   UNK d   1      16.932  35.534  70.693  0.00  0.00    -0.005 A 
ATOM     30  C   UNK d   1      16.883  36.862  70.334  0.00  0.00     0.014 A 
ATOM     31  C   UNK d   1      15.692  37.578  70.348  0.00  0.00     0.001 A 
ATOM     32  C   UNK d   1      14.538  36.934  70.731  0.00  0.00     0.000 A 
ATOM     33  C   UNK d   1      14.544  35.598  71.101  0.00  0.00     0.001 A 
ATOM     34  C   UNK d   1      15.753  34.938  71.067  0.00  0.00     0.014 A 
ENDBRANCH  12  29
TORSDOF 3
ENDMDL
