MODEL 1
REMARK VINA RESULT:    -7.689      0.000      0.000
REMARK INTER + INTRA:          -8.779
REMARK INTER:                  -8.588
REMARK INTRA:                  -0.190
REMARK UNBOUND:                -0.190
REMARK  3 active torsions:
REMARK  status: ('A' for Active; 'I' for Inactive)
REMARK    1  A    between atoms: C_7  and  N_10 
REMARK    2  A    between atoms: C_8  and  O_9 
REMARK    3  A    between atoms: C_15  and  N_20 
ROOT
ATOM      1  P   UNK d   1      21.086  32.414  71.278  0.00  0.00     0.422 P 
ATOM      2  S   UNK d   1      21.468  33.651  70.107  0.00  0.00     0.009 SA
ATOM      3  O   UNK d   1      19.659  31.601  70.811  0.00  0.00    -0.292 OA
ATOM      4  C   UNK d   1      18.619  32.469  71.030  0.00  0.00     0.197 C 
ATOM      5  C   UNK d   1      18.547  32.780  72.531  0.00  0.00     0.180 C 
ATOM      6  O   UNK d   1      17.278  33.352  72.601  0.00  0.00    -0.353 OA
ATOM      7  C   UNK d   1      16.446  32.501  71.913  0.00  0.00     0.263 C 
ATOM      8  C   UNK d   1      17.257  31.827  70.835  0.00  0.00     0.199 C 
ATOM      9  C   UNK d   1      19.637  33.719  72.944  0.00  0.00     0.214 C 
ATOM     10  O   UNK d   1      20.851  33.072  72.795  0.00  0.00    -0.300 OA
ATOM     11  O   UNK d   1      22.336  31.306  71.288  0.00  0.00    -0.240 OA
ENDROOT
BRANCH   7  12
ATOM     12  N   UNK d   1      15.346  33.188  71.263  0.00  0.00    -0.278 N 
ATOM     13  C   UNK d   1      15.362  34.504  70.930  0.00  0.00     0.168 A 
ATOM     14  N   UNK d   1      16.304  35.470  71.085  0.00  0.00    -0.221 NA
ATOM     15  C   UNK d   1      14.160  34.820  70.331  0.00  0.00     0.151 A 
ATOM     16  C   UNK d   1      16.083  36.731  70.664  0.00  0.00     0.237 A 
ATOM     17  N   UNK d   1      14.904  37.047  70.076  0.00  0.00    -0.222 NA
ATOM     18  C   UNK d   1      13.946  36.118  69.905  0.00  0.00     0.155 A 
ATOM     19  N   UNK d   1      13.418  33.698  70.303  0.00  0.00    -0.216 NA
ATOM     20  C   UNK d   1      14.151  32.716  70.872  0.00  0.00     0.182 A 
ATOM     21 Br   UNK d   1      13.635  30.884  71.124  0.00  0.00    -0.008 Br
BRANCH  18  22
ATOM     22  N   UNK d   1      12.706  36.468  69.281  0.00  0.00    -0.382 N 
ATOM     23  H   UNK d   1      12.272  37.402  69.517  0.00  0.00     0.157 HD
ATOM     24  H   UNK d   1      12.222  35.840  68.610  0.00  0.00     0.157 HD
ENDBRANCH  18  22
ENDBRANCH   7  12
BRANCH   8  25
ATOM     25  O   UNK d   1      17.395  30.483  71.206  0.00  0.00    -0.388 OA
ATOM     26  H   UNK d   1      17.414  29.875  70.444  0.00  0.00     0.210 HD
ENDBRANCH   8  25
TORSDOF 3
ENDMDL
