/Users/jonathanwahrer/Desktop/Msc/3_Semester/Drug_Design_Praktikum/waehrer_HTS_screening/HTS_experiment/out/docking_results/vina_output/4x21/0999_docked.pdbqt
 OpenBabel03212202023D

 35 39  0  0  1  0  0  0  0  0999 V2000
   19.2510   35.1280   71.0210 N   0  0  0  0  0  0  0  0  0  0  0  0
   18.2190   34.6010   71.8370 C   0  0  0  0  0  0  0  0  0  0  0  0
   18.5160   34.2160   73.0000 O   0  0  0  0  0  0  0  0  0  0  0  0
   18.9790   35.4420   70.0560 H   0  0  0  0  0  0  0  0  0  0  0  0
   20.5790   35.2050   71.5360 C   0  0  1  0  0  3  0  0  0  0  0  0
   21.6990   34.8350   70.6580 C   0  0  1  0  0  0  0  0  0  0  0  0
   21.5980   33.4250   69.5570 S   0  0  0  0  0  0  0  0  0  0  0  0
   21.3750   36.0100   69.9130 N   0  0  0  0  0  0  0  0  0  0  0  0
   22.6580   34.0890   68.2210 C   0  0  0  0  0  2  0  0  0  0  0  0
   21.9470   35.3540   67.7200 C   0  0  0  0  0  0  0  0  0  0  0  0
   21.3690   36.2150   68.4970 C   0  0  0  0  0  0  0  0  0  0  0  0
   21.1260   36.5790   71.1860 C   0  0  1  0  0  0  0  0  0  0  0  0
   21.2200   37.6090   71.8640 O   0  0  0  0  0  1  0  0  0  0  0  0
   22.0170   35.4230   66.2830 C   0  0  0  0  0  2  0  0  0  0  0  0
   22.9290   36.1680   65.6140 O   0  0  0  0  0  0  0  0  0  0  0  0
   24.2720   35.7970   65.4700 C   0  0  0  0  0  0  0  0  0  0  0  0
   24.5360   34.9580   64.5890 O   0  0  0  0  0  0  0  0  0  0  0  0
   25.2660   36.4260   66.3720 C   0  0  0  0  0  1  0  0  0  0  0  0
   20.6800   37.4510   68.0230 C   0  0  0  0  0  0  0  0  0  0  0  0
   21.1860   38.3830   67.4360 O   0  0  0  0  0  0  0  0  0  0  0  0
   19.3000   37.5850   68.2650 O   0  0  0  0  0  1  0  0  0  0  0  0
   16.8340   34.4940   71.3700 C   0  0  0  0  0  0  0  0  0  0  0  0
   15.9030   33.6680   71.7340 O   0  0  0  0  0  0  0  0  0  0  0  0
   14.7910   33.8670   71.1030 C   0  0  0  0  0  0  0  0  0  0  0  0
   14.9980   34.9370   70.2230 C   0  0  0  0  0  3  0  0  0  0  0  0
   16.2990   35.3200   70.4070 C   0  0  0  0  0  3  0  0  0  0  0  0
   13.4880   33.1210   71.2450 C   0  0  0  0  0  2  0  0  0  0  0  0
   13.6760   31.7440   71.0410 O   0  0  0  0  0  0  0  0  0  0  0  0
   14.2590   30.8730   71.9170 C   0  0  0  0  0  0  0  0  0  0  0  0
   15.3670   30.0830   71.6250 C   0  0  0  0  0  3  0  0  0  0  0  0
   15.8750   29.2390   72.5860 C   0  0  0  0  0  3  0  0  0  0  0  0
   15.3440   29.1220   73.8490 C   0  0  0  0  0  0  0  0  0  0  0  0
   14.2410   29.9040   74.1480 C   0  0  0  0  0  3  0  0  0  0  0  0
   16.0920   27.9340   75.1400 Br  0  0  0  0  0  0  0  0  0  0  0  0
   13.7240   30.7580   73.1840 C   0  0  0  0  0  3  0  0  0  0  0  0
  1  2  1  0  0  0  0
  2  3  2  0  0  0  0
  4  1  1  0  0  0  0
  5  1  1  6  0  0  0
  6  7  1  1  0  0  0
  6 12  1  0  0  0  0
  6  5  1  0  0  0  0
  8  6  1  0  0  0  0
  8 12  1  0  0  0  0
  9  7  1  0  0  0  0
 10  9  1  0  0  0  0
 10 11  2  0  0  0  0
 11  8  1  0  0  0  0
 12  5  1  0  0  0  0
 12 13  1  1  0  0  0
 14 10  1  0  0  0  0
 15 14  1  0  0  0  0
 16 15  1  0  0  0  0
 16 18  1  0  0  0  0
 17 16  2  0  0  0  0
 19 21  1  0  0  0  0
 19 11  1  0  0  0  0
 20 19  2  0  0  0  0
 22 23  1  0  0  0  0
 22  2  1  0  0  0  0
 24 27  1  0  0  0  0
 24 23  1  0  0  0  0
 25 26  1  0  0  0  0
 25 24  2  0  0  0  0
 26 22  2  0  0  0  0
 28 27  1  0  0  0  0
 28 29  1  0  0  0  0
 29 35  1  0  0  0  0
 30 29  2  0  0  0  0
 30 31  1  0  0  0  0
 31 32  2  0  0  0  0
 32 33  1  0  0  0  0
 32 34  1  0  0  0  0
 35 33  2  0  0  0  0
M  END
>  <Pose>
1

>  <Score>
-7.898

$$$$
