MODEL 1
REMARK VINA RESULT:    -7.861      0.000      0.000
REMARK INTER + INTRA:          -8.693
REMARK INTER:                  -8.780
REMARK INTRA:                   0.088
REMARK UNBOUND:                 0.088
REMARK  3 active torsions:
REMARK  status: ('A' for Active; 'I' for Inactive)
REMARK    1  A    between atoms: C_7  and  N_10 
REMARK    2  A    between atoms: C_8  and  O_9 
REMARK    3  A    between atoms: C_15  and  N_20 
ROOT
ATOM      1  P   UNK d   1      20.882  32.346  72.349  0.00  0.00     0.408 P 
ATOM      2  O   UNK d   1      22.062  32.394  71.377  0.00  0.00    -0.624 OA
ATOM      3  O   UNK d   1      19.662  31.455  71.618  0.00  0.00    -0.279 OA
ATOM      4  C   UNK d   1      18.444  32.076  71.719  0.00  0.00     0.198 C 
ATOM      5  C   UNK d   1      18.435  32.808  73.068  0.00  0.00     0.180 C 
ATOM      6  O   UNK d   1      17.132  32.873  73.459  0.00  0.00    -0.353 OA
ATOM      7  C   UNK d   1      16.420  31.855  72.887  0.00  0.00     0.263 C 
ATOM      8  C   UNK d   1      17.285  31.135  71.911  0.00  0.00     0.199 C 
ATOM      9  C   UNK d   1      19.098  34.127  72.827  0.00  0.00     0.216 C 
ATOM     10  O   UNK d   1      20.450  33.922  72.688  0.00  0.00    -0.287 OA
ATOM     11  O   UNK d   1      21.459  31.528  73.736  0.00  0.00    -0.624 OA
ENDROOT
BRANCH   7  12
ATOM     12  N   UNK d   1      15.234  32.434  72.269  0.00  0.00    -0.278 N 
ATOM     13  C   UNK d   1      15.191  33.590  71.567  0.00  0.00     0.168 A 
ATOM     14  N   UNK d   1      16.159  34.471  71.259  0.00  0.00    -0.221 NA
ATOM     15  C   UNK d   1      13.894  33.796  71.147  0.00  0.00     0.151 A 
ATOM     16  C   UNK d   1      15.853  35.560  70.536  0.00  0.00     0.237 A 
ATOM     17  N   UNK d   1      14.586  35.759  70.129  0.00  0.00    -0.222 NA
ATOM     18  C   UNK d   1      13.571  34.925  70.398  0.00  0.00     0.155 A 
ATOM     19  N   UNK d   1      13.156  32.781  71.588  0.00  0.00    -0.216 NA
ATOM     20  C   UNK d   1      13.978  31.961  72.267  0.00  0.00     0.182 A 
ATOM     21 Br   UNK d   1      13.496  30.312  73.144  0.00  0.00    -0.008 Br
BRANCH  18  22
ATOM     22  N   UNK d   1      12.230  35.124  69.973  0.00  0.00    -0.382 N 
ATOM     23  H   UNK d   1      11.671  35.897  70.443  0.00  0.00     0.157 HD
ATOM     24  H   UNK d   1      11.764  34.576  69.244  0.00  0.00     0.157 HD
ENDBRANCH  18  22
ENDBRANCH   7  12
BRANCH   8  25
ATOM     25  O   UNK d   1      17.731  29.907  72.359  0.00  0.00    -0.388 OA
ATOM     26  H   UNK d   1      17.041  29.225  72.392  0.00  0.00     0.210 HD
ENDBRANCH   8  25
TORSDOF 3
ENDMDL
