/Users/jonathanwahrer/Desktop/Msc/3_Semester/Drug_Design_Praktikum/waehrer_HTS_screening/HTS_experiment/out/docking_results/vina_output/4x21/1008_docked.pdbqt
 OpenBabel03212202033D

 29 32  0  0  1  0  0  0  0  0999 V2000
   20.0540   37.2780   67.5630 C   0  0  0  0  0  0  0  0  0  0  0  0
   19.0930   37.2750   66.7550 O   0  0  0  0  0  0  0  0  0  0  0  0
   19.8060   37.2150   68.9660 N   0  0  0  0  0  0  0  0  0  0  0  0
   18.4510   37.1500   69.4720 C   0  0  0  0  0  2  0  0  0  0  0  0
   18.2980   36.2130   70.6290 C   0  0  2  0  0  3  0  0  0  0  0  0
   19.5450   35.3250   70.6480 C   0  0  0  0  0  2  0  0  0  0  0  0
   20.6880   36.2390   71.0350 C   0  0  0  0  0  2  0  0  0  0  0  0
   20.8950   37.2170   69.9070 C   0  0  0  0  0  2  0  0  0  0  0  0
   21.4080   37.3430   67.0510 C   0  0  0  0  0  0  0  0  0  0  0  0
   21.9450   38.5350   66.5750 C   0  0  0  0  0  3  0  0  0  0  0  0
   23.2290   38.6120   66.0880 C   0  0  0  0  0  0  0  0  0  0  0  0
   24.0280   37.4820   66.0600 C   0  0  0  0  0  3  0  0  0  0  0  0
   23.5140   36.2930   66.5270 C   0  0  0  0  0  3  0  0  0  0  0  0
   22.2110   36.2240   67.0200 C   0  0  0  0  0  0  0  0  0  0  0  0
   21.5530   34.5620   67.6490 Br  0  0  0  0  0  0  0  0  0  0  0  0
   23.8390   40.1330   65.5080 S   0  0  0  0  0  0  0  0  0  0  0  0
   23.9680   40.0640   64.0000 O   0  0  0  0  0  0  0  0  0  0  0  0
   25.2020   40.4190   66.0880 O   0  0  0  0  0  0  0  0  0  0  0  0
   22.7320   41.3940   65.8620 N   0  0  0  0  0  0  0  0  0  0  0  0
   23.1030   42.3310   65.5710 H   0  0  0  0  0  0  0  0  0  0  0  0
   22.5050   41.4000   66.8880 H   0  0  0  0  0  0  0  0  0  0  0  0
   17.0550   35.3810   70.5530 C   0  0  0  0  0  0  0  0  0  0  0  0
   15.7920   35.8340   70.3380 N   0  0  0  0  0  0  0  0  0  0  0  0
   14.9290   34.8130   70.3320 C   0  0  0  0  0  0  0  0  0  0  0  0
   15.0930   37.0870   70.1150 C   0  0  0  0  0  2  0  0  0  0  0  0
   15.6960   33.7030   70.5500 N   0  0  0  0  0  0  0  0  0  0  0  0
   13.5240   35.2600   70.1000 C   0  0  0  0  0  2  0  0  0  0  0  0
   16.9620   34.0480   70.6810 N   0  0  0  0  0  0  0  0  0  0  0  0
   13.7220   36.6670   69.6280 C   0  0  0  0  0  2  0  0  0  0  0  0
  1  3  1  0  0  0  0
  2  1  2  0  0  0  0
  3  4  1  0  0  0  0
  3  8  1  0  0  0  0
  4  5  1  0  0  0  0
  5 22  1  6  0  0  0
  5  6  1  0  0  0  0
  6  7  1  0  0  0  0
  8  7  1  0  0  0  0
  9  1  1  0  0  0  0
 10  9  2  0  0  0  0
 11 10  1  0  0  0  0
 12 11  2  0  0  0  0
 12 13  1  0  0  0  0
 13 14  2  0  0  0  0
 14  9  1  0  0  0  0
 14 15  1  0  0  0  0
 16 19  1  0  0  0  0
 16 18  2  0  0  0  0
 16 11  1  0  0  0  0
 17 16  2  0  0  0  0
 19 21  1  0  0  0  0
 20 19  1  0  0  0  0
 22 28  2  0  0  0  0
 23 22  1  0  0  0  0
 24 23  1  0  0  0  0
 24 26  2  0  0  0  0
 25 23  1  0  0  0  0
 26 28  1  0  0  0  0
 27 24  1  0  0  0  0
 29 27  1  0  0  0  0
 29 25  1  0  0  0  0
M  END
>  <Pose>
1

>  <Score>
-8.602

$$$$
