MODEL 1
REMARK VINA RESULT:    -8.602      0.000      0.000
REMARK INTER + INTRA:         -10.687
REMARK INTER:                 -10.362
REMARK INTRA:                  -0.325
REMARK UNBOUND:                -0.325
REMARK  4 active torsions:
REMARK  status: ('A' for Active; 'I' for Inactive)
REMARK    1  A    between atoms: S_1  and  N_4 
REMARK    2  A    between atoms: S_1  and  C_5 
REMARK    3  A    between atoms: C_7  and  C_12 
REMARK       I    between atoms: C_12  and  N_14 
REMARK    4  A    between atoms: C_16  and  C_20 
ROOT
ATOM      1  C   UNK d   1      20.054  37.278  67.563  0.00  0.00     0.255 C 
ATOM      2  O   UNK d   1      19.093  37.275  66.755  0.00  0.00    -0.267 OA
ATOM      3  N   UNK d   1      19.806  37.215  68.966  0.00  0.00    -0.347 N 
ATOM      4  C   UNK d   1      18.451  37.150  69.472  0.00  0.00     0.138 C 
ATOM      5  C   UNK d   1      18.298  36.213  70.629  0.00  0.00     0.075 C 
ATOM      6  C   UNK d   1      19.545  35.325  70.648  0.00  0.00     0.015 C 
ATOM      7  C   UNK d   1      20.688  36.239  71.035  0.00  0.00     0.021 C 
ATOM      8  C   UNK d   1      20.895  37.217  69.907  0.00  0.00     0.126 C 
ENDROOT
BRANCH   1   9
ATOM      9  C   UNK d   1      21.408  37.343  67.051  0.00  0.00     0.051 A 
ATOM     10  C   UNK d   1      21.945  38.535  66.575  0.00  0.00     0.043 A 
ATOM     11  C   UNK d   1      23.229  38.612  66.088  0.00  0.00     0.075 A 
ATOM     12  C   UNK d   1      24.028  37.482  66.060  0.00  0.00     0.026 A 
ATOM     13  C   UNK d   1      23.514  36.293  66.527  0.00  0.00     0.021 A 
ATOM     14  C   UNK d   1      22.211  36.224  67.020  0.00  0.00     0.026 A 
ATOM     15 Br   UNK d   1      21.553  34.562  67.649  0.00  0.00    -0.050 Br
BRANCH  11  16
ATOM     16  S   UNK d   1      23.839  40.133  65.508  0.00  0.00     0.239 S 
ATOM     17  O   UNK d   1      23.968  40.064  64.000  0.00  0.00    -0.206 OA
ATOM     18  O   UNK d   1      25.202  40.419  66.088  0.00  0.00    -0.206 OA
BRANCH  16  19
ATOM     19  N   UNK d   1      22.732  41.394  65.862  0.00  0.00    -0.225 NA
ATOM     20  H   UNK d   1      23.103  42.331  65.571  0.00  0.00     0.136 HD
ATOM     21  H   UNK d   1      22.505  41.400  66.888  0.00  0.00     0.136 HD
ENDBRANCH  16  19
ENDBRANCH  11  16
ENDBRANCH   1   9
BRANCH   5  22
ATOM     22  C   UNK d   1      17.055  35.381  70.553  0.00  0.00     0.136 A 
ATOM     23  N   UNK d   1      15.792  35.834  70.338  0.00  0.00    -0.320 N 
ATOM     24  C   UNK d   1      14.929  34.813  70.332  0.00  0.00     0.130 A 
ATOM     25  C   UNK d   1      15.093  37.087  70.115  0.00  0.00     0.132 C 
ATOM     26  N   UNK d   1      15.696  33.703  70.550  0.00  0.00    -0.135 NA
ATOM     27  C   UNK d   1      13.524  35.260  70.100  0.00  0.00     0.082 C 
ATOM     28  N   UNK d   1      16.962  34.048  70.681  0.00  0.00    -0.134 NA
ATOM     29  C   UNK d   1      13.722  36.667  69.628  0.00  0.00     0.028 C 
ENDBRANCH   5  22
TORSDOF 4
ENDMDL
