/Users/jonathanwahrer/Desktop/Msc/3_Semester/Drug_Design_Praktikum/waehrer_HTS_screening/HTS_experiment/out/docking_results/vina_output/4x21/1011_docked.pdbqt
 OpenBabel03212202033D

 29 32  0  0  0  0  0  0  0  0999 V2000
   19.6660   35.1530   70.5810 C   0  0  0  0  0  0  0  0  0  0  0  0
   18.2850   35.0370   70.7630 C   0  0  0  0  0  3  0  0  0  0  0  0
   17.4300   35.9930   70.2570 C   0  0  0  0  0  0  0  0  0  0  0  0
   17.8830   37.0960   69.5570 C   0  0  0  0  0  0  0  0  0  0  0  0
   19.2320   37.2180   69.3740 C   0  0  0  0  0  3  0  0  0  0  0  0
   20.1060   36.2520   69.8840 C   0  0  0  0  0  0  0  0  0  0  0  0
   21.9980   36.4360   69.6310 Br  0  0  0  0  0  0  0  0  0  0  0  0
   16.7200   37.9380   69.1600 C   0  0  0  0  0  2  0  0  0  0  0  0
   15.6340   37.4540   70.1450 C   0  0  0  0  0  2  0  0  0  0  0  0
   15.9940   36.0570   70.3270 N   0  0  0  0  0  0  0  0  0  0  0  0
   15.1650   34.9280   70.5280 C   0  0  0  0  0  0  0  0  0  0  0  0
   15.6160   33.7660   70.6500 O   0  0  0  0  0  0  0  0  0  0  0  0
   20.7240   33.9260   71.2270 S   0  0  0  0  0  0  0  0  0  0  0  0
   20.5880   32.6450   70.4130 O   0  0  0  0  0  0  0  0  0  0  0  0
   22.1590   34.3200   71.1360 O   0  0  0  0  0  0  0  0  0  0  0  0
   20.2620   33.5100   72.8330 N   0  0  0  0  0  0  0  0  0  0  0  0
   21.0590   33.7270   73.4630 H   0  0  0  0  0  0  0  0  0  0  0  0
   19.8630   32.1220   72.9590 C   0  0  0  0  0  2  0  0  0  0  0  0
   18.3420   32.1160   72.9730 C   0  0  0  0  0  2  0  0  0  0  0  0
   17.7970   31.2690   71.8540 C   0  0  0  0  0  2  0  0  0  0  0  0
   16.5190   30.7860   72.2240 N   0  0  0  0  0  0  0  0  0  0  0  0
   15.8650   31.4680   73.2830 C   0  0  0  0  0  2  0  0  0  0  0  0
   14.8080   30.5450   73.8670 C   0  0  0  0  0  2  0  0  0  0  0  0
   14.1170   29.8750   72.8770 O   0  0  0  0  0  0  0  0  0  0  0  0
   14.2340   30.4630   71.6230 C   0  0  0  0  0  2  0  0  0  0  0  0
   15.6910   30.2920   71.1860 C   0  0  0  0  0  2  0  0  0  0  0  0
   13.6980   35.1270   70.5960 C   0  0  0  0  0  3  0  0  0  0  0  0
   12.9160   33.9040   70.8500 C   0  0  0  0  0  2  0  0  0  0  0  0
   12.8210   34.6060   69.5170 C   0  0  0  0  0  2  0  0  0  0  0  0
  1  2  1  0  0  0  0
  1 13  1  0  0  0  0
  3 10  1  0  0  0  0
  3  2  2  0  0  0  0
  4  3  1  0  0  0  0
  5  4  2  0  0  0  0
  5  6  1  0  0  0  0
  6  1  2  0  0  0  0
  7  6  1  0  0  0  0
  8  4  1  0  0  0  0
  8  9  1  0  0  0  0
  9 10  1  0  0  0  0
 10 11  1  0  0  0  0
 11 27  1  0  0  0  0
 11 12  2  0  0  0  0
 13 16  1  0  0  0  0
 14 13  2  0  0  0  0
 15 13  2  0  0  0  0
 16 18  1  0  0  0  0
 16 17  1  0  0  0  0
 18 19  1  0  0  0  0
 20 21  1  0  0  0  0
 20 19  1  0  0  0  0
 21 22  1  0  0  0  0
 22 23  1  0  0  0  0
 24 23  1  0  0  0  0
 25 24  1  0  0  0  0
 26 25  1  0  0  0  0
 26 21  1  0  0  0  0
 27 28  1  0  0  0  0
 29 27  1  0  0  0  0
 29 28  1  0  0  0  0
M  END
>  <Pose>
1

>  <Score>
-8.336

$$$$
