MODEL 1
REMARK VINA RESULT:    -7.602      0.000      0.000
REMARK INTER + INTRA:          -9.704
REMARK INTER:                  -9.824
REMARK INTRA:                   0.120
REMARK UNBOUND:                 0.120
REMARK  5 active torsions:
REMARK  status: ('A' for Active; 'I' for Inactive)
REMARK    1  A    between atoms: S_1  and  N_4 
REMARK    2  A    between atoms: S_1  and  C_20 
REMARK    3  A    between atoms: C_6  and  N_8 
REMARK    4  A    between atoms: C_11  and  C_13 
REMARK    5  A    between atoms: C_13  and  N_14 
ROOT
ATOM      1  N   UNK d   1      21.188  35.101  68.127  0.00  0.00    -0.202 NA
ATOM      2  C   UNK d   1      20.587  35.370  69.385  0.00  0.00     0.136 C 
ATOM      3  C   UNK d   1      20.353  36.781  69.007  0.00  0.00     0.139 C 
ATOM      4  C   UNK d   1      20.806  36.381  67.647  0.00  0.00     0.136 C 
ENDROOT
BRANCH   3   5
ATOM      5  N   UNK d   1      18.976  37.236  69.028  0.00  0.00    -0.254 N 
ATOM      6  N   UNK d   1      18.309  37.854  68.089  0.00  0.00    -0.066 NA
ATOM      7  N   UNK d   1      17.057  38.107  68.495  0.00  0.00    -0.134 NA
ATOM      8  C   UNK d   1      16.907  37.635  69.744  0.00  0.00     0.093 A 
ATOM      9  C   UNK d   1      18.139  37.084  70.068  0.00  0.00     0.145 A 
BRANCH   8  10
ATOM     10  C   UNK d   1      15.681  37.687  70.609  0.00  0.00     0.188 C 
BRANCH  10  11
ATOM     11  N   UNK d   1      14.846  36.552  70.262  0.00  0.00    -0.346 N 
ATOM     12  C   UNK d   1      13.689  36.593  69.420  0.00  0.00     0.126 C 
ATOM     13  C   UNK d   1      13.215  35.173  69.296  0.00  0.00     0.029 C 
ATOM     14  C   UNK d   1      14.262  34.273  69.868  0.00  0.00     0.104 C 
ATOM     15  C   UNK d   1      15.065  35.220  70.718  0.00  0.00     0.220 C 
ATOM     16  O   UNK d   1      15.791  34.848  71.658  0.00  0.00    -0.273 OA
ENDBRANCH  10  11
ENDBRANCH   8  10
ENDBRANCH   3   5
BRANCH   1  17
ATOM     17  S   UNK d   1      22.840  34.760  68.048  0.00  0.00     0.250 S 
ATOM     18  O   UNK d   1      23.033  33.451  67.338  0.00  0.00    -0.205 OA
ATOM     19  O   UNK d   1      23.453  34.596  69.419  0.00  0.00    -0.205 OA
BRANCH  17  20
ATOM     20  C   UNK d   1      23.769  35.963  67.157  0.00  0.00     0.116 A 
ATOM     21  S   UNK d   1      24.166  35.964  65.489  0.00  0.00    -0.070 SA
ATOM     22  C   UNK d   1      25.052  37.422  65.418  0.00  0.00     0.052 A 
ATOM     23  C   UNK d   1      25.008  37.866  66.715  0.00  0.00     0.028 A 
ATOM     24 Br   UNK d   1      25.910  38.262  63.912  0.00  0.00    -0.043 Br
ATOM     25  C   UNK d   1      24.349  37.115  67.599  0.00  0.00     0.034 A 
ENDBRANCH  17  20
ENDBRANCH   1  17
TORSDOF 5
ENDMDL
