/Users/jonathanwahrer/Desktop/Msc/3_Semester/Drug_Design_Praktikum/waehrer_HTS_screening/HTS_experiment/out/docking_results/vina_output/4x21/1028_docked.pdbqt
 OpenBabel03212202043D

 25 28  0  0  1  0  0  0  0  0999 V2000
   21.1880   35.1010   68.1270 N   0  0  0  0  0  0  0  0  0  0  0  0
   20.5870   35.3700   69.3850 C   0  0  0  0  0  2  0  0  0  0  0  0
   20.3530   36.7810   69.0070 C   0  0  1  0  0  3  0  0  0  0  0  0
   20.8060   36.3810   67.6470 C   0  0  0  0  0  2  0  0  0  0  0  0
   18.9760   37.2360   69.0280 N   0  0  0  0  0  0  0  0  0  0  0  0
   18.3090   37.8540   68.0890 N   0  0  0  0  0  0  0  0  0  0  0  0
   17.0570   38.1070   68.4950 N   0  0  0  0  0  0  0  0  0  0  0  0
   16.9070   37.6350   69.7440 C   0  0  0  0  0  0  0  0  0  0  0  0
   18.1390   37.0840   70.0680 C   0  0  0  0  0  3  0  0  0  0  0  0
   15.6810   37.6870   70.6090 C   0  0  0  0  0  2  0  0  0  0  0  0
   14.8460   36.5520   70.2620 N   0  0  0  0  0  0  0  0  0  0  0  0
   13.6890   36.5930   69.4200 C   0  0  0  0  0  2  0  0  0  0  0  0
   13.2150   35.1730   69.2960 C   0  0  0  0  0  2  0  0  0  0  0  0
   14.2620   34.2730   69.8680 C   0  0  0  0  0  2  0  0  0  0  0  0
   15.0650   35.2200   70.7180 C   0  0  0  0  0  0  0  0  0  0  0  0
   15.7910   34.8480   71.6580 O   0  0  0  0  0  0  0  0  0  0  0  0
   22.8400   34.7600   68.0480 S   0  0  0  0  0  0  0  0  0  0  0  0
   23.0330   33.4510   67.3380 O   0  0  0  0  0  0  0  0  0  0  0  0
   23.4530   34.5960   69.4190 O   0  0  0  0  0  0  0  0  0  0  0  0
   23.7690   35.9630   67.1570 C   0  0  0  0  0  0  0  0  0  0  0  0
   24.1660   35.9640   65.4890 S   0  0  0  0  0  0  0  0  0  0  0  0
   25.0520   37.4220   65.4180 C   0  0  0  0  0  0  0  0  0  0  0  0
   25.0080   37.8660   66.7150 C   0  0  0  0  0  3  0  0  0  0  0  0
   25.9100   38.2620   63.9120 Br  0  0  0  0  0  0  0  0  0  0  0  0
   24.3490   37.1150   67.5990 C   0  0  0  0  0  3  0  0  0  0  0  0
  1  2  1  0  0  0  0
  3  4  1  6  0  0  0
  3  5  1  0  0  0  0
  3  2  1  0  0  0  0
  4  1  1  0  0  0  0
  5  9  1  0  0  0  0
  6  7  2  0  0  0  0
  6  5  1  0  0  0  0
  7  8  1  0  0  0  0
  8  9  2  0  0  0  0
  8 10  1  0  0  0  0
 11 10  1  0  0  0  0
 11 15  1  0  0  0  0
 12 11  1  0  0  0  0
 13 12  1  0  0  0  0
 13 14  1  0  0  0  0
 14 15  1  0  0  0  0
 15 16  2  0  0  0  0
 17  1  1  0  0  0  0
 17 19  2  0  0  0  0
 18 17  2  0  0  0  0
 20 25  2  0  0  0  0
 20 17  1  0  0  0  0
 21 20  1  0  0  0  0
 22 21  1  0  0  0  0
 22 23  2  0  0  0  0
 23 25  1  0  0  0  0
 24 22  1  0  0  0  0
M  END
>  <Pose>
1

>  <Score>
-7.602

$$$$
