/Users/jonathanwahrer/Desktop/Msc/3_Semester/Drug_Design_Praktikum/waehrer_HTS_screening/HTS_experiment/out/docking_results/vina_output/4x21/1037_docked.pdbqt
 OpenBabel03212202043D

 31 34  0  0  0  0  0  0  0  0999 V2000
   18.4620   32.3410   73.1650 N   0  0  0  0  0  0  0  0  0  0  0  0
   19.8340   32.1240   72.8540 C   0  0  0  0  0  3  0  0  0  0  0  0
   20.5210   33.0910   72.0070 C   0  0  0  0  0  3  0  0  0  0  0  0
   19.8910   34.3780   71.7800 N   0  0  0  0  0  0  0  0  0  0  0  0
   18.5240   34.5960   72.1380 C   0  0  0  0  0  2  0  0  0  0  0  0
   18.0870   33.7020   73.2920 C   0  0  0  0  0  2  0  0  0  0  0  0
   20.6690   35.3970   71.2260 C   0  0  0  0  0  0  0  0  0  0  0  0
   21.9540   35.0000   71.1050 O   0  0  0  0  0  0  0  0  0  0  0  0
   17.3460   31.3490   72.3650 S   0  0  0  0  0  0  0  0  0  0  0  0
   16.9880   30.1880   73.2530 O   0  0  0  0  0  0  0  0  0  0  0  0
   17.9690   30.7490   71.1160 O   0  0  0  0  0  0  0  0  0  0  0  0
   15.8350   32.1390   71.9650 C   0  0  0  0  0  0  0  0  0  0  0  0
   15.8290   33.2400   71.1100 C   0  0  0  0  0  3  0  0  0  0  0  0
   14.6750   33.9110   70.7680 C   0  0  0  0  0  0  0  0  0  0  0  0
   13.4550   33.5160   71.2680 C   0  0  0  0  0  0  0  0  0  0  0  0
   14.6940   35.0520   69.8940 N   0  0  0  0  0  0  0  0  0  0  0  0
   13.4530   32.4280   72.1140 C   0  0  0  0  0  3  0  0  0  0  0  0
   12.2700   34.1980   70.9270 O   0  0  0  0  0  0  0  0  0  0  0  0
   14.6130   31.7460   72.4640 C   0  0  0  0  0  3  0  0  0  0  0  0
   12.2040   34.9240   69.6860 C   0  0  0  0  0  2  0  0  0  0  0  0
   13.4690   35.7000   69.6030 C   0  0  0  0  0  0  0  0  0  0  0  0
   13.4930   36.9110   69.2860 O   0  0  0  0  0  0  0  0  0  0  0  0
   15.6120   35.3410   69.5240 H   0  0  0  0  0  0  0  0  0  0  0  0
   20.3970   36.7300   70.7750 C   0  0  0  0  0  2  0  0  0  0  0  0
   20.2240   37.0370   69.3570 C   0  0  0  0  0  0  0  0  0  0  0  0
   18.9900   37.3360   68.8340 C   0  0  0  0  0  0  0  0  0  0  0  0
   18.8390   37.6330   67.4800 C   0  0  0  0  0  3  0  0  0  0  0  0
   17.4370   37.3430   69.9570 Br  0  0  0  0  0  0  0  0  0  0  0  0
   19.9340   37.6270   66.6660 C   0  0  0  0  0  3  0  0  0  0  0  0
   21.1910   37.3260   67.1910 C   0  0  0  0  0  3  0  0  0  0  0  0
   21.3340   37.0370   68.5110 C   0  0  0  0  0  3  0  0  0  0  0  0
  1  6  1  0  0  0  0
  2  1  1  0  0  0  0
  3  2  2  0  0  0  0
  4  3  1  0  0  0  0
  4  5  1  0  0  0  0
  5  6  1  0  0  0  0
  7  4  1  0  0  0  0
  8  7  2  0  0  0  0
  9  1  1  0  0  0  0
  9 10  2  0  0  0  0
 11  9  2  0  0  0  0
 12  9  1  0  0  0  0
 12 19  1  0  0  0  0
 13 12  2  0  0  0  0
 14 13  1  0  0  0  0
 14 15  2  0  0  0  0
 15 17  1  0  0  0  0
 16 14  1  0  0  0  0
 17 19  2  0  0  0  0
 18 15  1  0  0  0  0
 20 18  1  0  0  0  0
 21 20  1  0  0  0  0
 21 16  1  0  0  0  0
 22 21  2  0  0  0  0
 23 16  1  0  0  0  0
 24  7  1  0  0  0  0
 25 24  1  0  0  0  0
 26 25  1  0  0  0  0
 26 28  1  0  0  0  0
 27 26  2  0  0  0  0
 29 30  2  0  0  0  0
 29 27  1  0  0  0  0
 30 31  1  0  0  0  0
 31 25  2  0  0  0  0
M  END
>  <Pose>
1

>  <Score>
-9.782

$$$$
