MODEL 1
REMARK VINA RESULT:    -9.782      0.000      0.000
REMARK INTER + INTRA:         -12.531
REMARK INTER:                 -12.069
REMARK INTRA:                  -0.461
REMARK UNBOUND:                -0.461
REMARK  4 active torsions:
REMARK  status: ('A' for Active; 'I' for Inactive)
REMARK    1  A    between atoms: S_1  and  N_4 
REMARK    2  A    between atoms: S_1  and  C_20 
REMARK       I    between atoms: N_7  and  C_10 
REMARK    3  A    between atoms: C_10  and  C_12 
REMARK    4  A    between atoms: C_12  and  C_13 
ROOT
ATOM      1  N   UNK d   1      18.462  32.341  73.165  0.00  0.00    -0.304 N 
ATOM      2  C   UNK d   1      19.834  32.124  72.854  0.00  0.00     0.155 C 
ATOM      3  C   UNK d   1      20.521  33.091  72.007  0.00  0.00     0.145 C 
ATOM      4  N   UNK d   1      19.891  34.378  71.780  0.00  0.00    -0.360 N 
ATOM      5  C   UNK d   1      18.524  34.596  72.138  0.00  0.00     0.145 C 
ATOM      6  C   UNK d   1      18.087  33.702  73.292  0.00  0.00     0.155 C 
ATOM      7  C   UNK d   1      20.669  35.397  71.226  0.00  0.00     0.158 C 
ATOM      8  O   UNK d   1      21.954  35.000  71.105  0.00  0.00    -0.177 OA
ENDROOT
BRANCH   1   9
ATOM      9  S   UNK d   1      17.346  31.349  72.365  0.00  0.00     0.261 S 
ATOM     10  O   UNK d   1      16.988  30.188  73.253  0.00  0.00    -0.200 OA
ATOM     11  O   UNK d   1      17.969  30.749  71.116  0.00  0.00    -0.200 OA
BRANCH   9  12
ATOM     12  C   UNK d   1      15.835  32.139  71.965  0.00  0.00     0.082 A 
ATOM     13  C   UNK d   1      15.829  33.240  71.110  0.00  0.00     0.057 A 
ATOM     14  C   UNK d   1      14.675  33.911  70.768  0.00  0.00     0.070 A 
ATOM     15  C   UNK d   1      13.455  33.516  71.268  0.00  0.00     0.096 A 
ATOM     16  N   UNK d   1      14.694  35.052  69.894  0.00  0.00    -0.323 N 
ATOM     17  C   UNK d   1      13.453  32.428  72.114  0.00  0.00     0.040 A 
ATOM     18  O   UNK d   1      12.270  34.198  70.927  0.00  0.00    -0.340 OA
ATOM     19  C   UNK d   1      14.613  31.746  72.464  0.00  0.00     0.028 A 
ATOM     20  C   UNK d   1      12.204  34.924  69.686  0.00  0.00     0.278 C 
ATOM     21  C   UNK d   1      13.469  35.700  69.603  0.00  0.00     0.246 C 
ATOM     22  O   UNK d   1      13.493  36.911  69.286  0.00  0.00    -0.271 OA
ATOM     23  H   UNK d   1      15.612  35.341  69.524  0.00  0.00     0.169 HD
ENDBRANCH   9  12
ENDBRANCH   1   9
BRANCH   7  24
ATOM     24  C   UNK d   1      20.397  36.730  70.775  0.00  0.00     0.127 C 
BRANCH  24  25
ATOM     25  C   UNK d   1      20.224  37.037  69.357  0.00  0.00    -0.033 A 
ATOM     26  C   UNK d   1      18.990  37.336  68.834  0.00  0.00     0.017 A 
ATOM     27  C   UNK d   1      18.839  37.633  67.480  0.00  0.00     0.019 A 
ATOM     28 Br   UNK d   1      17.437  37.343  69.957  0.00  0.00    -0.051 Br
ATOM     29  C   UNK d   1      19.934  37.627  66.666  0.00  0.00     0.001 A 
ATOM     30  C   UNK d   1      21.191  37.326  67.191  0.00  0.00     0.001 A 
ATOM     31  C   UNK d   1      21.334  37.037  68.511  0.00  0.00     0.009 A 
ENDBRANCH  24  25
ENDBRANCH   7  24
TORSDOF 4
ENDMDL
