MODEL 1
REMARK VINA RESULT:    -8.919      0.000      0.000
REMARK INTER + INTRA:         -11.253
REMARK INTER:                 -11.005
REMARK INTRA:                  -0.248
REMARK UNBOUND:                -0.248
REMARK  4 active torsions:
REMARK  status: ('A' for Active; 'I' for Inactive)
REMARK    1  A    between atoms: S_1  and  N_4 
REMARK    2  A    between atoms: S_1  and  C_19 
REMARK       I    between atoms: N_7  and  C_10 
REMARK    3  A    between atoms: C_12  and  N_13 
REMARK    4  A    between atoms: C_22  and  O_30 
ROOT
ATOM      1  S   UNK d   1      20.617  36.065  70.041  0.00  0.00     0.247 S 
ATOM      2  O   UNK d   1      21.069  37.376  69.525  0.00  0.00    -0.206 OA
ATOM      3  O   UNK d   1      21.270  35.940  71.422  0.00  0.00    -0.206 OA
ENDROOT
BRANCH   1   4
ATOM      4  N   UNK d   1      21.229  34.723  69.154  0.00  0.00    -0.203 NA
ATOM      5  C   UNK d   1      22.421  34.163  69.691  0.00  0.00     0.127 C 
ATOM      6  C   UNK d   1      23.701  34.817  69.187  0.00  0.00     0.140 C 
ATOM      7  N   UNK d   1      23.671  34.850  67.764  0.00  0.00    -0.359 N 
ATOM      8  C   UNK d   1      22.503  35.630  67.244  0.00  0.00     0.140 C 
ATOM      9  C   UNK d   1      24.509  34.300  66.814  0.00  0.00     0.173 C 
ATOM     10  C   UNK d   1      21.280  34.942  67.748  0.00  0.00     0.127 C 
ATOM     11  O   UNK d   1      24.162  34.537  65.565  0.00  0.00    -0.175 OA
ATOM     12  C   UNK d   1      25.700  33.512  66.941  0.00  0.00     0.237 C 
BRANCH  12  13
ATOM     13  N   UNK d   1      26.208  33.200  68.228  0.00  0.00    -0.272 N 
ATOM     14  N   UNK d   1      26.884  33.996  69.054  0.00  0.00    -0.183 NA
ATOM     15  C   UNK d   1      27.166  33.367  70.201  0.00  0.00     0.159 A 
ATOM     16  C   UNK d   1      26.634  32.106  70.081  0.00  0.00     0.047 A 
ATOM     17  C   UNK d   1      26.042  32.007  68.858  0.00  0.00     0.133 A 
ATOM     18 Br   UNK d   1      26.709  30.716  71.408  0.00  0.00    -0.048 Br
ENDBRANCH  12  13
ENDBRANCH   1   4
BRANCH   1  19
ATOM     19  C   UNK d   1      18.910  35.937  70.327  0.00  0.00     0.118 A 
ATOM     20  C   UNK d   1      17.984  36.784  69.701  0.00  0.00     0.131 A 
ATOM     21  C   UNK d   1      16.628  36.679  69.935  0.00  0.00     0.140 A 
ATOM     22  O   UNK d   1      18.223  37.814  68.795  0.00  0.00    -0.321 OA
ATOM     23  C   UNK d   1      16.126  35.728  70.800  0.00  0.00     0.113 A 
ATOM     24  O   UNK d   1      16.001  37.644  69.178  0.00  0.00    -0.320 OA
ATOM     25  C   UNK d   1      17.023  34.900  71.415  0.00  0.00     0.004 A 
ATOM     26  C   UNK d   1      18.387  35.017  71.170  0.00  0.00    -0.020 A 
ATOM     27  C   UNK d   1      16.642  33.829  72.365  0.00  0.00     0.158 C 
ATOM     28  C   UNK d   1      19.228  34.063  71.913  0.00  0.00     0.060 C 
ATOM     29  C   UNK d   1      18.690  32.654  71.784  0.00  0.00     0.121 C 
ATOM     30  N   UNK d   1      17.284  32.630  71.929  0.00  0.00    -0.412 N 
ATOM     31  C   UNK d   1      16.555  31.846  70.996  0.00  0.00     0.143 C 
ATOM     32  C   UNK d   1      16.973  38.446  68.569  0.00  0.00     0.352 C 
BRANCH  23  33
ATOM     33  O   UNK d   1      14.741  35.615  71.045  0.00  0.00    -0.352 OA
ATOM     34  C   UNK d   1      13.934  34.907  70.094  0.00  0.00     0.210 C 
ENDBRANCH  23  33
ENDBRANCH   1  19
TORSDOF 4
ENDMDL
