MODEL 1
REMARK VINA RESULT:    -9.140      0.000      0.000
REMARK INTER + INTRA:         -12.038
REMARK INTER:                 -11.277
REMARK INTRA:                  -0.762
REMARK UNBOUND:                -0.762
REMARK  4 active torsions:
REMARK  status: ('A' for Active; 'I' for Inactive)
REMARK    1  A    between atoms: S_1  and  N_4 
REMARK    2  A    between atoms: S_1  and  C_24 
REMARK       I    between atoms: N_7  and  C_10 
REMARK    3  A    between atoms: C_10  and  C_12 
REMARK    4  A    between atoms: C_12  and  N_13 
ROOT
ATOM      1  N   UNK d   1      19.981  34.743  70.613  0.00  0.00    -0.304 N 
ATOM      2  C   UNK d   1      19.660  35.044  71.927  0.00  0.00     0.155 C 
ATOM      3  C   UNK d   1      19.476  33.707  72.697  0.00  0.00     0.146 C 
ATOM      4  N   UNK d   1      18.558  32.863  71.985  0.00  0.00    -0.348 N 
ATOM      5  C   UNK d   1      18.913  32.512  70.629  0.00  0.00     0.146 C 
ATOM      6  C   UNK d   1      20.111  33.357  70.255  0.00  0.00     0.155 C 
ATOM      7  C   UNK d   1      17.357  32.375  72.536  0.00  0.00     0.238 C 
ATOM      8  O   UNK d   1      17.055  32.683  73.711  0.00  0.00    -0.272 OA
ENDROOT
BRANCH   7   9
ATOM      9  C   UNK d   1      16.462  31.517  71.757  0.00  0.00     0.239 C 
BRANCH   9  10
ATOM     10  N   UNK d   1      15.189  32.189  71.514  0.00  0.00    -0.259 N 
ATOM     11  C   UNK d   1      13.930  31.988  72.124  0.00  0.00     0.326 C 
ATOM     12  O   UNK d   1      13.689  31.136  73.041  0.00  0.00    -0.247 OA
ATOM     13  N   UNK d   1      13.016  32.900  71.528  0.00  0.00    -0.324 N 
ATOM     14  C   UNK d   1      13.798  33.948  70.927  0.00  0.00     0.116 C 
ATOM     15  H   UNK d   1      11.976  32.757  71.566  0.00  0.00     0.165 HD
ATOM     16  C   UNK d   1      14.054  35.106  71.835  0.00  0.00     0.041 C 
ATOM     17  C   UNK d   1      13.104  34.566  69.734  0.00  0.00     0.041 C 
ATOM     18  C   UNK d   1      15.037  33.236  70.534  0.00  0.00     0.256 C 
ATOM     19  C   UNK d   1      14.523  36.179  70.844  0.00  0.00     0.003 C 
ATOM     20  C   UNK d   1      13.670  35.943  69.627  0.00  0.00     0.003 C 
ATOM     21  O   UNK d   1      15.780  33.496  69.561  0.00  0.00    -0.270 OA
ENDBRANCH   9  10
ENDBRANCH   7   9
BRANCH   1  22
ATOM     22  S   UNK d   1      20.542  35.852  69.518  0.00  0.00     0.262 S 
ATOM     23  O   UNK d   1      21.479  36.820  70.254  0.00  0.00    -0.200 OA
ATOM     24  O   UNK d   1      21.463  35.214  68.474  0.00  0.00    -0.200 OA
BRANCH  22  25
ATOM     25  C   UNK d   1      19.387  36.861  68.704  0.00  0.00     0.097 A 
ATOM     26  C   UNK d   1      19.560  37.484  67.498  0.00  0.00     0.034 A 
ATOM     27  C   UNK d   1      18.582  38.322  66.950  0.00  0.00     0.020 A 
ATOM     28 Br   UNK d   1      21.142  37.154  66.503  0.00  0.00    -0.049 Br
ATOM     29  C   UNK d   1      17.406  38.559  67.589  0.00  0.00     0.001 A 
ATOM     30  C   UNK d   1      17.200  37.949  68.797  0.00  0.00     0.002 A 
ATOM     31  C   UNK d   1      18.159  37.126  69.339  0.00  0.00     0.027 A 
ENDBRANCH  22  25
ENDBRANCH   1  22
TORSDOF 4
ENDMDL
