MODEL 1
REMARK VINA RESULT:    -8.528      0.000      0.000
REMARK INTER + INTRA:         -10.738
REMARK INTER:                 -10.023
REMARK INTRA:                  -0.715
REMARK UNBOUND:                -0.715
REMARK  3 active torsions:
REMARK  status: ('A' for Active; 'I' for Inactive)
REMARK    1  A    between atoms: S_1  and  N_4 
REMARK    2  A    between atoms: S_1  and  C_24 
REMARK       I    between atoms: N_7  and  C_10 
REMARK    3  A    between atoms: C_12  and  N_13 
ROOT
ATOM      1  N   UNK d   1      20.673  35.543  68.678  0.00  0.00    -0.203 NA
ATOM      2  C   UNK d   1      21.467  34.333  68.641  0.00  0.00     0.127 C 
ATOM      3  C   UNK d   1      21.577  33.710  70.010  0.00  0.00     0.140 C 
ATOM      4  N   UNK d   1      20.201  33.578  70.532  0.00  0.00    -0.359 N 
ATOM      5  C   UNK d   1      19.445  34.791  70.581  0.00  0.00     0.140 C 
ATOM      6  C   UNK d   1      20.345  35.913  70.010  0.00  0.00     0.127 C 
ATOM      7  C   UNK d   1      19.707  32.329  70.935  0.00  0.00     0.172 C 
ATOM      8  O   UNK d   1      20.560  31.334  70.797  0.00  0.00    -0.175 OA
ATOM      9  C   UNK d   1      18.441  31.906  71.478  0.00  0.00     0.224 C 
ENDROOT
BRANCH   9  10
ATOM     10  N   UNK d   1      17.397  32.855  71.705  0.00  0.00    -0.260 N 
ATOM     11  C   UNK d   1      17.155  33.633  72.905  0.00  0.00     0.326 C 
ATOM     12  O   UNK d   1      17.896  33.559  73.925  0.00  0.00    -0.247 OA
ATOM     13  N   UNK d   1      15.998  34.423  72.683  0.00  0.00    -0.324 N 
ATOM     14  C   UNK d   1      15.293  33.846  71.589  0.00  0.00     0.116 C 
ATOM     15  H   UNK d   1      15.771  35.272  73.270  0.00  0.00     0.165 HD
ATOM     16  C   UNK d   1      14.215  32.878  72.013  0.00  0.00     0.041 C 
ATOM     17  C   UNK d   1      14.494  34.869  70.800  0.00  0.00     0.041 C 
ATOM     18  C   UNK d   1      16.344  33.222  70.788  0.00  0.00     0.256 C 
ATOM     19  C   UNK d   1      13.447  32.696  70.718  0.00  0.00     0.003 C 
ATOM     20  C   UNK d   1      13.624  33.980  69.944  0.00  0.00     0.003 C 
ATOM     21  O   UNK d   1      16.367  33.024  69.546  0.00  0.00    -0.270 OA
ENDBRANCH   9  10
BRANCH   1  22
ATOM     22  S   UNK d   1      21.323  36.803  67.729  0.00  0.00     0.243 S 
ATOM     23  O   UNK d   1      21.371  38.041  68.607  0.00  0.00    -0.206 OA
ATOM     24  O   UNK d   1      20.363  37.132  66.613  0.00  0.00    -0.206 OA
BRANCH  22  25
ATOM     25  C   UNK d   1      22.902  36.432  67.080  0.00  0.00     0.074 A 
ATOM     26  C   UNK d   1      24.052  36.547  67.834  0.00  0.00     0.026 A 
ATOM     27  C   UNK d   1      25.305  36.250  67.309  0.00  0.00     0.020 A 
ATOM     28  C   UNK d   1      25.438  35.828  66.011  0.00  0.00     0.011 A 
ATOM     29  C   UNK d   1      24.296  35.708  65.247  0.00  0.00     0.020 A 
ATOM     30 Br   UNK d   1      27.169  35.413  65.276  0.00  0.00    -0.051 Br
ATOM     31  C   UNK d   1      23.050  36.006  65.777  0.00  0.00     0.026 A 
ENDBRANCH  22  25
ENDBRANCH   1  22
TORSDOF 3
ENDMDL
