/Users/jonathanwahrer/Desktop/Msc/3_Semester/Drug_Design_Praktikum/waehrer_HTS_screening/HTS_experiment/out/docking_results/vina_output/4x21/1044_docked.pdbqt
 OpenBabel03212202053D

 30 33  0  0  0  0  0  0  0  0999 V2000
   20.9320   34.0230   70.4040 N   0  0  0  0  0  0  0  0  0  0  0  0
   21.8090   33.0090   70.7940 C   0  0  0  0  0  2  0  0  0  0  0  0
   22.9060   32.6660   69.8490 C   0  0  0  0  0  2  0  0  0  0  0  0
   23.3010   33.7280   68.9800 N   0  0  0  0  0  0  0  0  0  0  0  0
   22.6370   35.0090   69.0890 C   0  0  0  0  0  2  0  0  0  0  0  0
   21.1460   34.6920   69.1860 C   0  0  0  0  0  2  0  0  0  0  0  0
   24.3220   33.5770   68.0110 C   0  0  0  0  0  0  0  0  0  0  0  0
   24.9340   32.4690   67.8790 O   0  0  0  0  0  0  0  0  0  0  0  0
   20.1230   34.8730   71.6200 S   0  0  0  0  0  0  0  0  0  0  0  0
   20.0860   34.1870   72.9300 O   0  0  0  0  0  0  0  0  0  0  0  0
   20.8600   36.1900   71.8300 O   0  0  0  0  0  0  0  0  0  0  0  0
   18.5080   35.3200   71.0810 C   0  0  0  0  0  0  0  0  0  0  0  0
   17.4020   34.5670   71.4170 C   0  0  0  0  0  3  0  0  0  0  0  0
   16.1240   34.8910   71.0110 C   0  0  0  0  0  0  0  0  0  0  0  0
   15.9030   36.0090   70.2320 C   0  0  0  0  0  0  0  0  0  0  0  0
   14.9820   34.1170   71.3540 N   0  0  0  0  0  0  0  0  0  0  0  0
   17.0120   36.7680   69.8920 C   0  0  0  0  0  3  0  0  0  0  0  0
   14.6240   36.3620   69.8050 O   0  0  0  0  0  0  0  0  0  0  0  0
   18.2870   36.4390   70.3030 C   0  0  0  0  0  3  0  0  0  0  0  0
   13.4950   35.5150   69.8970 C   0  0  0  0  0  2  0  0  0  0  0  0
   13.6680   34.4610   70.9280 C   0  0  0  0  0  0  0  0  0  0  0  0
   12.6270   33.9180   71.3770 O   0  0  0  0  0  0  0  0  0  0  0  0
   15.1320   33.2700   71.9410 H   0  0  0  0  0  0  0  0  0  0  0  0
   24.7380   34.6490   67.1160 C   0  0  0  0  0  0  0  0  0  0  0  0
   25.7990   35.4850   67.4070 C   0  0  0  0  0  0  0  0  0  0  0  0
   26.2010   36.5000   66.5700 C   0  0  0  0  0  3  0  0  0  0  0  0
   26.7150   35.1760   69.0550 Br  0  0  0  0  0  0  0  0  0  0  0  0
   25.5030   36.6810   65.3870 C   0  0  0  0  0  3  0  0  0  0  0  0
   24.4390   35.8800   65.0450 C   0  0  0  0  0  3  0  0  0  0  0  0
   24.0760   34.8780   65.9180 C   0  0  0  0  0  3  0  0  0  0  0  0
  1  2  1  0  0  0  0
  1  9  1  0  0  0  0
  3  2  1  0  0  0  0
  4  5  1  0  0  0  0
  4  3  1  0  0  0  0
  5  6  1  0  0  0  0
  6  1  1  0  0  0  0
  7  4  1  0  0  0  0
  8  7  2  0  0  0  0
  9 11  2  0  0  0  0
  9 10  2  0  0  0  0
 12 13  1  0  0  0  0
 12  9  1  0  0  0  0
 14 16  1  0  0  0  0
 14 13  2  0  0  0  0
 15 14  1  0  0  0  0
 16 23  1  0  0  0  0
 17 15  2  0  0  0  0
 17 19  1  0  0  0  0
 18 20  1  0  0  0  0
 18 15  1  0  0  0  0
 19 12  2  0  0  0  0
 20 21  1  0  0  0  0
 21 16  1  0  0  0  0
 21 22  2  0  0  0  0
 24 25  1  0  0  0  0
 24  7  1  0  0  0  0
 25 27  1  0  0  0  0
 26 25  2  0  0  0  0
 28 26  1  0  0  0  0
 29 28  2  0  0  0  0
 29 30  1  0  0  0  0
 30 24  2  0  0  0  0
M  END
>  <Pose>
1

>  <Score>
-9.230

$$$$
