MODEL 1
REMARK VINA RESULT:    -9.230      0.000      0.000
REMARK INTER + INTRA:         -11.314
REMARK INTER:                 -10.848
REMARK INTRA:                  -0.465
REMARK UNBOUND:                -0.465
REMARK  3 active torsions:
REMARK  status: ('A' for Active; 'I' for Inactive)
REMARK    1  A    between atoms: S_1  and  N_4 
REMARK    2  A    between atoms: S_1  and  C_19 
REMARK       I    between atoms: N_7  and  C_10 
REMARK    3  A    between atoms: C_10  and  C_12 
ROOT
ATOM      1  N   UNK d   1      20.932  34.023  70.404  0.00  0.00    -0.304 N 
ATOM      2  C   UNK d   1      21.809  33.009  70.794  0.00  0.00     0.155 C 
ATOM      3  C   UNK d   1      22.906  32.666  69.849  0.00  0.00     0.146 C 
ATOM      4  N   UNK d   1      23.301  33.728  68.980  0.00  0.00    -0.345 N 
ATOM      5  C   UNK d   1      22.637  35.009  69.089  0.00  0.00     0.146 C 
ATOM      6  C   UNK d   1      21.146  34.692  69.186  0.00  0.00     0.155 C 
ATOM      7  C   UNK d   1      24.322  33.577  68.011  0.00  0.00     0.255 C 
ATOM      8  O   UNK d   1      24.934  32.469  67.879  0.00  0.00    -0.267 OA
ENDROOT
BRANCH   1   9
ATOM      9  S   UNK d   1      20.123  34.873  71.620  0.00  0.00     0.261 S 
ATOM     10  O   UNK d   1      20.086  34.187  72.930  0.00  0.00    -0.200 OA
ATOM     11  O   UNK d   1      20.860  36.190  71.830  0.00  0.00    -0.200 OA
BRANCH   9  12
ATOM     12  C   UNK d   1      18.508  35.320  71.081  0.00  0.00     0.082 A 
ATOM     13  C   UNK d   1      17.402  34.567  71.417  0.00  0.00     0.057 A 
ATOM     14  C   UNK d   1      16.124  34.891  71.011  0.00  0.00     0.070 A 
ATOM     15  C   UNK d   1      15.903  36.009  70.232  0.00  0.00     0.096 A 
ATOM     16  N   UNK d   1      14.982  34.117  71.354  0.00  0.00    -0.323 N 
ATOM     17  C   UNK d   1      17.012  36.768  69.892  0.00  0.00     0.040 A 
ATOM     18  O   UNK d   1      14.624  36.362  69.805  0.00  0.00    -0.340 OA
ATOM     19  C   UNK d   1      18.287  36.439  70.303  0.00  0.00     0.028 A 
ATOM     20  C   UNK d   1      13.495  35.515  69.897  0.00  0.00     0.278 C 
ATOM     21  C   UNK d   1      13.668  34.461  70.928  0.00  0.00     0.246 C 
ATOM     22  O   UNK d   1      12.627  33.918  71.377  0.00  0.00    -0.271 OA
ATOM     23  H   UNK d   1      15.132  33.270  71.941  0.00  0.00     0.169 HD
ENDBRANCH   9  12
ENDBRANCH   1   9
BRANCH   7  24
ATOM     24  C   UNK d   1      24.738  34.649  67.116  0.00  0.00     0.049 A 
ATOM     25  C   UNK d   1      25.799  35.485  67.407  0.00  0.00     0.026 A 
ATOM     26  C   UNK d   1      26.201  36.500  66.570  0.00  0.00     0.020 A 
ATOM     27 Br   UNK d   1      26.715  35.176  69.055  0.00  0.00    -0.050 Br
ATOM     28  C   UNK d   1      25.503  36.681  65.387  0.00  0.00     0.001 A 
ATOM     29  C   UNK d   1      24.439  35.880  65.045  0.00  0.00     0.001 A 
ATOM     30  C   UNK d   1      24.076  34.878  65.918  0.00  0.00     0.018 A 
ENDBRANCH   7  24
TORSDOF 3
ENDMDL
