/Users/jonathanwahrer/Desktop/Msc/3_Semester/Drug_Design_Praktikum/waehrer_HTS_screening/HTS_experiment/out/docking_results/vina_output/4x21/1051_docked.pdbqt
 OpenBabel03212202053D

 27 30  0  0  0  0  0  0  0  0999 V2000
   23.3950   35.3040   67.6230 N   0  0  0  0  0  0  0  0  0  0  0  0
   22.1700   34.6000   67.5270 C   0  0  0  0  0  2  0  0  0  0  0  0
   21.0670   35.0510   68.4230 C   0  0  0  0  0  2  0  0  0  0  0  0
   21.5120   35.5280   69.7050 N   0  0  0  0  0  0  0  0  0  0  0  0
   22.9350   35.4820   69.9520 C   0  0  0  0  0  2  0  0  0  0  0  0
   23.5600   36.1580   68.7490 C   0  0  0  0  0  2  0  0  0  0  0  0
   20.6590   36.0240   70.7090 C   0  0  0  0  0  0  0  0  0  0  0  0
   21.1390   36.4170   71.7950 O   0  0  0  0  0  0  0  0  0  0  0  0
   19.2170   36.0830   70.4960 C   0  0  0  0  0  0  0  0  0  0  0  0
   18.3510   35.1090   70.7570 N   0  0  0  0  0  0  0  0  0  0  0  0
   17.1110   35.4930   70.4440 N   0  0  0  0  0  0  0  0  0  0  0  0
   17.1420   36.7560   69.9600 C   0  0  0  0  0  0  0  0  0  0  0  0
   15.9210   34.8640   70.5300 C   0  0  0  0  0  3  0  0  0  0  0  0
   18.4900   37.1310   69.9930 C   0  0  0  0  0  3  0  0  0  0  0  0
   16.0160   37.4000   69.5610 N   0  0  0  0  0  0  0  0  0  0  0  0
   14.8140   36.7600   69.6490 C   0  0  0  0  0  3  0  0  0  0  0  0
   14.7500   35.4740   70.1390 C   0  0  0  0  0  0  0  0  0  0  0  0
   13.0540   34.5750   70.2610 Br  0  0  0  0  0  0  0  0  0  0  0  0
   23.8120   36.1820   66.2030 S   0  0  0  0  0  0  0  0  0  0  0  0
   23.4610   35.3900   64.9850 O   0  0  0  0  0  0  0  0  0  0  0  0
   25.3240   36.3630   66.2360 O   0  0  0  0  0  0  0  0  0  0  0  0
   23.0060   37.7290   66.1290 C   0  0  0  0  0  0  0  0  0  0  0  0
   23.5210   38.9180   65.6670 C   0  0  0  0  0  3  0  0  0  0  0  0
   22.6010   39.8780   65.7720 N   0  0  0  0  0  0  0  0  0  0  0  0
   21.5060   39.3530   66.2850 N   0  0  0  0  0  0  0  0  0  0  0  0
   22.7370   41.2610   65.4000 C   0  0  0  0  0  1  0  0  0  0  0  0
   21.7030   38.0310   66.5240 C   0  0  0  0  0  3  0  0  0  0  0  0
  1  6  1  0  0  0  0
  2  1  1  0  0  0  0
  2  3  1  0  0  0  0
  3  4  1  0  0  0  0
  4  5  1  0  0  0  0
  4  7  1  0  0  0  0
  6  5  1  0  0  0  0
  7  8  2  0  0  0  0
  9  7  1  0  0  0  0
  9 10  2  0  0  0  0
 11 13  1  0  0  0  0
 11 10  1  0  0  0  0
 12 14  2  0  0  0  0
 12 11  1  0  0  0  0
 14  9  1  0  0  0  0
 15 16  2  0  0  0  0
 15 12  1  0  0  0  0
 16 17  1  0  0  0  0
 17 18  1  0  0  0  0
 17 13  2  0  0  0  0
 19 21  2  0  0  0  0
 19  1  1  0  0  0  0
 20 19  2  0  0  0  0
 22 19  1  0  0  0  0
 22 27  1  0  0  0  0
 23 24  1  0  0  0  0
 23 22  2  0  0  0  0
 24 25  1  0  0  0  0
 25 27  2  0  0  0  0
 26 24  1  0  0  0  0
M  END
>  <Pose>
1

>  <Score>
-8.337

$$$$
