/Users/jonathanwahrer/Desktop/Msc/3_Semester/Drug_Design_Praktikum/waehrer_HTS_screening/HTS_experiment/out/docking_results/vina_output/4x21/1100_docked.pdbqt
 OpenBabel03212202073D

 26 29  0  0  1  0  0  0  0  0999 V2000
   19.0250   34.2330   71.5320 N   0  0  0  0  0  0  0  0  0  0  0  0
   18.9300   32.9750   70.8700 C   0  0  0  0  0  2  0  0  0  0  0  0
   18.3880   31.8780   71.7620 C   0  0  0  0  0  2  0  0  0  0  0  0
   17.4210   32.4820   72.6430 N   0  0  2  0  0  0  0  0  0  0  0  0
   17.9440   33.4220   73.6010 C   0  0  0  0  0  2  0  0  0  0  0  0
   19.0270   34.2110   72.9560 C   0  0  0  0  0  2  0  0  0  0  0  0
   16.0380   32.1910   72.5960 C   0  0  1  0  0  3  0  0  0  0  0  0
   15.4700   31.3050   73.4150 C   0  0  0  0  0  3  0  0  0  0  0  0
   14.0560   30.9800   73.3990 C   0  0  0  0  0  0  0  0  0  0  0  0
   13.5460   30.0910   74.2350 C   0  0  0  0  0  1  0  0  0  0  0  0
   13.2220   31.6340   72.4660 N   0  0  0  0  0  0  0  0  0  0  0  0
   13.8670   32.5810   71.6010 C   0  0  0  0  0  0  0  0  0  0  0  0
   12.2090   31.4740   72.3740 H   0  0  0  0  0  0  0  0  0  0  0  0
   15.1810   32.8460   71.6560 N   0  0  0  0  0  0  0  0  0  0  0  0
   13.3750   33.3680   70.6120 N   0  0  0  0  0  0  0  0  0  0  0  0
   15.4800   33.7640   70.7330 N   0  0  0  0  0  0  0  0  0  0  0  0
   14.3600   34.1030   70.0700 C   0  0  0  0  0  3  0  0  0  0  0  0
   20.3040   35.1450   70.8860 S   0  0  0  0  0  0  0  0  0  0  0  0
   21.4760   34.2960   70.4690 O   0  0  0  0  0  0  0  0  0  0  0  0
   20.8200   36.0640   71.9840 O   0  0  0  0  0  0  0  0  0  0  0  0
   19.7870   36.1970   69.5690 C   0  0  0  0  0  0  0  0  0  0  0  0
   18.3200   37.0450   69.4640 S   0  0  0  0  0  0  0  0  0  0  0  0
   18.5460   37.8090   67.9610 C   0  0  0  0  0  0  0  0  0  0  0  0
   19.7850   37.3750   67.5710 C   0  0  0  0  0  3  0  0  0  0  0  0
   17.3710   39.0030   67.0010 Br  0  0  0  0  0  0  0  0  0  0  0  0
   20.4310   36.5340   68.4130 C   0  0  0  0  0  3  0  0  0  0  0  0
  1  6  1  0  0  0  0
  2  1  1  0  0  0  0
  2  3  1  0  0  0  0
  4  3  1  1  0  0  0
  4  5  1  0  0  0  0
  6  5  1  0  0  0  0
  7  4  1  0  0  0  0
  7  8  1  1  0  0  0
  9  8  2  0  0  0  0
  9 10  1  0  0  0  0
 11  9  1  0  0  0  0
 12 14  1  0  0  0  0
 12 11  1  0  0  0  0
 13 11  1  0  0  0  0
 14  7  1  0  0  0  0
 15 12  2  0  0  0  0
 16 14  1  0  0  0  0
 17 15  1  0  0  0  0
 17 16  2  0  0  0  0
 18  1  1  0  0  0  0
 18 20  2  0  0  0  0
 19 18  2  0  0  0  0
 21 18  1  0  0  0  0
 22 21  1  0  0  0  0
 23 22  1  0  0  0  0
 24 23  2  0  0  0  0
 24 26  1  0  0  0  0
 25 23  1  0  0  0  0
 26 21  2  0  0  0  0
M  END
>  <Pose>
1

>  <Score>
-8.261

$$$$
