MODEL 1
REMARK VINA RESULT:    -8.697      0.000      0.000
REMARK INTER + INTRA:         -10.837
REMARK INTER:                 -10.222
REMARK INTRA:                  -0.616
REMARK UNBOUND:                -0.616
REMARK  3 active torsions:
REMARK  status: ('A' for Active; 'I' for Inactive)
REMARK    1  A    between atoms: S_1  and  N_4 
REMARK    2  A    between atoms: S_1  and  C_20 
REMARK    3  A    between atoms: N_7  and  C_10 
ROOT
ATOM      1  N   UNK d   1      16.947  31.693  73.060  0.00  0.00    -0.203 NA
ATOM      2  C   UNK d   1      18.006  30.931  72.516  0.00  0.00     0.127 C 
ATOM      3  C   UNK d   1      18.824  31.598  71.467  0.00  0.00     0.138 C 
ATOM      4  N   UNK d   1      19.103  33.001  71.812  0.00  0.00    -0.377 N 
ATOM      5  C   UNK d   1      18.728  33.375  73.159  0.00  0.00     0.138 C 
ATOM      6  C   UNK d   1      17.246  33.080  73.291  0.00  0.00     0.127 C 
ENDROOT
BRANCH   1   7
ATOM      7  S   UNK d   1      15.418  31.441  72.357  0.00  0.00     0.243 S 
ATOM      8  O   UNK d   1      14.442  31.143  73.489  0.00  0.00    -0.206 OA
ATOM      9  O   UNK d   1      15.427  30.220  71.486  0.00  0.00    -0.206 OA
BRANCH   7  10
ATOM     10  C   UNK d   1      14.798  32.841  71.526  0.00  0.00     0.074 A 
ATOM     11  C   UNK d   1      15.604  33.625  70.712  0.00  0.00     0.026 A 
ATOM     12  C   UNK d   1      15.112  34.731  70.056  0.00  0.00     0.020 A 
ATOM     13  C   UNK d   1      13.777  35.064  70.220  0.00  0.00     0.011 A 
ATOM     14  C   UNK d   1      12.934  34.315  71.019  0.00  0.00     0.020 A 
ATOM     15 Br   UNK d   1      13.110  36.606  69.300  0.00  0.00    -0.051 Br
ATOM     16  C   UNK d   1      13.466  33.218  71.656  0.00  0.00     0.026 A 
ENDBRANCH   7  10
ENDBRANCH   1   7
BRANCH   4  17
ATOM     17  C   UNK d   1      19.691  33.877  70.871  0.00  0.00     0.053 A 
ATOM     18  C   UNK d   1      19.154  35.149  70.716  0.00  0.00     0.085 A 
ATOM     19  C   UNK d   1      19.742  36.003  69.786  0.00  0.00     0.176 A 
ATOM     20  N   UNK d   1      20.788  35.629  69.061  0.00  0.00    -0.198 N 
ATOM     21  N   UNK d   1      19.409  37.264  69.458  0.00  0.00    -0.128 NA
ATOM     22  C   UNK d   1      21.120  36.660  68.267  0.00  0.00     0.148 A 
ATOM     23  N   UNK d   1      21.302  34.439  69.196  0.00  0.00    -0.174 NA
ATOM     24  N   UNK d   1      20.258  37.662  68.526  0.00  0.00    -0.133 NA
ATOM     25  C   UNK d   1      22.242  36.698  67.274  0.00  0.00     0.095 C 
ATOM     26  C   UNK d   1      20.767  33.566  70.089  0.00  0.00     0.168 A 
ENDBRANCH   4  17
TORSDOF 3
ENDMDL
