/Users/jonathanwahrer/Desktop/Msc/3_Semester/Drug_Design_Praktikum/waehrer_HTS_screening/HTS_experiment/out/docking_results/vina_output/4x21/1101_docked.pdbqt
 OpenBabel03212202073D

 26 29  0  0  0  0  0  0  0  0999 V2000
   16.9470   31.6930   73.0600 N   0  0  0  0  0  0  0  0  0  0  0  0
   18.0060   30.9310   72.5160 C   0  0  0  0  0  2  0  0  0  0  0  0
   18.8240   31.5980   71.4670 C   0  0  0  0  0  2  0  0  0  0  0  0
   19.1030   33.0010   71.8120 N   0  0  0  0  0  0  0  0  0  0  0  0
   18.7280   33.3750   73.1590 C   0  0  0  0  0  2  0  0  0  0  0  0
   17.2460   33.0800   73.2910 C   0  0  0  0  0  2  0  0  0  0  0  0
   15.4180   31.4410   72.3570 S   0  0  0  0  0  0  0  0  0  0  0  0
   14.4420   31.1430   73.4890 O   0  0  0  0  0  0  0  0  0  0  0  0
   15.4270   30.2200   71.4860 O   0  0  0  0  0  0  0  0  0  0  0  0
   14.7980   32.8410   71.5260 C   0  0  0  0  0  0  0  0  0  0  0  0
   15.6040   33.6250   70.7120 C   0  0  0  0  0  3  0  0  0  0  0  0
   15.1120   34.7310   70.0560 C   0  0  0  0  0  3  0  0  0  0  0  0
   13.7770   35.0640   70.2200 C   0  0  0  0  0  0  0  0  0  0  0  0
   12.9340   34.3150   71.0190 C   0  0  0  0  0  3  0  0  0  0  0  0
   13.1100   36.6060   69.3000 Br  0  0  0  0  0  0  0  0  0  0  0  0
   13.4660   33.2180   71.6560 C   0  0  0  0  0  3  0  0  0  0  0  0
   19.6910   33.8770   70.8710 C   0  0  0  0  0  0  0  0  0  0  0  0
   19.1540   35.1490   70.7160 C   0  0  0  0  0  3  0  0  0  0  0  0
   19.7420   36.0030   69.7860 C   0  0  0  0  0  0  0  0  0  0  0  0
   20.7880   35.6290   69.0610 N   0  0  0  0  0  0  0  0  0  0  0  0
   19.4090   37.2640   69.4580 N   0  0  0  0  0  0  0  0  0  0  0  0
   21.1200   36.6600   68.2670 C   0  0  0  0  0  0  0  0  0  0  0  0
   21.3020   34.4390   69.1960 N   0  0  0  0  0  0  0  0  0  0  0  0
   20.2580   37.6620   68.5260 N   0  0  0  0  0  0  0  0  0  0  0  0
   22.2420   36.6980   67.2740 C   0  0  0  0  0  1  0  0  0  0  0  0
   20.7670   33.5660   70.0890 C   0  0  0  0  0  3  0  0  0  0  0  0
  1  6  1  0  0  0  0
  2  1  1  0  0  0  0
  3  4  1  0  0  0  0
  3  2  1  0  0  0  0
  4  5  1  0  0  0  0
  5  6  1  0  0  0  0
  7  1  1  0  0  0  0
  7  8  2  0  0  0  0
  9  7  2  0  0  0  0
 10 16  1  0  0  0  0
 10  7  1  0  0  0  0
 11 10  2  0  0  0  0
 12 13  2  0  0  0  0
 12 11  1  0  0  0  0
 13 14  1  0  0  0  0
 14 16  2  0  0  0  0
 15 13  1  0  0  0  0
 17  4  1  0  0  0  0
 18 17  2  0  0  0  0
 19 18  1  0  0  0  0
 20 23  1  0  0  0  0
 20 19  1  0  0  0  0
 21 19  2  0  0  0  0
 22 24  2  0  0  0  0
 22 20  1  0  0  0  0
 23 26  2  0  0  0  0
 24 21  1  0  0  0  0
 25 22  1  0  0  0  0
 26 17  1  0  0  0  0
M  END
>  <Pose>
1

>  <Score>
-8.697

$$$$
