MODEL 1
REMARK VINA RESULT:    -8.887      0.000      0.000
REMARK INTER + INTRA:         -11.993
REMARK INTER:                 -11.485
REMARK INTRA:                  -0.508
REMARK UNBOUND:                -0.508
REMARK  5 active torsions:
REMARK  status: ('A' for Active; 'I' for Inactive)
REMARK    1  A    between atoms: S_1  and  N_4 
REMARK    2  A    between atoms: S_1  and  C_26 
REMARK    3  A    between atoms: C_10  and  C_11 
REMARK    4  A    between atoms: C_11  and  C_12 
REMARK       I    between atoms: C_12  and  N_14 
REMARK    5  A    between atoms: N_17  and  C_20 
ROOT
ATOM      1  N   UNK d   1      23.293  34.194  68.061  0.00  0.00    -0.191 NA
ATOM      2  C   UNK d   1      23.804  34.004  66.745  0.00  0.00     0.128 C 
ATOM      3  C   UNK d   1      24.177  35.278  66.021  0.00  0.00     0.138 C 
ATOM      4  N   UNK d   1      24.939  36.170  66.899  0.00  0.00    -0.358 N 
ATOM      5  C   UNK d   1      24.344  36.318  68.209  0.00  0.00     0.237 C 
ATOM      6  O   UNK d   1      24.863  36.994  69.100  0.00  0.00    -0.272 OA
ATOM      7  C   UNK d   1      23.053  35.563  68.337  0.00  0.00     0.175 C 
ATOM      8  H   UNK d   1      25.801  36.653  66.648  0.00  0.00     0.162 HD
ENDROOT
BRANCH   7   9
ATOM      9  C   UNK d   1      22.311  35.898  69.569  0.00  0.00     0.133 C 
BRANCH   9  10
ATOM     10  C   UNK d   1      21.171  36.786  69.236  0.00  0.00     0.221 C 
ATOM     11  O   UNK d   1      21.457  37.903  68.728  0.00  0.00    -0.273 OA
ATOM     12  N   UNK d   1      19.817  36.401  69.478  0.00  0.00    -0.349 N 
ATOM     13  C   UNK d   1      19.504  35.124  70.059  0.00  0.00     0.145 C 
ATOM     14  C   UNK d   1      18.761  37.315  69.129  0.00  0.00     0.145 C 
ATOM     15  C   UNK d   1      18.248  35.112  70.873  0.00  0.00     0.143 C 
ATOM     16  N   UNK d   1      17.234  36.041  70.406  0.00  0.00    -0.378 N 
ATOM     17  C   UNK d   1      17.708  37.403  70.214  0.00  0.00     0.143 C 
BRANCH  16  18
ATOM     18  C   UNK d   1      15.891  35.723  70.159  0.00  0.00     0.030 A 
ATOM     19  C   UNK d   1      15.500  34.403  70.148  0.00  0.00     0.029 A 
ATOM     20  C   UNK d   1      14.174  34.091  69.889  0.00  0.00     0.002 A 
ATOM     21  C   UNK d   1      13.221  35.047  69.639  0.00  0.00     0.000 A 
ATOM     22  C   UNK d   1      13.617  36.364  69.650  0.00  0.00     0.002 A 
ATOM     23  C   UNK d   1      14.942  36.684  69.909  0.00  0.00     0.029 A 
ENDBRANCH  16  18
ENDBRANCH   9  10
ENDBRANCH   7   9
BRANCH   1  24
ATOM     24  S   UNK d   1      24.258  33.363  69.186  0.00  0.00     0.244 S 
ATOM     25  O   UNK d   1      25.186  34.240  69.965  0.00  0.00    -0.206 OA
ATOM     26  O   UNK d   1      25.138  32.335  68.485  0.00  0.00    -0.206 OA
BRANCH  24  27
ATOM     27  C   UNK d   1      23.285  32.450  70.326  0.00  0.00     0.074 A 
ATOM     28  C   UNK d   1      21.896  32.503  70.331  0.00  0.00     0.026 A 
ATOM     29  C   UNK d   1      21.119  31.804  71.210  0.00  0.00     0.020 A 
ATOM     30  C   UNK d   1      21.701  30.996  72.151  0.00  0.00     0.011 A 
ATOM     31  C   UNK d   1      23.099  30.916  72.176  0.00  0.00     0.020 A 
ATOM     32 Br   UNK d   1      20.672  29.997  73.402  0.00  0.00    -0.051 Br
ATOM     33  C   UNK d   1      23.850  31.634  71.277  0.00  0.00     0.026 A 
ENDBRANCH  24  27
ENDBRANCH   1  24
TORSDOF 5
ENDMDL
