MODEL 1
REMARK VINA RESULT:    -9.117      0.000      0.000
REMARK INTER + INTRA:         -13.765
REMARK INTER:                 -12.848
REMARK INTRA:                  -0.917
REMARK UNBOUND:                -0.917
REMARK  7 active torsions:
REMARK  status: ('A' for Active; 'I' for Inactive)
REMARK    1  A    between atoms: S_1  and  N_4 
REMARK    2  A    between atoms: S_1  and  C_10 
REMARK    3  A    between atoms: C_13  and  C_16 
REMARK    4  A    between atoms: C_16  and  O_17 
REMARK    5  A    between atoms: O_17  and  C_18 
REMARK    6  A    between atoms: C_18  and  C_20 
REMARK    7  A    between atoms: C_20  and  N_21 
ROOT
ATOM      1  C   UNK d   1      19.382  37.621  67.273  0.00  0.00     0.217 C 
ENDROOT
BRANCH   1   2
ATOM      2  C   UNK d   1      20.542  36.697  67.270  0.00  0.00    -0.034 A 
ATOM      3  C   UNK d   1      21.435  36.574  66.248  0.00  0.00     0.011 A 
ATOM      4  C   UNK d   1      22.498  35.679  66.320  0.00  0.00     0.025 A 
ATOM      5  C   UNK d   1      22.692  34.887  67.414  0.00  0.00     0.074 A 
ATOM      6  C   UNK d   1      21.789  35.010  68.454  0.00  0.00     0.025 A 
ATOM      7  C   UNK d   1      20.732  35.898  68.384  0.00  0.00     0.011 A 
BRANCH   5   8
ATOM      8  S   UNK d   1      24.023  33.746  67.539  0.00  0.00     0.243 S 
ATOM      9  O   UNK d   1      23.755  32.704  68.569  0.00  0.00    -0.206 OA
ATOM     10  O   UNK d   1      24.105  33.042  66.200  0.00  0.00    -0.206 OA
BRANCH   8  11
ATOM     11  N   UNK d   1      25.522  34.523  67.801  0.00  0.00    -0.202 NA
ATOM     12  C   UNK d   1      25.387  35.863  68.307  0.00  0.00     0.134 C 
ATOM     13  C   UNK d   1      26.718  36.569  68.032  0.00  0.00     0.183 C 
ATOM     14  O   UNK d   1      26.835  36.874  66.693  0.00  0.00    -0.389 OA
ATOM     15  C   UNK d   1      26.044  35.980  65.950  0.00  0.00     0.183 C 
ATOM     16  C   UNK d   1      26.261  34.600  66.555  0.00  0.00     0.134 C 
ENDBRANCH   8  11
ENDBRANCH   5   8
ENDBRANCH   1   2
BRANCH   1  17
ATOM     17  O   UNK d   1      18.698  37.615  68.506  0.00  0.00    -0.316 OA
BRANCH  17  18
ATOM     18  C   UNK d   1      17.387  37.984  68.683  0.00  0.00     0.277 C 
ATOM     19  O   UNK d   1      16.725  38.372  67.700  0.00  0.00    -0.263 OA
BRANCH  18  20
ATOM     20  C   UNK d   1      16.761  37.927  70.002  0.00  0.00     0.246 C 
BRANCH  20  21
ATOM     21  N   UNK d   1      16.015  36.726  70.235  0.00  0.00    -0.271 N 
ATOM     22  C   UNK d   1      16.617  35.506  70.686  0.00  0.00     0.262 A 
ATOM     23  O   UNK d   1      17.846  35.334  70.930  0.00  0.00    -0.267 OA
ATOM     24  C   UNK d   1      15.584  34.486  70.822  0.00  0.00     0.049 A 
ATOM     25  C   UNK d   1      14.378  35.034  70.471  0.00  0.00     0.048 A 
ATOM     26  C   UNK d   1      15.602  33.166  71.209  0.00  0.00     0.037 A 
ATOM     27  C   UNK d   1      13.224  34.275  70.511  0.00  0.00     0.019 A 
ATOM     28  C   UNK d   1      14.633  36.437  70.102  0.00  0.00     0.262 A 
ATOM     29  C   UNK d   1      13.258  32.951  70.903  0.00  0.00     0.020 A 
ATOM     30  C   UNK d   1      14.465  32.386  71.259  0.00  0.00     0.011 A 
ATOM     31 Br   UNK d   1      14.562  30.562  71.806  0.00  0.00    -0.051 Br
ATOM     32  O   UNK d   1      13.782  37.273  69.724  0.00  0.00    -0.267 OA
ENDBRANCH  20  21
ENDBRANCH  18  20
ENDBRANCH  17  18
ENDBRANCH   1  17
TORSDOF 7
ENDMDL
