/Users/jonathanwahrer/Desktop/Msc/3_Semester/Drug_Design_Praktikum/waehrer_HTS_screening/HTS_experiment/out/docking_results/vina_output/4x21/1112_docked.pdbqt
 OpenBabel03212202083D

 32 35  0  0  0  0  0  0  0  0999 V2000
   19.3820   37.6210   67.2730 C   0  0  0  0  0  2  0  0  0  0  0  0
   20.5420   36.6970   67.2700 C   0  0  0  0  0  0  0  0  0  0  0  0
   21.4350   36.5740   66.2480 C   0  0  0  0  0  3  0  0  0  0  0  0
   22.4980   35.6790   66.3200 C   0  0  0  0  0  3  0  0  0  0  0  0
   22.6920   34.8870   67.4140 C   0  0  0  0  0  0  0  0  0  0  0  0
   21.7890   35.0100   68.4540 C   0  0  0  0  0  3  0  0  0  0  0  0
   20.7320   35.8980   68.3840 C   0  0  0  0  0  3  0  0  0  0  0  0
   24.0230   33.7460   67.5390 S   0  0  0  0  0  0  0  0  0  0  0  0
   23.7550   32.7040   68.5690 O   0  0  0  0  0  0  0  0  0  0  0  0
   24.1050   33.0420   66.2000 O   0  0  0  0  0  0  0  0  0  0  0  0
   25.5220   34.5230   67.8010 N   0  0  0  0  0  0  0  0  0  0  0  0
   25.3870   35.8630   68.3070 C   0  0  0  0  0  2  0  0  0  0  0  0
   26.7180   36.5690   68.0320 C   0  0  0  0  0  2  0  0  0  0  0  0
   26.8350   36.8740   66.6930 O   0  0  0  0  0  0  0  0  0  0  0  0
   26.0440   35.9800   65.9500 C   0  0  0  0  0  2  0  0  0  0  0  0
   26.2610   34.6000   66.5550 C   0  0  0  0  0  2  0  0  0  0  0  0
   18.6980   37.6150   68.5060 O   0  0  0  0  0  0  0  0  0  0  0  0
   17.3870   37.9840   68.6830 C   0  0  0  0  0  0  0  0  0  0  0  0
   16.7250   38.3720   67.7000 O   0  0  0  0  0  0  0  0  0  0  0  0
   16.7610   37.9270   70.0020 C   0  0  0  0  0  2  0  0  0  0  0  0
   16.0150   36.7260   70.2350 N   0  0  0  0  0  0  0  0  0  0  0  0
   16.6170   35.5060   70.6860 C   0  0  0  0  0  0  0  0  0  0  0  0
   17.8460   35.3340   70.9300 O   0  0  0  0  0  0  0  0  0  0  0  0
   15.5840   34.4860   70.8220 C   0  0  0  0  0  0  0  0  0  0  0  0
   14.3780   35.0340   70.4710 C   0  0  0  0  0  0  0  0  0  0  0  0
   15.6020   33.1660   71.2090 C   0  0  0  0  0  3  0  0  0  0  0  0
   13.2240   34.2750   70.5110 C   0  0  0  0  0  3  0  0  0  0  0  0
   14.6330   36.4370   70.1020 C   0  0  0  0  0  0  0  0  0  0  0  0
   13.2580   32.9510   70.9030 C   0  0  0  0  0  3  0  0  0  0  0  0
   14.4650   32.3860   71.2590 C   0  0  0  0  0  0  0  0  0  0  0  0
   14.5620   30.5620   71.8060 Br  0  0  0  0  0  0  0  0  0  0  0  0
   13.7820   37.2730   69.7240 O   0  0  0  0  0  0  0  0  0  0  0  0
  1 17  1  0  0  0  0
  2  1  1  0  0  0  0
  2  7  1  0  0  0  0
  3  4  1  0  0  0  0
  3  2  2  0  0  0  0
  4  5  2  0  0  0  0
  5  8  1  0  0  0  0
  5  6  1  0  0  0  0
  7  6  2  0  0  0  0
  8 11  1  0  0  0  0
  8  9  2  0  0  0  0
 10  8  2  0  0  0  0
 11 12  1  0  0  0  0
 13 12  1  0  0  0  0
 14 13  1  0  0  0  0
 15 16  1  0  0  0  0
 15 14  1  0  0  0  0
 16 11  1  0  0  0  0
 17 18  1  0  0  0  0
 18 20  1  0  0  0  0
 19 18  2  0  0  0  0
 20 21  1  0  0  0  0
 21 22  1  0  0  0  0
 22 24  1  0  0  0  0
 22 23  2  0  0  0  0
 24 26  1  0  0  0  0
 25 27  1  0  0  0  0
 25 24  2  0  0  0  0
 26 30  2  0  0  0  0
 27 29  2  0  0  0  0
 28 21  1  0  0  0  0
 28 25  1  0  0  0  0
 29 30  1  0  0  0  0
 30 31  1  0  0  0  0
 32 28  2  0  0  0  0
M  END
>  <Pose>
1

>  <Score>
-9.117

$$$$
