/Users/jonathanwahrer/Desktop/Msc/3_Semester/Drug_Design_Praktikum/waehrer_HTS_screening/HTS_experiment/out/docking_results/vina_output/4x21/1113_docked.pdbqt
 OpenBabel03212202083D

 28 31  0  0  0  0  0  0  0  0999 V2000
   21.5230   35.0280   70.4680 C   0  0  0  0  0  0  0  0  0  0  0  0
   22.5450   34.1950   70.2090 N   0  0  0  0  0  0  0  0  0  0  0  0
   22.3460   33.0330   70.8830 C   0  0  0  0  0  3  0  0  0  0  0  0
   21.1980   33.1150   71.5770 N   0  0  0  0  0  0  0  0  0  0  0  0
   20.6890   34.3150   71.3360 C   0  0  0  0  0  3  0  0  0  0  0  0
   20.6600   32.0620   72.4140 C   0  0  0  0  0  2  0  0  0  0  0  0
   19.2350   31.7940   72.1070 C   0  0  0  0  0  0  0  0  0  0  0  0
   18.7810   31.1680   70.9900 N   0  0  0  0  0  0  0  0  0  0  0  0
   17.4860   31.1080   71.0600 O   0  0  0  0  0  0  0  0  0  0  0  0
   17.0410   31.6580   72.1620 C   0  0  0  0  0  0  0  0  0  0  0  0
   18.1470   32.0900   72.8200 N   0  0  0  0  0  0  0  0  0  0  0  0
   15.6270   31.7970   72.6240 C   0  0  0  0  0  2  0  0  0  0  0  0
   15.0270   32.9140   71.8430 C   0  0  0  0  0  0  0  0  0  0  0  0
   15.7050   34.1220   71.7940 C   0  0  0  0  0  3  0  0  0  0  0  0
   15.2280   35.2030   71.1010 C   0  0  0  0  0  3  0  0  0  0  0  0
   14.0400   35.0730   70.4360 C   0  0  0  0  0  0  0  0  0  0  0  0
   13.3360   33.9090   70.4530 C   0  0  0  0  0  3  0  0  0  0  0  0
   13.3440   36.5570   69.4600 Br  0  0  0  0  0  0  0  0  0  0  0  0
   13.8440   32.8260   71.1660 C   0  0  0  0  0  3  0  0  0  0  0  0
   21.2760   36.6490   69.8620 S   0  0  0  0  0  0  0  0  0  0  0  0
   21.1340   37.5760   71.0620 O   0  0  0  0  0  0  0  0  0  0  0  0
   22.5310   37.1170   69.1510 O   0  0  0  0  0  0  0  0  0  0  0  0
   19.9220   36.8300   68.8920 N   0  0  0  0  0  0  0  0  0  0  0  0
   18.6590   36.8530   69.5020 C   0  0  0  0  0  2  0  0  0  0  0  0
   17.8080   37.9540   68.9420 C   0  0  0  0  0  2  0  0  0  0  0  0
   17.7220   37.7630   67.5740 O   0  0  0  0  0  0  0  0  0  0  0  0
   18.9390   37.9510   66.9310 C   0  0  0  0  0  2  0  0  0  0  0  0
   20.0810   37.2610   67.5710 C   0  0  0  0  0  2  0  0  0  0  0  0
  1  5  2  0  0  0  0
  2  1  1  0  0  0  0
  2  3  2  0  0  0  0
  3  4  1  0  0  0  0
  4  6  1  0  0  0  0
  5  4  1  0  0  0  0
  7  6  1  0  0  0  0
  7 11  1  0  0  0  0
  8  9  1  0  0  0  0
  8  7  2  0  0  0  0
  9 10  1  0  0  0  0
 10 12  1  0  0  0  0
 10 11  2  0  0  0  0
 13 12  1  0  0  0  0
 14 13  1  0  0  0  0
 15 14  2  0  0  0  0
 16 17  2  0  0  0  0
 16 15  1  0  0  0  0
 17 19  1  0  0  0  0
 18 16  1  0  0  0  0
 19 13  2  0  0  0  0
 20  1  1  0  0  0  0
 20 21  2  0  0  0  0
 22 20  2  0  0  0  0
 23 24  1  0  0  0  0
 23 20  1  0  0  0  0
 25 24  1  0  0  0  0
 26 25  1  0  0  0  0
 27 28  1  0  0  0  0
 27 26  1  0  0  0  0
 28 23  1  0  0  0  0
M  END
>  <Pose>
1

>  <Score>
-8.332

$$$$
