MODEL 1
REMARK VINA RESULT:    -8.411      0.000      0.000
REMARK INTER + INTRA:         -11.537
REMARK INTER:                 -10.870
REMARK INTRA:                  -0.667
REMARK UNBOUND:                -0.667
REMARK  5 active torsions:
REMARK  status: ('A' for Active; 'I' for Inactive)
REMARK    1  A    between atoms: S_1  and  N_4 
REMARK    2  A    between atoms: S_1  and  C_10 
REMARK    3  A    between atoms: N_13  and  C_15 
REMARK    4  A    between atoms: C_15  and  C_16 
REMARK    5  A    between atoms: C_19  and  C_21 
ROOT
ATOM      1  C   UNK d   1      21.411  35.832  68.829  0.00  0.00     0.188 A 
ATOM      2  N   UNK d   1      21.450  36.254  70.105  0.00  0.00    -0.229 NA
ATOM      3  C   UNK d   1      21.165  35.213  70.909  0.00  0.00     0.211 A 
ATOM      4  N   UNK d   1      20.938  34.110  70.182  0.00  0.00    -0.341 N 
ATOM      5  C   UNK d   1      21.089  34.487  68.903  0.00  0.00     0.138 A 
ENDROOT
BRANCH   4   6
ATOM      6  C   UNK d   1      20.603  32.793  70.684  0.00  0.00     0.212 C 
BRANCH   6   7
ATOM      7  C   UNK d   1      19.146  32.529  70.670  0.00  0.00     0.174 A 
ATOM      8  N   UNK d   1      18.589  31.308  70.561  0.00  0.00    -0.109 NA
ATOM      9  O   UNK d   1      17.297  31.439  70.580  0.00  0.00    -0.191 OA
ATOM     10  C   UNK d   1      16.957  32.694  70.697  0.00  0.00     0.206 A 
ATOM     11  N   UNK d   1      18.111  33.378  70.753  0.00  0.00    -0.203 NA
BRANCH  10  12
ATOM     12  C   UNK d   1      15.584  33.199  70.752  0.00  0.00     0.021 A 
ATOM     13  C   UNK d   1      15.226  34.405  70.189  0.00  0.00     0.035 A 
ATOM     14  C   UNK d   1      13.915  34.873  70.249  0.00  0.00     0.011 A 
ATOM     15  C   UNK d   1      12.930  34.142  70.875  0.00  0.00     0.019 A 
ATOM     16 Br   UNK d   1      13.440  36.549  69.461  0.00  0.00    -0.051 Br
ATOM     17  C   UNK d   1      13.284  32.936  71.439  0.00  0.00     0.002 A 
ATOM     18  C   UNK d   1      14.600  32.470  71.377  0.00  0.00     0.016 A 
ENDBRANCH  10  12
ENDBRANCH   6   7
ENDBRANCH   4   6
BRANCH   1  19
ATOM     19  S   UNK d   1      21.709  36.789  67.373  0.00  0.00     0.280 S 
ATOM     20  O   UNK d   1      20.810  36.248  66.294  0.00  0.00    -0.199 OA
ATOM     21  O   UNK d   1      21.337  38.221  67.591  0.00  0.00    -0.199 OA
BRANCH  19  22
ATOM     22  N   UNK d   1      23.332  36.635  66.856  0.00  0.00    -0.301 N 
ATOM     23  C   UNK d   1      23.898  37.823  66.333  0.00  0.00     0.161 C 
ATOM     24  C   UNK d   1      24.850  37.667  65.193  0.00  0.00     0.188 C 
ATOM     25  O   UNK d   1      25.565  36.466  65.409  0.00  0.00    -0.388 OA
ATOM     26  C   UNK d   1      24.642  35.457  65.116  0.00  0.00     0.188 C 
ATOM     27  C   UNK d   1      23.619  35.415  66.195  0.00  0.00     0.161 C 
ENDBRANCH  19  22
ENDBRANCH   1  19
TORSDOF 5
ENDMDL
