/Users/jonathanwahrer/Desktop/Msc/3_Semester/Drug_Design_Praktikum/waehrer_HTS_screening/HTS_experiment/out/docking_results/vina_output/4x21/1114_docked.pdbqt
 OpenBabel03212202083D

 27 30  0  0  0  0  0  0  0  0999 V2000
   21.4110   35.8320   68.8290 C   0  0  0  0  0  0  0  0  0  0  0  0
   21.4500   36.2540   70.1050 N   0  0  0  0  0  0  0  0  0  0  0  0
   21.1650   35.2130   70.9090 C   0  0  0  0  0  3  0  0  0  0  0  0
   20.9380   34.1100   70.1820 N   0  0  0  0  0  0  0  0  0  0  0  0
   21.0890   34.4870   68.9030 C   0  0  0  0  0  3  0  0  0  0  0  0
   20.6030   32.7930   70.6840 C   0  0  0  0  0  2  0  0  0  0  0  0
   19.1460   32.5290   70.6700 C   0  0  0  0  0  0  0  0  0  0  0  0
   18.5890   31.3080   70.5610 N   0  0  0  0  0  0  0  0  0  0  0  0
   17.2970   31.4390   70.5800 O   0  0  0  0  0  0  0  0  0  0  0  0
   16.9570   32.6940   70.6970 C   0  0  0  0  0  0  0  0  0  0  0  0
   18.1110   33.3780   70.7530 N   0  0  0  0  0  0  0  0  0  0  0  0
   15.5840   33.1990   70.7520 C   0  0  0  0  0  0  0  0  0  0  0  0
   15.2260   34.4050   70.1890 C   0  0  0  0  0  3  0  0  0  0  0  0
   13.9150   34.8730   70.2490 C   0  0  0  0  0  0  0  0  0  0  0  0
   12.9300   34.1420   70.8750 C   0  0  0  0  0  3  0  0  0  0  0  0
   13.4400   36.5490   69.4610 Br  0  0  0  0  0  0  0  0  0  0  0  0
   13.2840   32.9360   71.4390 C   0  0  0  0  0  3  0  0  0  0  0  0
   14.6000   32.4700   71.3770 C   0  0  0  0  0  3  0  0  0  0  0  0
   21.7090   36.7890   67.3730 S   0  0  0  0  0  0  0  0  0  0  0  0
   20.8100   36.2480   66.2940 O   0  0  0  0  0  0  0  0  0  0  0  0
   21.3370   38.2210   67.5910 O   0  0  0  0  0  0  0  0  0  0  0  0
   23.3320   36.6350   66.8560 N   0  0  0  0  0  0  0  0  0  0  0  0
   23.8980   37.8230   66.3330 C   0  0  0  0  0  2  0  0  0  0  0  0
   24.8500   37.6670   65.1930 C   0  0  0  0  0  2  0  0  0  0  0  0
   25.5650   36.4660   65.4090 O   0  0  0  0  0  0  0  0  0  0  0  0
   24.6420   35.4570   65.1160 C   0  0  0  0  0  2  0  0  0  0  0  0
   23.6190   35.4150   66.1950 C   0  0  0  0  0  2  0  0  0  0  0  0
  1  5  2  0  0  0  0
  1  2  1  0  0  0  0
  2  3  2  0  0  0  0
  4  6  1  0  0  0  0
  4  3  1  0  0  0  0
  5  4  1  0  0  0  0
  7  6  1  0  0  0  0
  7 11  1  0  0  0  0
  8  9  1  0  0  0  0
  8  7  2  0  0  0  0
  9 10  1  0  0  0  0
 10 12  1  0  0  0  0
 10 11  2  0  0  0  0
 12 18  1  0  0  0  0
 13 14  1  0  0  0  0
 13 12  2  0  0  0  0
 14 15  2  0  0  0  0
 15 17  1  0  0  0  0
 16 14  1  0  0  0  0
 18 17  2  0  0  0  0
 19 21  2  0  0  0  0
 19  1  1  0  0  0  0
 20 19  2  0  0  0  0
 22 19  1  0  0  0  0
 23 22  1  0  0  0  0
 24 25  1  0  0  0  0
 24 23  1  0  0  0  0
 26 25  1  0  0  0  0
 26 27  1  0  0  0  0
 27 22  1  0  0  0  0
M  END
>  <Pose>
1

>  <Score>
-8.411

$$$$
