MODEL 1
REMARK VINA RESULT:    -8.451      0.000      0.000
REMARK INTER + INTRA:         -11.121
REMARK INTER:                 -10.674
REMARK INTRA:                  -0.447
REMARK UNBOUND:                -0.447
REMARK  5 active torsions:
REMARK  status: ('A' for Active; 'I' for Inactive)
REMARK    1  A    between atoms: S_1  and  C_2 
REMARK    2  A    between atoms: S_1  and  C_12 
REMARK    3  A    between atoms: C_2  and  C_3 
REMARK       I    between atoms: C_3  and  N_5 
REMARK    4  A    between atoms: N_5  and  C_6 
REMARK    5  A    between atoms: C_10  and  N_11 
ROOT
ATOM      1  C   UNK d   1      18.994  35.929  70.338  0.00  0.00     0.211 A 
ATOM      2  N   UNK d   1      19.194  34.720  70.890  0.00  0.00    -0.122 NA
ATOM      3  N   UNK d   1      18.216  33.922  71.288  0.00  0.00    -0.143 NA
ATOM      4  C   UNK d   1      16.924  34.291  71.158  0.00  0.00     0.137 A 
ATOM      5  C   UNK d   1      16.693  35.529  70.593  0.00  0.00     0.164 A 
ATOM      6  N   UNK d   1      15.353  35.673  70.567  0.00  0.00    -0.333 N 
ATOM      7  C   UNK d   1      14.740  34.595  71.083  0.00  0.00     0.048 A 
ATOM      8  C   UNK d   1      15.712  33.698  71.469  0.00  0.00     0.026 A 
ATOM      9  C   UNK d   1      15.414  32.471  72.043  0.00  0.00     0.035 A 
ATOM     10  C   UNK d   1      14.074  32.173  72.221  0.00  0.00     0.011 A 
ATOM     11  C   UNK d   1      13.081  33.054  71.845  0.00  0.00     0.021 A 
ATOM     12  C   UNK d   1      13.399  34.264  71.277  0.00  0.00     0.032 A 
ATOM     13 Br   UNK d   1      13.663  30.481  73.014  0.00  0.00    -0.051 Br
ATOM     14  C   UNK d   1      14.695  36.853  70.043  0.00  0.00     0.158 C 
ATOM     15  N   UNK d   1      17.721  36.334  70.191  0.00  0.00    -0.201 NA
ENDROOT
BRANCH   1  16
ATOM     16  S   UNK d   1      20.380  36.962  69.818  0.00  0.00    -0.079 SA
BRANCH  16  17
ATOM     17  C   UNK d   1      21.894  35.971  69.935  0.00  0.00     0.185 C 
BRANCH  17  18
ATOM     18  C   UNK d   1      22.269  35.520  68.564  0.00  0.00     0.233 C 
ATOM     19  O   UNK d   1      21.447  34.872  67.842  0.00  0.00    -0.272 OA
ATOM     20  N   UNK d   1      23.542  35.791  68.020  0.00  0.00    -0.306 N 
ATOM     21  H   UNK d   1      24.227  36.320  68.601  0.00  0.00     0.170 HD
BRANCH  20  22
ATOM     22  C   UNK d   1      23.896  35.363  66.718  0.00  0.00     0.207 A 
ATOM     23  N   UNK d   1      23.752  36.027  65.559  0.00  0.00    -0.083 NA
ATOM     24  O   UNK d   1      24.196  35.308  64.564  0.00  0.00    -0.103 OA
ATOM     25  N   UNK d   1      24.624  34.193  65.050  0.00  0.00    -0.083 NA
ATOM     26  C   UNK d   1      24.475  34.144  66.380  0.00  0.00     0.199 A 
BRANCH  26  27
ATOM     27  N   UNK d   1      24.836  33.075  67.227  0.00  0.00    -0.379 N 
ATOM     28  H   UNK d   1      25.360  32.270  66.835  0.00  0.00     0.158 HD
ATOM     29  H   UNK d   1      24.600  33.056  68.240  0.00  0.00     0.158 HD
ENDBRANCH  26  27
ENDBRANCH  20  22
ENDBRANCH  17  18
ENDBRANCH  16  17
ENDBRANCH   1  16
TORSDOF 5
ENDMDL
