/Users/jonathanwahrer/Desktop/Msc/3_Semester/Drug_Design_Praktikum/waehrer_HTS_screening/HTS_experiment/out/docking_results/vina_output/4x21/1130_docked.pdbqt
 OpenBabel03212202093D

 29 32  0  0  0  0  0  0  0  0999 V2000
   18.9940   35.9290   70.3380 C   0  0  0  0  0  0  0  0  0  0  0  0
   19.1940   34.7200   70.8900 N   0  0  0  0  0  0  0  0  0  0  0  0
   18.2160   33.9220   71.2880 N   0  0  0  0  0  2  0  0  0  0  0  0
   16.9240   34.2910   71.1580 C   0  0  0  0  0  0  0  0  0  0  0  0
   16.6930   35.5290   70.5930 C   0  0  0  0  0  0  0  0  0  0  0  0
   15.3530   35.6730   70.5670 N   0  0  0  0  0  0  0  0  0  0  0  0
   14.7400   34.5950   71.0830 C   0  0  0  0  0  0  0  0  0  0  0  0
   15.7120   33.6980   71.4690 C   0  0  0  0  0  0  0  0  0  0  0  0
   15.4140   32.4710   72.0430 C   0  0  0  0  0  3  0  0  0  0  0  0
   14.0740   32.1730   72.2210 C   0  0  0  0  0  0  0  0  0  0  0  0
   13.0810   33.0540   71.8450 C   0  0  0  0  0  3  0  0  0  0  0  0
   13.3990   34.2640   71.2770 C   0  0  0  0  0  3  0  0  0  0  0  0
   13.6630   30.4810   73.0140 Br  0  0  0  0  0  0  0  0  0  0  0  0
   14.6950   36.8530   70.0430 C   0  0  0  0  0  1  0  0  0  0  0  0
   17.7210   36.3340   70.1910 N   0  0  0  0  0  2  0  0  0  0  0  0
   20.3800   36.9620   69.8180 S   0  0  0  0  0  0  0  0  0  0  0  0
   21.8940   35.9710   69.9350 C   0  0  0  0  0  2  0  0  0  0  0  0
   22.2690   35.5200   68.5640 C   0  0  0  0  0  0  0  0  0  0  0  0
   21.4470   34.8720   67.8420 O   0  0  0  0  0  0  0  0  0  0  0  0
   23.5420   35.7910   68.0200 N   0  0  0  0  0  0  0  0  0  0  0  0
   24.2270   36.3200   68.6010 H   0  0  0  0  0  0  0  0  0  0  0  0
   23.8960   35.3630   66.7180 C   0  0  0  0  0  0  0  0  0  0  0  0
   23.7520   36.0270   65.5590 N   0  0  0  0  0  0  0  0  0  0  0  0
   24.1960   35.3080   64.5640 O   0  0  0  0  0  0  0  0  0  0  0  0
   24.6240   34.1930   65.0500 N   0  0  0  0  0  0  0  0  0  0  0  0
   24.4750   34.1440   66.3800 C   0  0  0  0  0  0  0  0  0  0  0  0
   24.8360   33.0750   67.2270 N   0  0  0  0  0  0  0  0  0  0  0  0
   25.3600   32.2700   66.8350 H   0  0  0  0  0  0  0  0  0  0  0  0
   24.6000   33.0560   68.2400 H   0  0  0  0  0  0  0  0  0  0  0  0
  1  2  2  0  0  0  0
  2  3  1  0  0  0  0
  4  3  1  0  0  0  0
  4  8  1  0  0  0  0
  5  4  2  0  0  0  0
  6  5  1  0  0  0  0
  6  7  1  0  0  0  0
  7 12  2  0  0  0  0
  7  8  1  0  0  0  0
  8  9  2  0  0  0  0
  9 10  1  0  0  0  0
 10 13  1  0  0  0  0
 11 10  2  0  0  0  0
 12 11  1  0  0  0  0
 14  6  1  0  0  0  0
 15  1  1  0  0  0  0
 15  5  1  0  0  0  0
 16 17  1  0  0  0  0
 16  1  1  0  0  0  0
 18 17  1  0  0  0  0
 19 18  2  0  0  0  0
 20 18  1  0  0  0  0
 20 21  1  0  0  0  0
 22 20  1  0  0  0  0
 23 22  2  0  0  0  0
 24 25  1  0  0  0  0
 24 23  1  0  0  0  0
 25 26  2  0  0  0  0
 26 22  1  0  0  0  0
 26 27  1  0  0  0  0
 27 29  1  0  0  0  0
 28 27  1  0  0  0  0
M  END
>  <Pose>
1

>  <Score>
-8.451

$$$$
