MODEL 1
REMARK VINA RESULT:    -5.705      0.000      0.000
REMARK INTER + INTRA:          -8.421
REMARK INTER:                  -6.706
REMARK INTRA:                  -1.715
REMARK UNBOUND:                -1.715
REMARK  3 active torsions:
REMARK  status: ('A' for Active; 'I' for Inactive)
REMARK    1  A    between atoms: C_6  and  C_17 
REMARK    2  A    between atoms: N_9  and  C_10 
REMARK    3  A    between atoms: C_23  and  O_30 
ROOT
ATOM      1  C   UNK d   1      18.656  27.271  75.183  0.00  0.00     0.246 C 
ATOM      2  N   UNK d   1      19.002  26.589  76.422  0.00  0.00    -0.065 N 
ATOM      3  C   UNK d   1      19.339  27.561  77.448  0.00  0.00     0.240 C 
ATOM      4  C   UNK d   1      19.563  28.956  76.926  0.00  0.00     0.067 C 
ATOM      5  C   UNK d   1      20.367  28.855  75.656  0.00  0.00    -0.043 A 
ATOM      6  C   UNK d   1      19.873  27.915  74.721  0.00  0.00     0.017 A 
ATOM      7  C   UNK d   1      20.543  27.727  73.544  0.00  0.00     0.113 A 
ATOM      8  C   UNK d   1      21.691  28.484  73.321  0.00  0.00     0.139 A 
ATOM      9  C   UNK d   1      22.150  29.394  74.245  0.00  0.00     0.108 A 
ATOM     10  C   UNK d   1      21.485  29.594  75.440  0.00  0.00     0.047 A 
ATOM     11  O   UNK d   1      23.293  29.983  73.745  0.00  0.00    -0.323 OA
ATOM     12  C   UNK d   1      23.728  29.246  72.629  0.00  0.00     0.352 C 
ATOM     13  O   UNK d   1      22.556  28.520  72.261  0.00  0.00    -0.320 OA
ATOM     14  C   UNK d   1      20.073  25.659  76.313  0.00  0.00     0.270 C 
ATOM     15  H   UNK d   1      18.146  26.088  76.736  0.00  0.00     0.280 HD
ENDROOT
BRANCH   1  16
ATOM     16  C   UNK d   1      17.797  26.478  74.313  0.00  0.00     0.208 C 
ATOM     17  C   UNK d   1      16.774  25.820  75.263  0.00  0.00     0.261 C 
ATOM     18  N   UNK d   1      15.923  26.746  75.920  0.00  0.00    -0.187 NA
ATOM     19  O   UNK d   1      16.722  24.597  75.419  0.00  0.00    -0.270 OA
ATOM     20  C   UNK d   1      15.523  27.865  75.437  0.00  0.00     0.190 C 
ATOM     21  S   UNK d   1      14.448  28.970  76.339  0.00  0.00    -0.010 SA
ATOM     22  N   UNK d   1      16.012  28.172  74.111  0.00  0.00    -0.259 N 
ATOM     23  C   UNK d   1      16.872  27.262  73.440  0.00  0.00     0.246 C 
ATOM     24  O   UNK d   1      16.790  27.188  72.213  0.00  0.00    -0.272 OA
BRANCH  22  25
ATOM     25  C   UNK d   1      15.641  29.361  73.475  0.00  0.00     0.044 A 
ATOM     26  C   UNK d   1      16.604  30.374  73.385  0.00  0.00     0.031 A 
ATOM     27  C   UNK d   1      16.313  31.573  72.772  0.00  0.00     0.021 A 
ATOM     28  C   UNK d   1      15.044  31.776  72.239  0.00  0.00     0.011 A 
ATOM     29  C   UNK d   1      14.088  30.756  72.334  0.00  0.00     0.021 A 
ATOM     30 Br   UNK d   1      14.604  33.404  71.392  0.00  0.00    -0.051 Br
ATOM     31  C   UNK d   1      14.396  29.566  72.949  0.00  0.00     0.031 A 
ENDBRANCH  22  25
ENDBRANCH   1  16
BRANCH   7  32
ATOM     32  O   UNK d   1      20.109  26.812  72.595  0.00  0.00    -0.352 OA
ATOM     33  C   UNK d   1      20.763  25.551  72.508  0.00  0.00     0.210 C 
ENDBRANCH   7  32
TORSDOF 3
ENDMDL
