MODEL 1
REMARK VINA RESULT:    -8.566      0.000      0.000
REMARK INTER + INTRA:          -8.572
REMARK INTER:                  -9.067
REMARK INTRA:                   0.495
REMARK UNBOUND:                 0.495
REMARK  1 active torsions:
REMARK  status: ('A' for Active; 'I' for Inactive)
REMARK    1  A    between atoms: N_11  and  C_14 
ROOT
ATOM      1  S   UNK d   1      24.179  36.581  68.696  0.00  0.00     0.148 S 
ATOM      2  O   UNK d   1      25.290  37.576  68.523  0.00  0.00    -0.228 OA
ATOM      3  O   UNK d   1      24.702  35.217  69.050  0.00  0.00    -0.228 OA
ATOM      4  C   UNK d   1      23.009  37.122  69.924  0.00  0.00     0.175 C 
ATOM      5  C   UNK d   1      21.696  36.458  69.566  0.00  0.00     0.195 C 
ATOM      6  N   UNK d   1      21.186  37.059  68.351  0.00  0.00    -0.318 N 
ATOM      7  C   UNK d   1      22.088  37.451  67.288  0.00  0.00     0.143 C 
ATOM      8  C   UNK d   1      23.227  36.435  67.177  0.00  0.00     0.160 C 
ATOM      9  C   UNK d   1      19.777  37.121  68.529  0.00  0.00     0.328 C 
ATOM     10  O   UNK d   1      18.913  37.348  67.615  0.00  0.00    -0.246 OA
ATOM     11  N   UNK d   1      19.432  36.890  69.889  0.00  0.00    -0.259 N 
ATOM     12  C   UNK d   1      20.656  36.680  70.576  0.00  0.00     0.252 C 
ATOM     13  O   UNK d   1      20.838  36.681  71.830  0.00  0.00    -0.270 OA
ENDROOT
BRANCH  11  14
ATOM     14  C   UNK d   1      18.105  36.867  70.486  0.00  0.00     0.135 C 
ATOM     15  C   UNK d   1      17.119  37.682  69.667  0.00  0.00     0.058 C 
ATOM     16  C   UNK d   1      15.804  37.656  70.449  0.00  0.00     0.178 C 
ATOM     17  O   UNK d   1      15.351  36.315  70.410  0.00  0.00    -0.349 OA
ATOM     18  C   UNK d   1      16.250  35.259  70.505  0.00  0.00     0.094 A 
ATOM     19  C   UNK d   1      17.597  35.483  70.544  0.00  0.00     0.000 A 
ATOM     20  C   UNK d   1      15.714  33.981  70.555  0.00  0.00     0.044 A 
ATOM     21  C   UNK d   1      18.482  34.445  70.637  0.00  0.00     0.012 A 
ATOM     22  C   UNK d   1      17.990  33.163  70.689  0.00  0.00     0.002 A 
ATOM     23  C   UNK d   1      16.635  32.953  70.650  0.00  0.00     0.022 A 
ATOM     24 Br   UNK d   1      13.839  33.676  70.500  0.00  0.00    -0.048 Br
ENDBRANCH  11  14
TORSDOF 1
ENDMDL
