/Users/jonathanwahrer/Desktop/Msc/3_Semester/Drug_Design_Praktikum/waehrer_HTS_screening/HTS_experiment/out/docking_results/vina_output/4x21/1157_docked.pdbqt
 OpenBabel03212202103D

 24 27  0  0  1  0  0  0  0  0999 V2000
   14.3600   36.4000   70.4940 C   0  0  2  0  0  3  0  0  0  0  0  0
   13.9680   35.3360   71.4880 C   0  0  0  0  0  2  0  0  0  0  0  0
   13.8310   34.1680   70.6310 N   0  0  0  0  0  0  0  0  0  0  0  0
   13.0590   34.6190   69.4970 C   0  0  0  0  0  2  0  0  0  0  0  0
   13.4340   36.0810   69.3400 C   0  0  0  0  0  2  0  0  0  0  0  0
   15.7230   36.2160   70.0150 N   0  0  0  0  0  0  0  0  0  0  0  0
   16.7170   37.2040   70.1950 C   0  0  0  0  0  0  0  0  0  0  0  0
   16.5010   38.2970   70.7730 O   0  0  0  0  0  0  0  0  0  0  0  0
   15.9910   35.3350   69.5230 H   0  0  0  0  0  0  0  0  0  0  0  0
   18.0980   36.9990   69.7000 C   0  0  0  0  0  0  0  0  0  0  0  0
   19.4080   36.1960   70.4400 S   0  0  0  0  0  0  0  0  0  0  0  0
   20.5870   36.4180   69.2300 C   0  0  0  0  0  3  0  0  0  0  0  0
   19.9120   37.1240   68.2670 C   0  0  0  0  0  0  0  0  0  0  0  0
   18.6340   37.4210   68.5110 C   0  0  0  0  0  3  0  0  0  0  0  0
   20.8460   37.6330   66.6450 Br  0  0  0  0  0  0  0  0  0  0  0  0
   14.3710   32.8670   70.9080 C   0  0  0  0  0  0  0  0  0  0  0  0
   13.5670   31.8290   71.2060 N   0  0  0  0  0  0  0  0  0  0  0  0
   14.1030   30.6230   71.4620 C   0  0  0  0  0  3  0  0  0  0  0  0
   15.4560   30.4050   71.4300 C   0  0  0  0  0  3  0  0  0  0  0  0
   16.2730   31.4300   71.1330 N   0  0  0  0  0  0  0  0  0  0  0  0
   15.7260   32.6350   70.8790 C   0  0  0  0  0  0  0  0  0  0  0  0
   17.6210   31.5110   71.0290 C   0  0  0  0  0  3  0  0  0  0  0  0
   16.7720   33.4420   70.6200 N   0  0  0  0  0  0  0  0  0  0  0  0
   17.9150   32.7820   70.7070 N   0  0  0  0  0  0  0  0  0  0  0  0
  1  6  1  6  0  0  0
  1  2  1  0  0  0  0
  3 16  1  0  0  0  0
  3  2  1  0  0  0  0
  4  3  1  0  0  0  0
  5  4  1  0  0  0  0
  5  1  1  0  0  0  0
  6  7  1  0  0  0  0
  7  8  2  0  0  0  0
  9  6  1  0  0  0  0
 10  7  1  0  0  0  0
 10 11  1  0  0  0  0
 12 11  1  0  0  0  0
 13 14  1  0  0  0  0
 13 12  2  0  0  0  0
 14 10  2  0  0  0  0
 15 13  1  0  0  0  0
 16 17  2  0  0  0  0
 17 18  1  0  0  0  0
 19 18  2  0  0  0  0
 20 19  1  0  0  0  0
 21 16  1  0  0  0  0
 21 20  1  0  0  0  0
 22 20  1  0  0  0  0
 23 24  1  0  0  0  0
 23 21  2  0  0  0  0
 24 22  2  0  0  0  0
M  END
>  <Pose>
1

>  <Score>
-7.829

$$$$
