/Users/jonathanwahrer/Desktop/Msc/3_Semester/Drug_Design_Praktikum/waehrer_HTS_screening/HTS_experiment/out/docking_results/vina_output/4x21/1160_docked.pdbqt
 OpenBabel03212202103D

 25 28  0  0  1  0  0  0  0  0999 V2000
   18.1870   37.6810   68.0320 C   0  0  0  0  0  0  0  0  0  0  0  0
   19.4000   37.1160   67.8970 N   0  0  0  0  0  0  0  0  0  0  0  0
   20.1270   37.7900   66.9890 C   0  0  0  0  0  0  0  0  0  0  0  0
   19.3250   38.7830   66.5700 N   0  0  0  0  0  0  0  0  0  0  0  0
   18.1770   38.6980   67.2040 O   0  0  0  0  0  0  0  0  0  0  0  0
   21.4920   37.5240   66.5350 C   0  0  0  0  0  0  0  0  0  0  0  0
   22.0100   36.3190   66.2410 N   0  0  0  0  0  0  0  0  0  0  0  0
   23.2850   36.4480   65.8600 N   0  0  0  0  0  0  0  0  0  0  0  0
   23.6050   37.7610   65.9060 C   0  0  0  0  0  3  0  0  0  0  0  0
   22.4870   38.4010   66.3240 N   0  0  0  0  0  0  0  0  0  0  0  0
   24.1790   35.3730   65.4620 C   0  0  0  0  0  2  0  0  0  0  0  0
   24.1650   34.3360   66.5160 C   0  0  0  0  0  0  0  0  0  0  0  0
   24.1590   33.1330   66.1730 O   0  0  0  0  0  0  0  0  0  0  0  0
   24.1600   34.7110   67.8790 N   0  0  0  0  0  0  0  0  0  0  0  0
   24.7700   34.2230   68.5920 H   0  0  0  0  0  0  0  0  0  0  0  0
   23.5670   35.4820   68.2720 H   0  0  0  0  0  0  0  0  0  0  0  0
   17.0670   37.2450   68.9390 C   0  0  1  0  0  3  0  0  0  0  0  0
   17.5540   36.7210   70.2970 C   0  0  1  0  0  3  0  0  0  0  0  0
   16.8230   37.9860   70.1980 C   0  0  0  0  0  2  0  0  0  0  0  0
   16.7830   35.4990   70.7610 C   0  0  0  0  0  0  0  0  0  0  0  0
   15.4310   35.4830   70.7950 C   0  0  0  0  0  3  0  0  0  0  0  0
   14.8400   34.3240   71.2260 C   0  0  0  0  0  0  0  0  0  0  0  0
   16.1600   33.3090   71.5650 S   0  0  0  0  0  0  0  0  0  0  0  0
   12.9490   33.9720   71.3930 Br  0  0  0  0  0  0  0  0  0  0  0  0
   17.4310   34.3640   71.1570 C   0  0  0  0  0  3  0  0  0  0  0  0
  2  1  2  0  0  0  0
  3  2  1  0  0  0  0
  4  3  2  0  0  0  0
  4  5  1  0  0  0  0
  5  1  1  0  0  0  0
  6  3  1  0  0  0  0
  7  6  2  0  0  0  0
  8  9  1  0  0  0  0
  8  7  1  0  0  0  0
  9 10  2  0  0  0  0
 10  6  1  0  0  0  0
 11  8  1  0  0  0  0
 11 12  1  0  0  0  0
 12 14  1  0  0  0  0
 13 12  2  0  0  0  0
 14 16  1  0  0  0  0
 14 15  1  0  0  0  0
 17  1  1  6  0  0  0
 17 19  1  0  0  0  0
 17 18  1  0  0  0  0
 18 20  1  1  0  0  0
 19 18  1  0  0  0  0
 20 21  1  0  0  0  0
 20 25  2  0  0  0  0
 21 22  2  0  0  0  0
 22 24  1  0  0  0  0
 22 23  1  0  0  0  0
 25 23  1  0  0  0  0
M  END
>  <Pose>
1

>  <Score>
-7.775

$$$$
