MODEL 1
REMARK VINA RESULT:    -7.775      0.000      0.000
REMARK INTER + INTRA:         -10.066
REMARK INTER:                 -10.047
REMARK INTRA:                  -0.018
REMARK UNBOUND:                -0.018
REMARK  5 active torsions:
REMARK  status: ('A' for Active; 'I' for Inactive)
REMARK    1  A    between atoms: C_4  and  C_6 
REMARK    2  A    between atoms: C_7  and  C_9 
REMARK    3  A    between atoms: C_11  and  C_14 
REMARK    4  A    between atoms: N_16  and  C_19 
REMARK    5  A    between atoms: C_19  and  C_20 
REMARK       I    between atoms: C_20  and  N_22 
ROOT
ATOM      1  C   UNK d   1      18.187  37.681  68.032  0.00  0.00     0.178 A 
ATOM      2  N   UNK d   1      19.400  37.116  67.897  0.00  0.00    -0.201 NA
ATOM      3  C   UNK d   1      20.127  37.790  66.989  0.00  0.00     0.229 A 
ATOM      4  N   UNK d   1      19.325  38.783  66.570  0.00  0.00    -0.102 NA
ATOM      5  O   UNK d   1      18.177  38.698  67.204  0.00  0.00    -0.195 OA
ENDROOT
BRANCH   3   6
ATOM      6  C   UNK d   1      21.492  37.524  66.535  0.00  0.00     0.221 A 
ATOM      7  N   UNK d   1      22.010  36.319  66.241  0.00  0.00    -0.147 NA
ATOM      8  N   UNK d   1      23.285  36.448  65.860  0.00  0.00    -0.253 N 
ATOM      9  C   UNK d   1      23.605  37.761  65.906  0.00  0.00     0.231 A 
ATOM     10  N   UNK d   1      22.487  38.401  66.324  0.00  0.00    -0.218 NA
BRANCH   8  11
ATOM     11  C   UNK d   1      24.179  35.373  65.462  0.00  0.00     0.254 C 
BRANCH  11  12
ATOM     12  C   UNK d   1      24.165  34.336  66.516  0.00  0.00     0.235 C 
ATOM     13  O   UNK d   1      24.159  33.133  66.173  0.00  0.00    -0.272 OA
ATOM     14  N   UNK d   1      24.160  34.711  67.879  0.00  0.00    -0.369 N 
ATOM     15  H   UNK d   1      24.770  34.223  68.592  0.00  0.00     0.159 HD
ATOM     16  H   UNK d   1      23.567  35.482  68.272  0.00  0.00     0.159 HD
ENDBRANCH  11  12
ENDBRANCH   8  11
ENDBRANCH   3   6
BRANCH   1  17
ATOM     17  C   UNK d   1      17.067  37.245  68.939  0.00  0.00     0.074 A 
ATOM     18  C   UNK d   1      17.554  36.721  70.297  0.00  0.00     0.032 A 
ATOM     19  C   UNK d   1      16.823  37.986  70.198  0.00  0.00     0.023 A 
BRANCH  18  20
ATOM     20  C   UNK d   1      16.783  35.499  70.761  0.00  0.00    -0.045 A 
ATOM     21  C   UNK d   1      15.431  35.483  70.795  0.00  0.00     0.034 A 
ATOM     22  C   UNK d   1      14.840  34.324  71.226  0.00  0.00     0.051 A 
ATOM     23  S   UNK d   1      16.160  33.309  71.565  0.00  0.00    -0.094 SA
ATOM     24 Br   UNK d   1      12.949  33.972  71.393  0.00  0.00    -0.043 Br
ATOM     25  C   UNK d   1      17.431  34.364  71.157  0.00  0.00     0.058 A 
ENDBRANCH  18  20
ENDBRANCH   1  17
TORSDOF 5
ENDMDL
