MODEL 1
REMARK VINA RESULT:    -7.656      0.000      0.000
REMARK INTER + INTRA:         -11.853
REMARK INTER:                 -10.565
REMARK INTRA:                  -1.289
REMARK UNBOUND:                -1.289
REMARK  7 active torsions:
REMARK  status: ('A' for Active; 'I' for Inactive)
REMARK    1  A    between atoms: C_5  and  C_6 
REMARK    2  A    between atoms: C_6  and  C_8 
REMARK    3  A    between atoms: C_8  and  N_9 
REMARK    4  A    between atoms: N_16  and  C_19 
REMARK    5  A    between atoms: C_17  and  N_18 
REMARK    6  A    between atoms: C_19  and  C_20 
REMARK    7  A    between atoms: C_20  and  N_21 
ROOT
ATOM      1  N   UNK d   1      17.618  32.202  70.688  0.00  0.00    -0.172 N 
ATOM      2  C   UNK d   1      17.047  33.431  70.702  0.00  0.00     0.079 A 
ATOM      3  C   UNK d   1      18.016  34.388  70.682  0.00  0.00     0.079 A 
ATOM      4  C   UNK d   1      17.677  35.729  70.688  0.00  0.00     0.032 A 
ATOM      5  C   UNK d   1      16.347  36.082  70.715  0.00  0.00     0.002 A 
ATOM      6  C   UNK d   1      15.353  35.137  70.735  0.00  0.00     0.002 A 
ATOM      7  C   UNK d   1      15.725  33.811  70.728  0.00  0.00     0.032 A 
ATOM      8  N   UNK d   1      19.188  33.746  70.659  0.00  0.00    -0.178 N 
ATOM      9  C   UNK d   1      18.938  32.405  70.663  0.00  0.00     0.703 A 
ENDROOT
BRANCH   1  10
ATOM     10  C   UNK d   1      16.882  30.963  70.701  0.00  0.00     0.232 C 
BRANCH  10  11
ATOM     11  C   UNK d   1      16.906  30.318  72.037  0.00  0.00     0.185 C 
ATOM     12  O   UNK d   1      17.955  29.793  72.485  0.00  0.00    -0.290 OA
BRANCH  11  13
ATOM     13  C   UNK d   1      15.715  30.262  72.892  0.00  0.00     0.053 A 
ATOM     14  S   UNK d   1      15.292  29.143  74.117  0.00  0.00    -0.079 SA
ATOM     15  C   UNK d   1      13.787  29.783  74.580  0.00  0.00     0.052 A 
ATOM     16  C   UNK d   1      13.653  30.867  73.757  0.00  0.00     0.028 A 
ATOM     17 Br   UNK d   1      12.603  29.129  75.925  0.00  0.00    -0.043 Br
ATOM     18  C   UNK d   1      14.639  31.114  72.892  0.00  0.00     0.024 A 
ENDBRANCH  11  13
ENDBRANCH  10  11
ENDBRANCH   1  10
BRANCH   9  19
ATOM     19  N   UNK d   1      19.907  31.567  70.656  0.00  0.00    -0.117 NA
ATOM     20  H   UNK d   1      20.905  31.743  70.561  0.00  0.00     0.206 HD
ENDBRANCH   9  19
BRANCH   8  21
ATOM     21  C   UNK d   1      20.489  34.398  70.619  0.00  0.00     0.175 C 
BRANCH  21  22
ATOM     22  C   UNK d   1      20.784  34.789  69.163  0.00  0.00     0.255 C 
BRANCH  22  23
ATOM     23  N   UNK d   1      21.704  35.887  69.077  0.00  0.00    -0.070 N 
ATOM     24  C   UNK d   1      22.413  35.966  67.816  0.00  0.00     0.235 C 
ATOM     25  C   UNK d   1      21.478  35.928  66.641  0.00  0.00     0.028 C 
ATOM     26  C   UNK d   1      20.326  36.867  66.771  0.00  0.00     0.003 C 
ATOM     27  C   UNK d   1      19.905  37.192  68.160  0.00  0.00     0.028 C 
ATOM     28  C   UNK d   1      20.961  37.117  69.205  0.00  0.00     0.235 C 
ATOM     29  H   UNK d   1      22.439  35.805  69.813  0.00  0.00     0.279 HD
ENDBRANCH  22  23
ENDBRANCH  21  22
ENDBRANCH   8  21
TORSDOF 7
ENDMDL
