MODEL 1
REMARK VINA RESULT:    -7.872      0.000      0.000
REMARK INTER + INTRA:         -12.740
REMARK INTER:                 -11.094
REMARK INTRA:                  -1.647
REMARK UNBOUND:                -1.647
REMARK  7 active torsions:
REMARK  status: ('A' for Active; 'I' for Inactive)
REMARK    1  A    between atoms: C_5  and  C_6 
REMARK    2  A    between atoms: C_6  and  C_7 
REMARK    3  A    between atoms: C_8  and  C_23 
REMARK    4  A    between atoms: N_9  and  C_14 
REMARK    5  A    between atoms: C_14  and  C_15 
REMARK    6  A    between atoms: C_15  and  C_16 
REMARK    7  A    between atoms: C_16  and  N_17 
ROOT
ATOM      1  C   UNK d   1      17.652  31.222  72.589  0.00  0.00     0.063 C 
ATOM      2  C   UNK d   1      17.704  32.684  72.907  0.00  0.00     0.161 C 
ATOM      3  N   UNK d   1      19.097  32.995  72.727  0.00  0.00    -0.332 N 
ATOM      4  C   UNK d   1      19.806  31.827  73.164  0.00  0.00     0.295 C 
ATOM      5  O   UNK d   1      20.989  31.790  73.547  0.00  0.00    -0.264 OA
ATOM      6  C   UNK d   1      18.910  30.682  73.089  0.00  0.00     0.250 C 
ATOM      7  O   UNK d   1      19.094  29.467  73.375  0.00  0.00    -0.282 OA
ENDROOT
BRANCH   3   8
ATOM      8  C   UNK d   1      19.613  34.237  72.233  0.00  0.00     0.129 C 
BRANCH   8   9
ATOM      9  C   UNK d   1      20.475  34.140  71.045  0.00  0.00     0.048 C 
BRANCH   9  10
ATOM     10  C   UNK d   1      20.225  35.028  69.939  0.00  0.00     0.236 C 
BRANCH  10  11
ATOM     11  N   UNK d   1      20.514  36.376  69.804  0.00  0.00    -0.067 N 
ATOM     12  C   UNK d   1      19.319  37.218  70.186  0.00  0.00     0.261 C 
ATOM     13  C   UNK d   1      18.356  37.244  69.045  0.00  0.00     0.195 C 
ATOM     14  O   UNK d   1      18.951  37.969  68.019  0.00  0.00    -0.388 OA
ATOM     15  C   UNK d   1      19.991  37.145  67.535  0.00  0.00     0.195 C 
ATOM     16  C   UNK d   1      21.031  36.920  68.597  0.00  0.00     0.261 C 
ATOM     17  H   UNK d   1      21.187  36.672  70.552  0.00  0.00     0.280 HD
ENDBRANCH  10  11
ENDBRANCH   9  10
ENDBRANCH   8   9
ENDBRANCH   3   8
BRANCH   2  18
ATOM     18  C   UNK d   1      16.765  33.440  72.065  0.00  0.00    -0.030 A 
ATOM     19  C   UNK d   1      16.792  33.539  70.701  0.00  0.00     0.011 A 
ATOM     20  C   UNK d   1      15.894  34.262  69.948  0.00  0.00     0.019 A 
ATOM     21  C   UNK d   1      14.893  34.941  70.596  0.00  0.00     0.011 A 
ATOM     22  C   UNK d   1      14.814  34.881  71.963  0.00  0.00     0.019 A 
ATOM     23 Br   UNK d   1      13.644  35.946  69.546  0.00  0.00    -0.051 Br
ATOM     24  C   UNK d   1      15.727  34.148  72.684  0.00  0.00     0.011 A 
ENDBRANCH   2  18
BRANCH   1  25
ATOM     25  C   UNK d   1      16.652  30.611  72.027  0.00  0.00     0.139 C 
ATOM     26  O   UNK d   1      16.773  30.169  70.699  0.00  0.00    -0.190 OA
BRANCH  25  27
ATOM     27  C   UNK d   1      15.394  30.379  72.771  0.00  0.00     0.068 A 
ATOM     28  S   UNK d   1      15.165  29.731  74.341  0.00  0.00    -0.070 SA
ATOM     29  C   UNK d   1      13.471  29.877  74.437  0.00  0.00     0.072 A 
ATOM     30  N   UNK d   1      13.164  30.411  73.273  0.00  0.00    -0.250 NA
ATOM     31  C   UNK d   1      12.527  29.503  75.548  0.00  0.00     0.078 C 
ATOM     32  C   UNK d   1      14.101  30.676  72.414  0.00  0.00     0.051 A 
ATOM     33  C   UNK d   1      13.788  31.336  71.074  0.00  0.00     0.072 C 
ENDBRANCH  25  27
ENDBRANCH   1  25
TORSDOF 7
ENDMDL
