MODEL 1
REMARK VINA RESULT:    -7.448      0.000      0.000
REMARK INTER + INTRA:         -12.206
REMARK INTER:                 -10.060
REMARK INTRA:                  -2.146
REMARK UNBOUND:                -2.146
REMARK  6 active torsions:
REMARK  status: ('A' for Active; 'I' for Inactive)
REMARK    1  A    between atoms: C_5  and  C_6 
REMARK    2  A    between atoms: C_6  and  C_7 
REMARK    3  A    between atoms: C_8  and  C_22 
REMARK    4  A    between atoms: N_9  and  C_14 
REMARK    5  A    between atoms: C_14  and  C_15 
REMARK    6  A    between atoms: C_15  and  N_16 
ROOT
ATOM      1  C   UNK d   1      20.460  33.429  71.429  0.00  0.00     0.063 C 
ATOM      2  C   UNK d   1      19.293  32.496  71.454  0.00  0.00     0.161 C 
ATOM      3  N   UNK d   1      19.758  31.510  72.351  0.00  0.00    -0.331 N 
ATOM      4  C   UNK d   1      21.119  31.240  71.833  0.00  0.00     0.295 C 
ATOM      5  O   UNK d   1      21.754  30.154  71.898  0.00  0.00    -0.264 OA
ATOM      6  C   UNK d   1      21.568  32.494  71.236  0.00  0.00     0.250 C 
ATOM      7  O   UNK d   1      22.662  32.782  70.659  0.00  0.00    -0.282 OA
ENDROOT
BRANCH   1   8
ATOM      8  C   UNK d   1      20.479  34.743  71.510  0.00  0.00     0.139 C 
ATOM      9  O   UNK d   1      20.488  35.360  72.748  0.00  0.00    -0.190 OA
BRANCH   8  10
ATOM     10  C   UNK d   1      20.489  35.489  70.243  0.00  0.00     0.068 A 
ATOM     11  S   UNK d   1      21.685  35.498  69.003  0.00  0.00    -0.070 SA
ATOM     12  C   UNK d   1      20.916  36.542  67.902  0.00  0.00     0.072 A 
ATOM     13  N   UNK d   1      19.792  36.831  68.527  0.00  0.00    -0.250 NA
ATOM     14  C   UNK d   1      21.393  37.020  66.557  0.00  0.00     0.078 C 
ATOM     15  C   UNK d   1      19.544  36.325  69.694  0.00  0.00     0.051 A 
ATOM     16  C   UNK d   1      18.233  36.611  70.412  0.00  0.00     0.072 C 
ENDBRANCH   8  10
ENDBRANCH   1   8
BRANCH   2  17
ATOM     17  C   UNK d   1      17.991  33.067  71.451  0.00  0.00    -0.030 A 
ATOM     18  C   UNK d   1      17.266  33.095  70.256  0.00  0.00     0.011 A 
ATOM     19  C   UNK d   1      16.013  33.642  70.162  0.00  0.00     0.019 A 
ATOM     20  C   UNK d   1      15.456  34.184  71.301  0.00  0.00     0.011 A 
ATOM     21  C   UNK d   1      16.156  34.167  72.490  0.00  0.00     0.019 A 
ATOM     22 Br   UNK d   1      13.712  34.968  71.258  0.00  0.00    -0.051 Br
ATOM     23  C   UNK d   1      17.413  33.612  72.560  0.00  0.00     0.011 A 
ENDBRANCH   2  17
BRANCH   3  24
ATOM     24  C   UNK d   1      19.321  30.719  73.451  0.00  0.00     0.155 C 
BRANCH  24  25
ATOM     25  C   UNK d   1      18.257  29.724  73.269  0.00  0.00     0.255 C 
BRANCH  25  26
ATOM     26  N   UNK d   1      16.901  30.082  73.168  0.00  0.00    -0.066 N 
ATOM     27  C   UNK d   1      16.328  29.916  71.849  0.00  0.00     0.261 C 
ATOM     28  C   UNK d   1      14.915  30.486  71.924  0.00  0.00     0.195 C 
ATOM     29  O   UNK d   1      14.503  30.625  73.249  0.00  0.00    -0.388 OA
ATOM     30  C   UNK d   1      14.708  29.362  73.842  0.00  0.00     0.195 C 
ATOM     31  C   UNK d   1      16.171  29.051  73.977  0.00  0.00     0.261 C 
ATOM     32  H   UNK d   1      16.703  30.980  73.621  0.00  0.00     0.280 HD
ENDBRANCH  25  26
ENDBRANCH  24  25
ENDBRANCH   3  24
TORSDOF 6
ENDMDL
