MODEL 1
REMARK VINA RESULT:    -8.422      0.000      0.000
REMARK INTER + INTRA:          -9.184
REMARK INTER:                  -8.915
REMARK INTRA:                  -0.269
REMARK UNBOUND:                -0.269
REMARK  1 active torsions:
REMARK  status: ('A' for Active; 'I' for Inactive)
REMARK    1  A    between atoms: C_14  and  C_16 
ROOT
ATOM      1  S   UNK d   1      17.433  33.830  73.658  0.00  0.00    -0.074 SA
ATOM      2  C   UNK d   1      18.858  33.805  72.699  0.00  0.00     0.088 A 
ATOM      3  C   UNK d   1      18.698  32.663  71.961  0.00  0.00     0.073 A 
ATOM      4  C   UNK d   1      17.583  31.944  72.165  0.00  0.00    -0.023 A 
ATOM      5  C   UNK d   1      16.693  32.409  73.095  0.00  0.00     0.018 A 
ATOM      6  C   UNK d   1      15.453  31.591  73.308  0.00  0.00     0.281 C 
ATOM      7  N   UNK d   1      14.807  31.410  72.010  0.00  0.00    -0.070 N 
ATOM      8  C   UNK d   1      15.679  30.866  71.015  0.00  0.00     0.239 C 
ATOM      9  C   UNK d   1      17.098  30.650  71.529  0.00  0.00     0.068 C 
ATOM     10  C   UNK d   1      14.422  32.752  71.571  0.00  0.00     0.270 C 
ATOM     11  C   UNK d   1      19.817  32.381  71.020  0.00  0.00     0.256 C 
ATOM     12  O   UNK d   1      19.794  31.355  70.277  0.00  0.00    -0.267 OA
ATOM     13  N   UNK d   1      20.911  33.283  70.969  0.00  0.00    -0.332 N 
ATOM     14  C   UNK d   1      20.858  34.651  71.396  0.00  0.00     0.219 C 
ATOM     15  N   UNK d   1      20.012  34.672  72.579  0.00  0.00    -0.358 N 
ATOM     16  H   UNK d   1      13.917  30.885  72.123  0.00  0.00     0.279 HD
ATOM     17  H   UNK d   1      21.822  32.902  70.586  0.00  0.00     0.165 HD
ATOM     18  H   UNK d   1      20.196  35.305  73.383  0.00  0.00     0.162 HD
ENDROOT
BRANCH  14  19
ATOM     19  C   UNK d   1      20.290  35.553  70.366  0.00  0.00    -0.013 A 
ATOM     20  C   UNK d   1      19.044  36.129  70.508  0.00  0.00     0.033 A 
ATOM     21  C   UNK d   1      18.501  36.969  69.563  0.00  0.00     0.049 A 
ATOM     22  C   UNK d   1      19.211  37.262  68.417  0.00  0.00     0.141 A 
ATOM     23 Br   UNK d   1      16.788  37.755  69.770  0.00  0.00    -0.048 Br
ATOM     24  C   UNK d   1      20.455  36.700  68.253  0.00  0.00     0.049 A 
ATOM     25  O   UNK d   1      18.670  38.109  67.460  0.00  0.00    -0.189 OA
ATOM     26  C   UNK d   1      20.993  35.858  69.207  0.00  0.00     0.033 A 
ATOM     27 Br   UNK d   1      21.409  37.135  66.643  0.00  0.00    -0.048 Br
ENDBRANCH  14  19
TORSDOF 1
ENDMDL
