MODEL 1
REMARK VINA RESULT:    -7.891      0.000      0.000
REMARK INTER + INTRA:          -9.462
REMARK INTER:                  -9.274
REMARK INTRA:                  -0.188
REMARK UNBOUND:                -0.188
REMARK  3 active torsions:
REMARK  status: ('A' for Active; 'I' for Inactive)
REMARK    1  A    between atoms: C_14  and  C_16 
REMARK    2  A    between atoms: C_20  and  O_22 
REMARK    3  A    between atoms: O_22  and  C_23 
ROOT
ATOM      1  S   UNK d   1      20.804  36.840  71.018  0.00  0.00    -0.074 SA
ATOM      2  C   UNK d   1      20.251  35.350  71.642  0.00  0.00     0.088 A 
ATOM      3  C   UNK d   1      20.545  34.469  70.639  0.00  0.00     0.073 A 
ATOM      4  C   UNK d   1      21.140  34.974  69.528  0.00  0.00    -0.023 A 
ATOM      5  C   UNK d   1      21.390  36.324  69.514  0.00  0.00     0.018 A 
ATOM      6  C   UNK d   1      22.036  37.000  68.351  0.00  0.00     0.281 C 
ATOM      7  N   UNK d   1      22.964  36.185  67.646  0.00  0.00    -0.070 N 
ATOM      8  C   UNK d   1      22.924  34.789  67.922  0.00  0.00     0.239 C 
ATOM      9  C   UNK d   1      21.579  34.228  68.263  0.00  0.00     0.068 C 
ATOM     10  C   UNK d   1      22.915  36.453  66.213  0.00  0.00     0.270 C 
ATOM     11  C   UNK d   1      20.158  33.058  70.949  0.00  0.00     0.256 C 
ATOM     12  O   UNK d   1      20.380  32.143  70.091  0.00  0.00    -0.267 OA
ATOM     13  N   UNK d   1      19.550  32.752  72.188  0.00  0.00    -0.332 N 
ATOM     14  C   UNK d   1      18.775  33.746  72.897  0.00  0.00     0.219 C 
ATOM     15  N   UNK d   1      19.613  34.944  72.882  0.00  0.00    -0.358 N 
ATOM     16  H   UNK d   1      23.936  36.517  67.937  0.00  0.00     0.279 HD
ATOM     17  H   UNK d   1      19.660  31.799  72.601  0.00  0.00     0.165 HD
ATOM     18  H   UNK d   1      19.795  35.543  73.704  0.00  0.00     0.162 HD
ENDROOT
BRANCH  14  19
ATOM     19  C   UNK d   1      17.537  33.985  72.109  0.00  0.00    -0.012 A 
ATOM     20  C   UNK d   1      16.533  33.041  72.071  0.00  0.00     0.033 A 
ATOM     21  C   UNK d   1      15.378  33.244  71.347  0.00  0.00     0.051 A 
ATOM     22  C   UNK d   1      15.217  34.425  70.635  0.00  0.00     0.157 A 
ATOM     23 Br   UNK d   1      13.982  31.948  71.285  0.00  0.00    -0.048 Br
ATOM     24  C   UNK d   1      16.204  35.387  70.655  0.00  0.00     0.107 A 
ATOM     25  O   UNK d   1      14.058  34.652  69.896  0.00  0.00    -0.188 OA
ATOM     26  C   UNK d   1      17.332  35.157  71.380  0.00  0.00     0.050 A 
BRANCH  24  27
ATOM     27  O   UNK d   1      15.995  36.546  69.931  0.00  0.00    -0.348 OA
BRANCH  27  28
ATOM     28  C   UNK d   1      16.809  37.675  69.941  0.00  0.00     0.171 C 
ATOM     29  C   UNK d   1      17.777  37.672  68.778  0.00  0.00     0.034 C 
ENDBRANCH  27  28
ENDBRANCH  24  27
ENDBRANCH  14  19
TORSDOF 3
ENDMDL
