MODEL 1
REMARK VINA RESULT:    -7.962      0.000      0.000
REMARK INTER + INTRA:          -9.701
REMARK INTER:                  -9.358
REMARK INTRA:                  -0.342
REMARK UNBOUND:                -0.342
REMARK  3 active torsions:
REMARK  status: ('A' for Active; 'I' for Inactive)
REMARK    1  A    between atoms: N_6  and  C_18 
REMARK    2  A    between atoms: C_8  and  C_9 
REMARK    3  A    between atoms: C_12  and  N_15 
ROOT
ATOM      1  S   UNK d   1      14.700  35.789  70.768  0.00  0.00    -0.087 SA
ATOM      2  C   UNK d   1      13.264  34.703  70.561  0.00  0.00     0.069 C 
ATOM      3  C   UNK d   1      13.585  33.673  71.610  0.00  0.00     0.146 C 
ATOM      4  N   UNK d   1      14.994  33.463  71.747  0.00  0.00    -0.324 N 
ATOM      5  C   UNK d   1      15.775  34.473  71.328  0.00  0.00     0.154 A 
ATOM      6  N   UNK d   1      17.059  34.134  71.490  0.00  0.00    -0.300 N 
ATOM      7  C   UNK d   1      17.113  32.892  72.020  0.00  0.00     0.130 A 
ATOM      8  C   UNK d   1      15.821  32.455  72.191  0.00  0.00     0.062 A 
ATOM      9  C   UNK d   1      13.283  34.016  69.217  0.00  0.00     0.023 C 
ENDROOT
BRANCH   8  10
ATOM     10  C   UNK d   1      15.461  31.164  72.727  0.00  0.00    -0.008 A 
ATOM     11  C   UNK d   1      16.225  30.053  72.329  0.00  0.00     0.016 A 
ATOM     12  C   UNK d   1      15.963  28.804  72.831  0.00  0.00     0.037 A 
ATOM     13  C   UNK d   1      14.961  28.558  73.735  0.00  0.00     0.102 A 
ATOM     14  C   UNK d   1      14.200  29.628  74.141  0.00  0.00     0.037 A 
ATOM     15  C   UNK d   1      14.466  30.905  73.630  0.00  0.00     0.016 A 
BRANCH  13  16
ATOM     16  N   UNK d   1      14.755  27.239  74.204  0.00  0.00    -0.116 N 
ATOM     17  O   UNK d   1      15.205  26.269  73.585  0.00  0.00    -0.532 OA
ATOM     18  O   UNK d   1      14.051  27.043  75.353  0.00  0.00    -0.532 OA
ENDBRANCH  13  16
ENDBRANCH   8  10
BRANCH   6  19
ATOM     19  C   UNK d   1      18.194  34.929  71.166  0.00  0.00     0.041 A 
ATOM     20  C   UNK d   1      18.102  36.033  70.351  0.00  0.00     0.031 A 
ATOM     21  C   UNK d   1      19.185  36.821  70.022  0.00  0.00     0.021 A 
ATOM     22  C   UNK d   1      20.430  36.505  70.520  0.00  0.00     0.011 A 
ATOM     23  C   UNK d   1      20.561  35.400  71.344  0.00  0.00     0.021 A 
ATOM     24 Br   UNK d   1      21.956  37.573  70.085  0.00  0.00    -0.051 Br
ATOM     25  C   UNK d   1      19.460  34.630  71.658  0.00  0.00     0.031 A 
ENDBRANCH   6  19
TORSDOF 3
ENDMDL
