/Users/jonathanwahrer/Desktop/Msc/3_Semester/Drug_Design_Praktikum/waehrer_HTS_screening/HTS_experiment/out/docking_results/vina_output/4x21/1209_docked.pdbqt
 OpenBabel03212202123D

 24 27  0  0  1  0  0  0  0  0999 V2000
   19.0030   36.8530   69.8340 S   0  0  0  0  0  0  0  0  0  0  0  0
   18.4130   37.8780   68.4570 C   0  0  0  0  0  2  0  0  0  0  0  0
   16.9040   37.7240   68.3980 C   0  0  0  0  0  2  0  0  0  0  0  0
   16.3150   37.8160   69.7900 C   0  0  0  0  0  2  0  0  0  0  0  0
   16.3940   36.4830   70.3650 N   0  0  0  0  0  0  0  0  0  0  0  0
   17.6050   35.9250   70.4390 C   0  0  2  0  0  3  0  0  0  0  0  0
   17.4800   34.6740   71.0070 N   0  0  0  0  0  0  0  0  0  0  0  0
   16.2050   34.4560   71.2830 C   0  0  0  0  0  0  0  0  0  0  0  0
   15.5360   35.6060   70.8720 C   0  0  0  0  0  3  0  0  0  0  0  0
   15.5410   33.3090   71.8820 C   0  0  0  0  0  0  0  0  0  0  0  0
   14.2270   33.0010   71.5000 C   0  0  0  0  0  3  0  0  0  0  0  0
   13.5520   31.9360   72.0290 C   0  0  0  0  0  3  0  0  0  0  0  0
   14.1040   31.0920   72.9650 C   0  0  0  0  0  0  0  0  0  0  0  0
   15.3890   31.3840   73.3450 C   0  0  0  0  0  3  0  0  0  0  0  0
   16.0990   32.4720   72.8170 C   0  0  0  0  0  3  0  0  0  0  0  0
   13.3870   30.0200   73.4780 O   0  0  0  0  0  0  0  0  0  0  0  0
   12.9890   30.0110   74.8360 C   0  0  0  0  0  1  0  0  0  0  0  0
   18.6080   33.8290   71.2200 C   0  0  0  0  0  0  0  0  0  0  0  0
   19.4310   34.0070   72.3180 C   0  0  0  0  0  3  0  0  0  0  0  0
   20.5120   33.1870   72.5690 C   0  0  0  0  0  3  0  0  0  0  0  0
   20.7670   32.1600   71.6830 C   0  0  0  0  0  0  0  0  0  0  0  0
   19.9420   31.9900   70.5910 C   0  0  0  0  0  3  0  0  0  0  0  0
   22.2500   30.9670   71.9480 Br  0  0  0  0  0  0  0  0  0  0  0  0
   18.8580   32.7960   70.3220 C   0  0  0  0  0  3  0  0  0  0  0  0
  2  1  1  0  0  0  0
  3  2  1  0  0  0  0
  3  4  1  0  0  0  0
  4  5  1  0  0  0  0
  5  6  1  0  0  0  0
  5  9  1  0  0  0  0
  6  1  1  1  0  0  0
  6  7  1  0  0  0  0
  7 18  1  0  0  0  0
  7  8  1  0  0  0  0
  8 10  1  0  0  0  0
  9  8  2  0  0  0  0
 10 15  1  0  0  0  0
 11 10  2  0  0  0  0
 11 12  1  0  0  0  0
 12 13  2  0  0  0  0
 13 14  1  0  0  0  0
 13 16  1  0  0  0  0
 15 14  2  0  0  0  0
 16 17  1  0  0  0  0
 18 19  1  0  0  0  0
 19 20  2  0  0  0  0
 21 23  1  0  0  0  0
 21 20  1  0  0  0  0
 22 21  2  0  0  0  0
 24 22  1  0  0  0  0
 24 18  2  0  0  0  0
M  END
>  <Pose>
1

>  <Score>
-7.729

$$$$
