/Users/jonathanwahrer/Desktop/Msc/3_Semester/Drug_Design_Praktikum/waehrer_HTS_screening/HTS_experiment/out/docking_results/vina_output/4x21/1211_docked.pdbqt
 OpenBabel03212202123D

 26 29  0  0  1  0  0  0  0  0999 V2000
   20.9170   34.5270   67.8970 S   0  0  0  0  0  0  0  0  0  0  0  0
   20.8240   36.1780   67.1020 C   0  0  0  0  0  2  0  0  0  0  0  0
   21.3500   37.1420   68.1670 C   0  0  0  0  0  2  0  0  0  0  0  0
   20.3460   37.1550   69.3160 C   0  0  0  0  0  2  0  0  0  0  0  0
   20.6560   36.0330   70.1670 N   0  0  1  0  0  0  0  0  0  0  0  0
   20.9170   34.8580   69.6550 C   0  0  2  0  0  3  0  0  0  0  0  0
   21.2030   33.9610   70.7600 N   0  0  0  0  0  0  0  0  0  0  0  0
   20.2760   34.4390   71.7630 C   0  0  2  0  0  0  0  0  0  0  0  0
   20.7650   35.9290   71.6260 C   0  0  0  0  0  2  0  0  0  0  0  0
   20.4620   33.9650   73.0220 O   0  0  0  0  0  0  0  0  0  0  0  0
   20.7030   34.7370   73.6200 H   0  0  0  0  0  0  0  0  0  0  0  0
   18.9050   34.3620   71.2450 C   0  0  0  0  0  0  0  0  0  0  0  0
   18.0510   35.4500   71.2030 C   0  0  0  0  0  3  0  0  0  0  0  0
   16.7420   35.2900   70.7230 C   0  0  0  0  0  3  0  0  0  0  0  0
   16.2710   34.1060   70.2970 C   0  0  0  0  0  0  0  0  0  0  0  0
   17.1150   32.9770   70.3230 C   0  0  0  0  0  3  0  0  0  0  0  0
   18.3980   33.1770   70.8020 C   0  0  0  0  0  3  0  0  0  0  0  0
   14.9540   33.9020   69.8080 O   0  0  0  0  0  0  0  0  0  0  0  0
   13.9110   33.5540   70.6930 C   0  0  0  0  0  1  0  0  0  0  0  0
   22.1960   32.9620   70.8080 C   0  0  0  0  0  0  0  0  0  0  0  0
   23.5130   33.3240   70.4310 C   0  0  0  0  0  3  0  0  0  0  0  0
   24.5420   32.3990   70.3940 C   0  0  0  0  0  3  0  0  0  0  0  0
   24.3260   31.0890   70.7230 C   0  0  0  0  0  0  0  0  0  0  0  0
   23.0540   30.7050   71.0940 C   0  0  0  0  0  3  0  0  0  0  0  0
   25.7090   29.7730   70.6680 Br  0  0  0  0  0  0  0  0  0  0  0  0
   22.0130   31.6520   71.1310 C   0  0  0  0  0  3  0  0  0  0  0  0
  2  1  1  0  0  0  0
  2  3  1  0  0  0  0
  3  4  1  0  0  0  0
  5  4  1  6  0  0  0
  5  9  1  0  0  0  0
  6  1  1  6  0  0  0
  6  5  1  0  0  0  0
  6  7  1  0  0  0  0
  7 20  1  0  0  0  0
  7  8  1  0  0  0  0
  8 10  1  1  0  0  0
  9  8  1  0  0  0  0
 10 11  1  0  0  0  0
 12  8  1  0  0  0  0
 13 12  1  0  0  0  0
 14 13  2  0  0  0  0
 15 16  2  0  0  0  0
 15 14  1  0  0  0  0
 16 17  1  0  0  0  0
 17 12  2  0  0  0  0
 18 15  1  0  0  0  0
 18 19  1  0  0  0  0
 20 26  1  0  0  0  0
 21 20  2  0  0  0  0
 22 21  1  0  0  0  0
 22 23  2  0  0  0  0
 23 24  1  0  0  0  0
 24 26  2  0  0  0  0
 25 23  1  0  0  0  0
M  END
>  <Pose>
1

>  <Score>
-6.407

$$$$
