MODEL 1
REMARK VINA RESULT:    -6.407      0.000      0.000
REMARK INTER + INTRA:          -7.563
REMARK INTER:                  -7.718
REMARK INTRA:                   0.154
REMARK UNBOUND:                 0.154
REMARK  4 active torsions:
REMARK  status: ('A' for Active; 'I' for Inactive)
REMARK    1  A    between atoms: N_7  and  C_19 
REMARK    2  A    between atoms: C_8  and  O_10 
REMARK    3  A    between atoms: C_8  and  C_11 
REMARK    4  A    between atoms: C_14  and  O_17 
ROOT
ATOM      1  S   UNK d   1      20.917  34.527  67.897  0.00  0.00    -0.094 SA
ATOM      2  C   UNK d   1      20.824  36.178  67.102  0.00  0.00     0.084 C 
ATOM      3  C   UNK d   1      21.350  37.142  68.167  0.00  0.00     0.030 C 
ATOM      4  C   UNK d   1      20.346  37.155  69.316  0.00  0.00     0.126 C 
ATOM      5  N   UNK d   1      20.656  36.033  70.167  0.00  0.00    -0.356 N 
ATOM      6  C   UNK d   1      20.917  34.858  69.655  0.00  0.00     0.148 C 
ATOM      7  N   UNK d   1      21.203  33.961  70.760  0.00  0.00    -0.289 N 
ATOM      8  C   UNK d   1      20.276  34.439  71.763  0.00  0.00     0.185 C 
ATOM      9  C   UNK d   1      20.765  35.929  71.626  0.00  0.00     0.192 C 
ENDROOT
BRANCH   8  10
ATOM     10  O   UNK d   1      20.462  33.965  73.022  0.00  0.00    -0.365 OA
ATOM     11  H   UNK d   1      20.703  34.737  73.620  0.00  0.00     0.213 HD
ENDBRANCH   8  10
BRANCH   8  12
ATOM     12  C   UNK d   1      18.905  34.362  71.245  0.00  0.00    -0.001 A 
ATOM     13  C   UNK d   1      18.051  35.450  71.203  0.00  0.00     0.015 A 
ATOM     14  C   UNK d   1      16.742  35.290  70.723  0.00  0.00     0.037 A 
ATOM     15  C   UNK d   1      16.271  34.106  70.297  0.00  0.00     0.068 A 
ATOM     16  C   UNK d   1      17.115  32.977  70.323  0.00  0.00     0.037 A 
ATOM     17  C   UNK d   1      18.398  33.177  70.802  0.00  0.00     0.015 A 
BRANCH  15  18
ATOM     18  O   UNK d   1      14.954  33.902  69.808  0.00  0.00    -0.356 OA
ATOM     19  C   UNK d   1      13.911  33.554  70.693  0.00  0.00     0.210 C 
ENDBRANCH  15  18
ENDBRANCH   8  12
BRANCH   7  20
ATOM     20  C   UNK d   1      22.196  32.962  70.808  0.00  0.00     0.040 A 
ATOM     21  C   UNK d   1      23.513  33.324  70.431  0.00  0.00     0.031 A 
ATOM     22  C   UNK d   1      24.542  32.399  70.394  0.00  0.00     0.021 A 
ATOM     23  C   UNK d   1      24.326  31.089  70.723  0.00  0.00     0.011 A 
ATOM     24  C   UNK d   1      23.054  30.705  71.094  0.00  0.00     0.021 A 
ATOM     25 Br   UNK d   1      25.709  29.773  70.668  0.00  0.00    -0.051 Br
ATOM     26  C   UNK d   1      22.013  31.652  71.131  0.00  0.00     0.031 A 
ENDBRANCH   7  20
TORSDOF 4
ENDMDL
