MODEL 1
REMARK VINA RESULT:    -6.856      0.000      0.000
REMARK INTER + INTRA:          -9.323
REMARK INTER:                  -8.659
REMARK INTRA:                  -0.664
REMARK UNBOUND:                -0.664
REMARK  5 active torsions:
REMARK  status: ('A' for Active; 'I' for Inactive)
REMARK    1  A    between atoms: C_6  and  O_20 
REMARK    2  A    between atoms: C_6  and  C_21 
REMARK    3  A    between atoms: N_8  and  C_10 
REMARK    4  A    between atoms: C_11  and  O_18 
REMARK    5  A    between atoms: C_14  and  O_16 
ROOT
ATOM      1  S   UNK d   1      25.158  35.513  69.119  0.00  0.00    -0.094 SA
ATOM      2  C   UNK d   1      26.892  35.407  68.753  0.00  0.00     0.084 C 
ATOM      3  C   UNK d   1      27.169  36.049  67.408  0.00  0.00     0.030 C 
ATOM      4  C   UNK d   1      26.389  35.314  66.332  0.00  0.00     0.129 C 
ATOM      5  N   UNK d   1      24.990  35.670  66.407  0.00  0.00    -0.324 N 
ATOM      6  C   UNK d   1      24.091  36.210  65.439  0.00  0.00     0.181 C 
ATOM      7  C   UNK d   1      22.804  35.532  65.882  0.00  0.00     0.198 C 
ATOM      8  N   UNK d   1      22.932  35.500  67.322  0.00  0.00    -0.320 N 
ATOM      9  C   UNK d   1      24.190  35.530  67.594  0.00  0.00     0.148 C 
ENDROOT
BRANCH   8  10
ATOM     10  C   UNK d   1      21.885  35.482  68.281  0.00  0.00     0.072 A 
ATOM     11  C   UNK d   1      21.716  34.313  69.011  0.00  0.00     0.095 A 
ATOM     12  C   UNK d   1      20.691  34.209  69.956  0.00  0.00     0.042 A 
ATOM     13  C   UNK d   1      19.839  35.280  70.162  0.00  0.00     0.039 A 
ATOM     14  C   UNK d   1      19.977  36.452  69.458  0.00  0.00     0.070 A 
ATOM     15  C   UNK d   1      21.029  36.492  68.522  0.00  0.00     0.069 A 
BRANCH  11  16
ATOM     16  O   UNK d   1      22.566  33.248  68.800  0.00  0.00    -0.354 OA
ATOM     17  C   UNK d   1      23.079  32.408  69.807  0.00  0.00     0.210 C 
ENDBRANCH  11  16
BRANCH  14  18
ATOM     18  O   UNK d   1      19.159  37.557  69.618  0.00  0.00    -0.356 OA
ATOM     19  C   UNK d   1      17.762  37.564  69.540  0.00  0.00     0.210 C 
ENDBRANCH  14  18
ENDBRANCH   8  10
BRANCH   6  20
ATOM     20  O   UNK d   1      24.456  35.802  64.161  0.00  0.00    -0.365 OA
ATOM     21  H   UNK d   1      23.676  35.437  63.685  0.00  0.00     0.213 HD
ENDBRANCH   6  20
BRANCH   6  22
ATOM     22  C   UNK d   1      23.872  37.668  65.512  0.00  0.00    -0.002 A 
ATOM     23  C   UNK d   1      22.705  38.292  65.821  0.00  0.00     0.013 A 
ATOM     24  C   UNK d   1      22.601  39.685  65.825  0.00  0.00     0.020 A 
ATOM     25  C   UNK d   1      23.681  40.483  65.512  0.00  0.00     0.011 A 
ATOM     26  C   UNK d   1      24.854  39.868  65.201  0.00  0.00     0.020 A 
ATOM     27 Br   UNK d   1      23.521  42.394  65.515  0.00  0.00    -0.051 Br
ATOM     28  C   UNK d   1      24.956  38.504  65.197  0.00  0.00     0.013 A 
ENDBRANCH   6  22
TORSDOF 5
ENDMDL
