MODEL 1
REMARK VINA RESULT:    -7.835      0.000      0.000
REMARK INTER + INTRA:          -9.877
REMARK INTER:                  -9.438
REMARK INTRA:                  -0.439
REMARK UNBOUND:                -0.439
REMARK  4 active torsions:
REMARK  status: ('A' for Active; 'I' for Inactive)
REMARK    1  A    between atoms: C_6  and  O_17 
REMARK    2  A    between atoms: C_6  and  C_18 
REMARK    3  A    between atoms: N_8  and  C_10 
REMARK    4  A    between atoms: C_20  and  N_24 
ROOT
ATOM      1  S   UNK d   1      17.956  33.069  73.260  0.00  0.00    -0.094 SA
ATOM      2  C   UNK d   1      19.728  32.655  72.986  0.00  0.00     0.084 C 
ATOM      3  C   UNK d   1      19.832  31.218  72.503  0.00  0.00     0.030 C 
ATOM      4  C   UNK d   1      18.963  30.305  73.327  0.00  0.00     0.129 C 
ATOM      5  N   UNK d   1      17.611  30.379  72.873  0.00  0.00    -0.324 N 
ATOM      6  C   UNK d   1      16.529  29.447  72.613  0.00  0.00     0.181 C 
ATOM      7  C   UNK d   1      15.726  30.149  71.532  0.00  0.00     0.198 C 
ATOM      8  N   UNK d   1      16.020  31.566  71.824  0.00  0.00    -0.323 N 
ATOM      9  C   UNK d   1      17.059  31.666  72.553  0.00  0.00     0.147 C 
ENDROOT
BRANCH   6  10
ATOM     10  O   UNK d   1      16.986  28.209  72.206  0.00  0.00    -0.365 OA
ATOM     11  H   UNK d   1      17.482  27.701  72.863  0.00  0.00     0.213 HD
ENDBRANCH   6  10
BRANCH   6  12
ATOM     12  C   UNK d   1      15.651  29.283  73.796  0.00  0.00     0.001 A 
ATOM     13  C   UNK d   1      14.373  29.805  73.779  0.00  0.00     0.048 A 
ATOM     14  C   UNK d   1      13.581  29.626  74.913  0.00  0.00     0.103 A 
ATOM     15  C   UNK d   1      14.051  28.959  76.004  0.00  0.00     0.036 A 
ATOM     16  C   UNK d   1      15.329  28.431  76.034  0.00  0.00     0.003 A 
ATOM     17  C   UNK d   1      16.117  28.614  74.892  0.00  0.00     0.012 A 
BRANCH  14  18
ATOM     18  N   UNK d   1      12.267  30.158  74.905  0.00  0.00    -0.116 N 
ATOM     19  O   UNK d   1      12.050  31.371  74.716  0.00  0.00    -0.532 OA
ATOM     20  O   UNK d   1      11.178  29.359  75.105  0.00  0.00    -0.532 OA
ENDBRANCH  14  18
ENDBRANCH   6  12
BRANCH   8  21
ATOM     21  C   UNK d   1      15.249  32.659  71.334  0.00  0.00     0.036 A 
ATOM     22  C   UNK d   1      13.934  32.902  71.601  0.00  0.00     0.031 A 
ATOM     23  C   UNK d   1      13.247  34.001  71.103  0.00  0.00     0.021 A 
ATOM     24  C   UNK d   1      13.904  34.907  70.296  0.00  0.00     0.011 A 
ATOM     25  C   UNK d   1      15.245  34.692  70.002  0.00  0.00     0.021 A 
ATOM     26 Br   UNK d   1      13.043  36.449  69.558  0.00  0.00    -0.051 Br
ATOM     27  C   UNK d   1      15.911  33.584  70.512  0.00  0.00     0.031 A 
ENDBRANCH   8  21
TORSDOF 4
ENDMDL
