/Users/jonathanwahrer/Desktop/Msc/3_Semester/Drug_Design_Praktikum/waehrer_HTS_screening/HTS_experiment/out/docking_results/vina_output/4x21/1220_docked.pdbqt
 OpenBabel03212202133D

 27 30  0  0  1  0  0  0  0  0999 V2000
   17.9370   36.9880   70.1700 S   0  0  0  0  0  0  0  0  0  0  0  0
   17.7760   37.6100   68.4480 C   0  0  0  0  0  2  0  0  0  0  0  0
   19.0260   37.5340   67.6770 C   0  0  0  0  0  2  0  0  0  0  0  0
   20.2910   37.2320   68.3700 C   0  0  0  0  0  2  0  0  0  0  0  0
   20.3270   36.1370   69.2510 N   0  0  1  0  0  0  0  0  0  0  0  0
   21.3510   35.2330   69.6800 C   0  0  2  0  0  0  0  0  0  0  0  0
   20.5450   33.9670   69.8680 C   0  0  0  0  0  2  0  0  0  0  0  0
   19.2820   34.4890   70.3430 N   0  0  0  0  0  0  0  0  0  0  0  0
   19.1650   35.6820   69.9910 C   0  0  1  0  0  3  0  0  0  0  0  0
   21.7930   35.6110   70.9500 O   0  0  0  0  0  0  0  0  0  0  0  0
   22.7210   35.3440   71.0530 H   0  0  0  0  0  0  0  0  0  0  0  0
   22.4780   35.0340   68.7490 C   0  0  0  0  0  0  0  0  0  0  0  0
   22.3440   34.0310   67.7930 C   0  0  0  0  0  3  0  0  0  0  0  0
   23.3400   33.7710   66.8780 C   0  0  0  0  0  3  0  0  0  0  0  0
   24.5200   34.4930   66.8620 C   0  0  0  0  0  0  0  0  0  0  0  0
   24.6570   35.4920   67.8070 C   0  0  0  0  0  3  0  0  0  0  0  0
   23.6440   35.7530   68.7360 C   0  0  0  0  0  3  0  0  0  0  0  0
   25.5270   34.2080   65.9100 N   0  0  0  0  0  0  0  0  0  0  0  0
   26.6410   33.7600   66.2050 O   0  0  0  0  0  0  0  0  0  0  0  0
   25.2680   34.4320   64.5820 O   0  0  0  0  0  0  0  0  0  0  0  0
   18.3260   33.7500   71.1130 C   0  0  0  0  0  0  0  0  0  0  0  0
   17.6270   32.7240   70.4920 C   0  0  0  0  0  3  0  0  0  0  0  0
   16.6680   31.9770   71.1720 C   0  0  0  0  0  3  0  0  0  0  0  0
   16.3820   32.2400   72.4930 C   0  0  0  0  0  0  0  0  0  0  0  0
   17.0660   33.2520   73.1220 C   0  0  0  0  0  3  0  0  0  0  0  0
   15.0440   31.2160   73.4220 Br  0  0  0  0  0  0  0  0  0  0  0  0
   18.0240   33.9880   72.4120 C   0  0  0  0  0  3  0  0  0  0  0  0
  2  1  1  0  0  0  0
  3  4  1  0  0  0  0
  3  2  1  0  0  0  0
  5  4  1  1  0  0  0
  5  6  1  0  0  0  0
  5  9  1  0  0  0  0
  6  7  1  0  0  0  0
  6 10  1  1  0  0  0
  7  8  1  0  0  0  0
  8 21  1  0  0  0  0
  9  1  1  1  0  0  0
  9  8  1  0  0  0  0
 10 11  1  0  0  0  0
 12  6  1  0  0  0  0
 13 12  2  0  0  0  0
 14 13  1  0  0  0  0
 15 14  2  0  0  0  0
 15 16  1  0  0  0  0
 16 17  2  0  0  0  0
 17 12  1  0  0  0  0
 18 19  2  0  0  0  0
 18 15  1  0  0  0  0
 20 18  2  0  0  0  0
 21 27  1  0  0  0  0
 22 21  2  0  0  0  0
 22 23  1  0  0  0  0
 23 24  2  0  0  0  0
 24 25  1  0  0  0  0
 24 26  1  0  0  0  0
 27 25  2  0  0  0  0
M  END
>  <Pose>
1

>  <Score>
-7.748

$$$$
