MODEL 1
REMARK VINA RESULT:    -7.748      0.000      0.000
REMARK INTER + INTRA:         -10.028
REMARK INTER:                  -9.333
REMARK INTRA:                  -0.695
REMARK UNBOUND:                -0.695
REMARK  4 active torsions:
REMARK  status: ('A' for Active; 'I' for Inactive)
REMARK    1  A    between atoms: C_6  and  O_17 
REMARK    2  A    between atoms: C_6  and  C_18 
REMARK    3  A    between atoms: N_8  and  C_10 
REMARK    4  A    between atoms: C_21  and  N_24 
ROOT
ATOM      1  S   UNK d   1      17.937  36.988  70.170  0.00  0.00    -0.094 SA
ATOM      2  C   UNK d   1      17.776  37.610  68.448  0.00  0.00     0.084 C 
ATOM      3  C   UNK d   1      19.026  37.534  67.677  0.00  0.00     0.030 C 
ATOM      4  C   UNK d   1      20.291  37.232  68.370  0.00  0.00     0.129 C 
ATOM      5  N   UNK d   1      20.327  36.137  69.251  0.00  0.00    -0.324 N 
ATOM      6  C   UNK d   1      21.351  35.233  69.680  0.00  0.00     0.181 C 
ATOM      7  C   UNK d   1      20.545  33.967  69.868  0.00  0.00     0.198 C 
ATOM      8  N   UNK d   1      19.282  34.489  70.343  0.00  0.00    -0.323 N 
ATOM      9  C   UNK d   1      19.165  35.682  69.991  0.00  0.00     0.147 C 
ENDROOT
BRANCH   6  10
ATOM     10  O   UNK d   1      21.793  35.611  70.950  0.00  0.00    -0.365 OA
ATOM     11  H   UNK d   1      22.721  35.344  71.053  0.00  0.00     0.213 HD
ENDBRANCH   6  10
BRANCH   6  12
ATOM     12  C   UNK d   1      22.478  35.034  68.749  0.00  0.00    -0.001 A 
ATOM     13  C   UNK d   1      22.344  34.031  67.793  0.00  0.00     0.014 A 
ATOM     14  C   UNK d   1      23.340  33.771  66.878  0.00  0.00     0.037 A 
ATOM     15  C   UNK d   1      24.520  34.493  66.862  0.00  0.00     0.102 A 
ATOM     16  C   UNK d   1      24.657  35.492  67.807  0.00  0.00     0.037 A 
ATOM     17  C   UNK d   1      23.644  35.753  68.736  0.00  0.00     0.014 A 
BRANCH  15  18
ATOM     18  N   UNK d   1      25.527  34.208  65.910  0.00  0.00    -0.116 N 
ATOM     19  O   UNK d   1      26.641  33.760  66.205  0.00  0.00    -0.532 OA
ATOM     20  O   UNK d   1      25.268  34.432  64.582  0.00  0.00    -0.532 OA
ENDBRANCH  15  18
ENDBRANCH   6  12
BRANCH   8  21
ATOM     21  C   UNK d   1      18.326  33.750  71.113  0.00  0.00     0.036 A 
ATOM     22  C   UNK d   1      17.627  32.724  70.492  0.00  0.00     0.031 A 
ATOM     23  C   UNK d   1      16.668  31.977  71.172  0.00  0.00     0.021 A 
ATOM     24  C   UNK d   1      16.382  32.240  72.493  0.00  0.00     0.011 A 
ATOM     25  C   UNK d   1      17.066  33.252  73.122  0.00  0.00     0.021 A 
ATOM     26 Br   UNK d   1      15.044  31.216  73.422  0.00  0.00    -0.051 Br
ATOM     27  C   UNK d   1      18.024  33.988  72.412  0.00  0.00     0.031 A 
ENDBRANCH   8  21
TORSDOF 4
ENDMDL
