MODEL 1
REMARK VINA RESULT:    -7.869      0.000      0.000
REMARK INTER + INTRA:          -8.952
REMARK INTER:                  -9.019
REMARK INTRA:                   0.067
REMARK UNBOUND:                 0.067
REMARK  3 active torsions:
REMARK  status: ('A' for Active; 'I' for Inactive)
REMARK    1  A    between atoms: C_6  and  O_17 
REMARK    2  A    between atoms: C_6  and  C_18 
REMARK    3  A    between atoms: N_8  and  C_10 
ROOT
ATOM      1  S   UNK d   1      17.960  33.061  73.334  0.00  0.00    -0.094 SA
ATOM      2  C   UNK d   1      19.744  32.666  73.049  0.00  0.00     0.084 C 
ATOM      3  C   UNK d   1      19.904  31.214  72.681  0.00  0.00     0.030 C 
ATOM      4  C   UNK d   1      18.833  30.314  73.259  0.00  0.00     0.129 C 
ATOM      5  N   UNK d   1      17.565  30.463  72.658  0.00  0.00    -0.324 N 
ATOM      6  C   UNK d   1      16.398  29.665  72.244  0.00  0.00     0.181 C 
ATOM      7  C   UNK d   1      16.059  30.434  70.989  0.00  0.00     0.198 C 
ATOM      8  N   UNK d   1      16.233  31.807  71.438  0.00  0.00    -0.323 N 
ATOM      9  C   UNK d   1      17.132  31.806  72.304  0.00  0.00     0.147 C 
ENDROOT
BRANCH   6  10
ATOM     10  O   UNK d   1      16.710  28.373  71.947  0.00  0.00    -0.365 OA
ATOM     11  H   UNK d   1      17.652  28.198  71.701  0.00  0.00     0.213 HD
ENDBRANCH   6  10
BRANCH   6  12
ATOM     12  C   UNK d   1      15.281  29.807  73.235  0.00  0.00    -0.002 A 
ATOM     13  C   UNK d   1      14.049  30.338  72.906  0.00  0.00     0.012 A 
ATOM     14  C   UNK d   1      13.066  30.427  73.883  0.00  0.00     0.001 A 
ATOM     15  C   UNK d   1      13.266  30.001  75.190  0.00  0.00     0.000 A 
ATOM     16  C   UNK d   1      14.483  29.474  75.524  0.00  0.00     0.001 A 
ATOM     17  C   UNK d   1      15.473  29.386  74.546  0.00  0.00     0.012 A 
ENDBRANCH   6  12
BRANCH   8  18
ATOM     18  C   UNK d   1      15.449  32.937  70.998  0.00  0.00     0.036 A 
ATOM     19  C   UNK d   1      14.100  32.937  70.827  0.00  0.00     0.031 A 
ATOM     20  C   UNK d   1      13.389  34.033  70.356  0.00  0.00     0.021 A 
ATOM     21  C   UNK d   1      14.057  35.186  70.040  0.00  0.00     0.011 A 
ATOM     22  C   UNK d   1      15.428  35.191  70.213  0.00  0.00     0.021 A 
ATOM     23 Br   UNK d   1      13.160  36.749  69.379  0.00  0.00    -0.051 Br
ATOM     24  C   UNK d   1      16.126  34.111  70.676  0.00  0.00     0.031 A 
ENDBRANCH   8  18
TORSDOF 3
ENDMDL
