MODEL 1
REMARK VINA RESULT:    -7.971      0.000      0.000
REMARK INTER + INTRA:          -9.595
REMARK INTER:                  -9.136
REMARK INTRA:                  -0.459
REMARK UNBOUND:                -0.459
REMARK  3 active torsions:
REMARK  status: ('A' for Active; 'I' for Inactive)
REMARK    1  A    between atoms: C_6  and  O_16 
REMARK    2  A    between atoms: C_6  and  C_17 
REMARK    3  A    between atoms: N_8  and  C_10 
ROOT
ATOM      1  S   UNK d   1      22.918  34.028  68.084  0.00  0.00    -0.094 SA
ATOM      2  C   UNK d   1      23.220  32.660  69.238  0.00  0.00     0.084 C 
ATOM      3  C   UNK d   1      23.041  33.242  70.644  0.00  0.00     0.030 C 
ATOM      4  C   UNK d   1      21.567  33.648  70.802  0.00  0.00     0.129 C 
ATOM      5  N   UNK d   1      21.409  34.987  70.220  0.00  0.00    -0.324 N 
ATOM      6  C   UNK d   1      20.715  36.140  70.627  0.00  0.00     0.181 C 
ATOM      7  C   UNK d   1      21.270  37.257  69.750  0.00  0.00     0.198 C 
ATOM      8  N   UNK d   1      22.046  36.576  68.760  0.00  0.00    -0.323 N 
ATOM      9  C   UNK d   1      22.083  35.332  69.018  0.00  0.00     0.147 C 
ENDROOT
BRANCH   6  10
ATOM     10  O   UNK d   1      21.096  36.473  71.946  0.00  0.00    -0.365 OA
ATOM     11  H   UNK d   1      20.311  36.924  72.353  0.00  0.00     0.213 HD
ENDBRANCH   6  10
BRANCH   6  12
ATOM     12  C   UNK d   1      19.255  36.159  70.548  0.00  0.00    -0.002 A 
ATOM     13  C   UNK d   1      18.685  37.275  69.938  0.00  0.00     0.013 A 
ATOM     14  C   UNK d   1      17.324  37.436  69.753  0.00  0.00     0.020 A 
ATOM     15  C   UNK d   1      16.460  36.466  70.182  0.00  0.00     0.011 A 
ATOM     16  C   UNK d   1      17.007  35.350  70.790  0.00  0.00     0.020 A 
ATOM     17 Br   UNK d   1      14.552  36.622  69.943  0.00  0.00    -0.051 Br
ATOM     18  C   UNK d   1      18.380  35.200  70.968  0.00  0.00     0.013 A 
ENDBRANCH   6  12
BRANCH   8  19
ATOM     19  C   UNK d   1      22.702  37.273  67.689  0.00  0.00     0.036 A 
ATOM     20  C   UNK d   1      21.953  37.984  66.808  0.00  0.00     0.029 A 
ATOM     21  C   UNK d   1      22.615  38.674  65.797  0.00  0.00     0.002 A 
ATOM     22  C   UNK d   1      23.985  38.664  65.659  0.00  0.00     0.000 A 
ATOM     23  C   UNK d   1      24.703  37.925  66.577  0.00  0.00     0.002 A 
ATOM     24  C   UNK d   1      24.082  37.232  67.587  0.00  0.00     0.029 A 
ENDBRANCH   8  19
TORSDOF 3
ENDMDL
