/Users/jonathanwahrer/Desktop/Msc/3_Semester/Drug_Design_Praktikum/waehrer_HTS_screening/HTS_experiment/out/docking_results/vina_output/4x21/1226_docked.pdbqt
 OpenBabel03212202133D

 24 27  0  0  1  0  0  0  0  0999 V2000
   22.9180   34.0280   68.0840 S   0  0  0  0  0  0  0  0  0  0  0  0
   23.2200   32.6600   69.2380 C   0  0  0  0  0  2  0  0  0  0  0  0
   23.0410   33.2420   70.6440 C   0  0  0  0  0  2  0  0  0  0  0  0
   21.5670   33.6480   70.8020 C   0  0  0  0  0  2  0  0  0  0  0  0
   21.4090   34.9870   70.2200 N   0  0  1  0  0  0  0  0  0  0  0  0
   20.7150   36.1400   70.6270 C   0  0  2  0  0  0  0  0  0  0  0  0
   21.2700   37.2570   69.7500 C   0  0  0  0  0  2  0  0  0  0  0  0
   22.0460   36.5760   68.7600 N   0  0  0  0  0  0  0  0  0  0  0  0
   22.0830   35.3320   69.0180 C   0  0  1  0  0  3  0  0  0  0  0  0
   21.0960   36.4730   71.9460 O   0  0  0  0  0  0  0  0  0  0  0  0
   20.3110   36.9240   72.3530 H   0  0  0  0  0  0  0  0  0  0  0  0
   19.2550   36.1590   70.5480 C   0  0  0  0  0  0  0  0  0  0  0  0
   18.6850   37.2750   69.9380 C   0  0  0  0  0  3  0  0  0  0  0  0
   17.3240   37.4360   69.7530 C   0  0  0  0  0  3  0  0  0  0  0  0
   16.4600   36.4660   70.1820 C   0  0  0  0  0  0  0  0  0  0  0  0
   17.0070   35.3500   70.7900 C   0  0  0  0  0  3  0  0  0  0  0  0
   14.5520   36.6220   69.9430 Br  0  0  0  0  0  0  0  0  0  0  0  0
   18.3800   35.2000   70.9680 C   0  0  0  0  0  3  0  0  0  0  0  0
   22.7020   37.2730   67.6890 C   0  0  0  0  0  0  0  0  0  0  0  0
   21.9530   37.9840   66.8080 C   0  0  0  0  0  3  0  0  0  0  0  0
   22.6150   38.6740   65.7970 C   0  0  0  0  0  3  0  0  0  0  0  0
   23.9850   38.6640   65.6590 C   0  0  0  0  0  3  0  0  0  0  0  0
   24.7030   37.9250   66.5770 C   0  0  0  0  0  3  0  0  0  0  0  0
   24.0820   37.2320   67.5870 C   0  0  0  0  0  3  0  0  0  0  0  0
  1  2  1  0  0  0  0
  2  3  1  0  0  0  0
  3  4  1  0  0  0  0
  5  6  1  0  0  0  0
  5  4  1  1  0  0  0
  6 10  1  1  0  0  0
  7  6  1  0  0  0  0
  8  9  1  0  0  0  0
  8  7  1  0  0  0  0
  9  1  1  1  0  0  0
  9  5  1  0  0  0  0
 10 11  1  0  0  0  0
 12  6  1  0  0  0  0
 12 18  1  0  0  0  0
 13 12  2  0  0  0  0
 14 13  1  0  0  0  0
 14 15  2  0  0  0  0
 15 16  1  0  0  0  0
 16 18  2  0  0  0  0
 17 15  1  0  0  0  0
 19  8  1  0  0  0  0
 20 19  2  0  0  0  0
 21 20  1  0  0  0  0
 22 21  2  0  0  0  0
 22 23  1  0  0  0  0
 23 24  2  0  0  0  0
 24 19  1  0  0  0  0
M  END
>  <Pose>
1

>  <Score>
-7.971

$$$$
