/Users/jonathanwahrer/Desktop/Msc/3_Semester/Drug_Design_Praktikum/waehrer_HTS_screening/HTS_experiment/out/docking_results/vina_output/4x21/1231_docked.pdbqt
 OpenBabel03212202143D

 37 40  0  0  0  0  0  0  0  0999 V2000
   22.3730   35.7140   69.4670 C   0  0  0  0  0  0  0  0  0  0  0  0
   23.5770   35.6960   68.8810 N   0  0  0  0  0  0  0  0  0  0  0  0
   23.9540   34.4050   68.8760 N   0  0  0  0  0  0  0  0  0  0  0  0
   23.0620   33.6560   69.4160 N   0  0  0  0  0  0  0  0  0  0  0  0
   21.9880   34.4200   69.8330 C   0  0  0  0  0  0  0  0  0  0  0  0
   20.8140   33.8780   70.4660 C   0  0  0  0  0  0  0  0  0  0  0  0
   20.6560   34.1490   71.7210 O   0  0  0  0  0  0  0  0  0  0  0  0
   19.8110   33.0930   69.9050 N   0  0  0  0  0  0  0  0  0  0  0  0
   19.7270   32.7470   68.9350 H   0  0  0  0  0  0  0  0  0  0  0  0
   18.7090   32.6550   70.7190 N   0  0  0  0  0  0  0  0  0  0  0  0
   17.8960   31.7560   70.3250 C   0  0  0  0  0  3  0  0  0  0  0  0
   16.7690   31.2840   71.1180 C   0  0  0  0  0  0  0  0  0  0  0  0
   16.7880   30.0590   71.7450 C   0  0  0  0  0  3  0  0  0  0  0  0
   15.7320   29.6010   72.5040 C   0  0  0  0  0  0  0  0  0  0  0  0
   14.6010   30.3590   72.6660 C   0  0  0  0  0  0  0  0  0  0  0  0
   15.8050   27.8920   73.3570 Br  0  0  0  0  0  0  0  0  0  0  0  0
   14.5470   31.6150   72.0400 C   0  0  0  0  0  0  0  0  0  0  0  0
   13.5510   29.8790   73.4330 O   0  0  0  0  0  1  0  0  0  0  0  0
   15.6200   32.0440   71.2880 C   0  0  0  0  0  3  0  0  0  0  0  0
   13.3860   32.3230   72.2440 O   0  0  0  0  0  0  0  0  0  0  0  0
   12.9610   33.4370   71.4980 C   0  0  0  0  0  1  0  0  0  0  0  0
   21.5150   36.8880   69.6940 C   0  0  0  0  0  2  0  0  0  0  0  0
   20.1570   37.1330   68.5700 S   0  0  0  0  0  0  0  0  0  0  0  0
   18.5640   36.8800   69.3430 C   0  0  0  0  0  0  0  0  0  0  0  0
   17.1280   37.8710   68.9310 S   0  0  0  0  0  0  0  0  0  0  0  0
   16.0580   37.1920   70.2360 C   0  0  0  0  0  2  0  0  0  0  0  0
   16.8980   36.0350   70.6760 C   0  0  0  0  0  2  0  0  0  0  0  0
   18.1870   36.0730   70.2030 N   0  0  0  0  0  0  0  0  0  0  0  0
   24.3810   36.7240   68.3090 C   0  0  0  0  0  0  0  0  0  0  0  0
   25.4800   37.3120   68.8240 N   0  0  0  0  0  0  0  0  0  0  0  0
   25.9760   38.1870   68.0320 O   0  0  0  0  0  0  0  0  0  0  0  0
   25.2410   38.2240   66.9650 N   0  0  0  0  0  0  0  0  0  0  0  0
   24.2190   37.3240   67.0780 C   0  0  0  0  0  0  0  0  0  0  0  0
   23.2220   37.0580   66.1120 N   0  0  0  0  0  4  0  0  0  0  0  0
   22.8060   37.9790   65.8140 H   0  0  0  0  0  0  0  0  0  0  0  0
   22.4760   36.4130   66.4270 H   0  0  0  0  0  0  0  0  0  0  0  0
   23.6820   36.6550   65.2510 H   0  0  0  0  0  0  0  0  0  0  0  0
  1 22  1  0  0  0  0
  1  5  2  0  0  0  0
  2  1  1  0  0  0  0
  3  2  1  0  0  0  0
  3  4  2  0  0  0  0
  4  5  1  0  0  0  0
  5  6  1  0  0  0  0
  6  7  2  0  0  0  0
  8  6  1  0  0  0  0
  8 10  1  0  0  0  0
  9  8  1  0  0  0  0
 11 10  2  0  0  0  0
 11 12  1  0  0  0  0
 12 19  2  0  0  0  0
 12 13  1  0  0  0  0
 13 14  2  0  0  0  0
 14 15  1  0  0  0  0
 14 16  1  0  0  0  0
 15 18  1  0  0  0  0
 17 20  1  0  0  0  0
 17 15  2  0  0  0  0
 19 17  1  0  0  0  0
 21 20  1  0  0  0  0
 23 24  1  0  0  0  0
 23 22  1  0  0  0  0
 24 28  2  0  0  0  0
 25 24  1  0  0  0  0
 25 26  1  0  0  0  0
 26 27  1  0  0  0  0
 28 27  1  0  0  0  0
 29 30  2  0  0  0  0
 29  2  1  0  0  0  0
 31 30  1  0  0  0  0
 32 33  2  0  0  0  0
 32 31  1  0  0  0  0
 33 29  1  0  0  0  0
 34 36  1  0  0  0  0
 34 33  1  0  0  0  0
 35 34  1  0  0  0  0
 37 34  1  0  0  0  0
M  END
>  <Pose>
1

>  <Score>
-7.909

$$$$
