MODEL 1
REMARK VINA RESULT:    -7.909      0.000      0.000
REMARK INTER + INTRA:         -13.375
REMARK INTER:                 -11.839
REMARK INTRA:                  -1.536
REMARK UNBOUND:                -1.536
REMARK  9 active torsions:
REMARK  status: ('A' for Active; 'I' for Inactive)
REMARK    1  A    between atoms: C_5  and  S_6 
REMARK    2  A    between atoms: S_6  and  C_7 
REMARK    3  A    between atoms: C_7  and  C_8 
REMARK    4  A    between atoms: N_9  and  C_28 
REMARK    5  A    between atoms: C_12  and  C_13 
REMARK       I    between atoms: C_13  and  N_15 
REMARK    6  A    between atoms: N_15  and  N_16 
REMARK    7  A    between atoms: C_17  and  C_18 
REMARK    8  A    between atoms: C_22  and  O_24 
REMARK    9  A    between atoms: C_32  and  N_33 
ROOT
ATOM      1  C   UNK d   1      22.373  35.714  69.467  0.00  0.00     0.086 A 
ATOM      2  N   UNK d   1      23.577  35.696  68.881  0.00  0.00    -0.192 N 
ATOM      3  N   UNK d   1      23.954  34.405  68.876  0.00  0.00    -0.058 NA
ATOM      4  N   UNK d   1      23.062  33.656  69.416  0.00  0.00    -0.124 NA
ATOM      5  C   UNK d   1      21.988  34.420  69.833  0.00  0.00     0.175 A 
ENDROOT
BRANCH   5   6
ATOM      6  C   UNK d   1      20.814  33.878  70.466  0.00  0.00     0.294 C 
ATOM      7  O   UNK d   1      20.656  34.149  71.721  0.00  0.00    -0.264 OA
ATOM      8  N   UNK d   1      19.811  33.093  69.905  0.00  0.00    -0.242 N 
ATOM      9  H   UNK d   1      19.727  32.747  68.935  0.00  0.00     0.192 HD
BRANCH   8  10
ATOM     10  N   UNK d   1      18.709  32.655  70.719  0.00  0.00    -0.183 NA
ATOM     11  C   UNK d   1      17.896  31.756  70.325  0.00  0.00     0.150 C 
BRANCH  11  12
ATOM     12  C   UNK d   1      16.769  31.284  71.118  0.00  0.00    -0.013 A 
ATOM     13  C   UNK d   1      16.788  30.059  71.745  0.00  0.00     0.035 A 
ATOM     14  C   UNK d   1      15.732  29.601  72.504  0.00  0.00     0.051 A 
ATOM     15  C   UNK d   1      14.601  30.359  72.666  0.00  0.00     0.157 A 
ATOM     16 Br   UNK d   1      15.805  27.892  73.357  0.00  0.00    -0.048 Br
ATOM     17  C   UNK d   1      14.547  31.615  72.040  0.00  0.00     0.106 A 
ATOM     18  O   UNK d   1      13.551  29.879  73.433  0.00  0.00    -0.188 OA
ATOM     19  C   UNK d   1      15.620  32.044  71.288  0.00  0.00     0.052 A 
BRANCH  17  20
ATOM     20  O   UNK d   1      13.386  32.323  72.244  0.00  0.00    -0.353 OA
ATOM     21  C   UNK d   1      12.961  33.437  71.498  0.00  0.00     0.210 C 
ENDBRANCH  17  20
ENDBRANCH  11  12
ENDBRANCH   8  10
ENDBRANCH   5   6
BRANCH   1  22
ATOM     22  C   UNK d   1      21.515  36.888  69.694  0.00  0.00     0.143 C 
BRANCH  22  23
ATOM     23  S   UNK d   1      20.157  37.133  68.570  0.00  0.00    -0.098 SA
BRANCH  23  24
ATOM     24  C   UNK d   1      18.564  36.880  69.343  0.00  0.00     0.125 C 
ATOM     25  S   UNK d   1      17.128  37.871  68.931  0.00  0.00    -0.102 SA
ATOM     26  C   UNK d   1      16.058  37.192  70.236  0.00  0.00     0.103 C 
ATOM     27  C   UNK d   1      16.898  36.035  70.676  0.00  0.00     0.161 C 
ATOM     28  N   UNK d   1      18.187  36.073  70.203  0.00  0.00    -0.275 NA
ENDBRANCH  23  24
ENDBRANCH  22  23
ENDBRANCH   1  22
BRANCH   2  29
ATOM     29  C   UNK d   1      24.381  36.724  68.309  0.00  0.00     0.237 A 
ATOM     30  N   UNK d   1      25.480  37.312  68.824  0.00  0.00    -0.081 NA
ATOM     31  O   UNK d   1      25.976  38.187  68.032  0.00  0.00    -0.103 OA
ATOM     32  N   UNK d   1      25.241  38.224  66.965  0.00  0.00    -0.075 NA
ATOM     33  C   UNK d   1      24.219  37.324  67.078  0.00  0.00     0.300 A 
BRANCH  33  34
ATOM     34  N   UNK d   1      23.222  37.058  66.112  0.00  0.00    -0.026 N 
ATOM     35  H   UNK d   1      22.806  37.979  65.814  0.00  0.00     0.283 HD
ATOM     36  H   UNK d   1      22.476  36.413  66.427  0.00  0.00     0.283 HD
ATOM     37  H   UNK d   1      23.682  36.655  65.251  0.00  0.00     0.283 HD
ENDBRANCH  33  34
ENDBRANCH   2  29
TORSDOF 9
ENDMDL
