MODEL 1
REMARK VINA RESULT:    -7.208      0.000      0.000
REMARK INTER + INTRA:          -8.583
REMARK INTER:                  -8.472
REMARK INTRA:                  -0.111
REMARK UNBOUND:                -0.111
REMARK  3 active torsions:
REMARK  status: ('A' for Active; 'I' for Inactive)
REMARK    1  A    between atoms: C_9  and  C_12 
REMARK    2  A    between atoms: C_12  and  C_13 
REMARK    3  A    between atoms: C_12  and  C_24 
ROOT
ATOM      1  C   UNK d   1      18.456  33.664  70.954  0.00  0.00     0.063 C 
ENDROOT
BRANCH   1   2
ATOM      2  C   UNK d   1      19.803  33.552  71.578  0.00  0.00     0.182 C 
ATOM      3  C   UNK d   1      20.724  32.990  70.553  0.00  0.00     0.259 C 
ATOM      4  N   UNK d   1      21.227  33.897  69.553  0.00  0.00    -0.188 NA
ATOM      5  O   UNK d   1      21.029  31.772  70.588  0.00  0.00    -0.270 OA
ATOM      6  C   UNK d   1      21.272  35.149  69.726  0.00  0.00     0.174 C 
ATOM      7  S   UNK d   1      21.825  36.501  68.707  0.00  0.00    -0.090 SA
ATOM      8  N   UNK d   1      20.851  35.735  70.938  0.00  0.00    -0.295 N 
ATOM      9  C   UNK d   1      22.087  37.651  70.141  0.00  0.00     0.103 C 
ATOM     10  C   UNK d   1      20.933  37.167  70.982  0.00  0.00     0.144 C 
ATOM     11  C   UNK d   1      20.364  34.860  71.989  0.00  0.00     0.239 C 
ATOM     12  O   UNK d   1      20.450  35.265  73.173  0.00  0.00    -0.272 OA
ENDBRANCH   1   2
BRANCH   1  13
ATOM     13  C   UNK d   1      17.663  34.859  71.423  0.00  0.00     0.182 C 
ATOM     14  C   UNK d   1      16.486  34.523  72.240  0.00  0.00     0.239 C 
ATOM     15  O   UNK d   1      16.638  34.176  73.464  0.00  0.00    -0.272 OA
ATOM     16  N   UNK d   1      15.156  34.580  71.666  0.00  0.00    -0.295 N 
ATOM     17  C   UNK d   1      13.949  34.064  72.249  0.00  0.00     0.144 C 
ATOM     18  C   UNK d   1      14.989  35.223  70.420  0.00  0.00     0.174 C 
ATOM     19  C   UNK d   1      12.983  33.624  71.176  0.00  0.00     0.103 C 
ATOM     20  S   UNK d   1      13.247  35.061  70.035  0.00  0.00    -0.090 SA
ATOM     21  N   UNK d   1      15.957  35.756  69.780  0.00  0.00    -0.188 NA
ATOM     22  C   UNK d   1      17.301  35.741  70.285  0.00  0.00     0.259 C 
ATOM     23  O   UNK d   1      18.144  36.492  69.734  0.00  0.00    -0.270 OA
ENDBRANCH   1  13
BRANCH   1  24
ATOM     24  C   UNK d   1      17.724  32.393  71.153  0.00  0.00    -0.050 A 
ATOM     25  C   UNK d   1      18.108  31.498  72.143  0.00  0.00     0.026 A 
ATOM     26  C   UNK d   1      17.431  30.312  72.340  0.00  0.00     0.011 A 
ATOM     27  C   UNK d   1      16.350  29.989  71.551  0.00  0.00     0.019 A 
ATOM     28 Br   UNK d   1      17.951  29.076  73.697  0.00  0.00    -0.051 Br
ATOM     29  C   UNK d   1      15.975  30.868  70.581  0.00  0.00     0.002 A 
ATOM     30  C   UNK d   1      16.642  32.058  70.372  0.00  0.00     0.007 A 
ENDBRANCH   1  24
TORSDOF 3
ENDMDL
