MODEL 1
REMARK VINA RESULT:    -8.226      0.000      0.000
REMARK INTER + INTRA:          -9.921
REMARK INTER:                  -9.669
REMARK INTRA:                  -0.252
REMARK UNBOUND:                -0.252
REMARK  3 active torsions:
REMARK  status: ('A' for Active; 'I' for Inactive)
REMARK    1  A    between atoms: C_9  and  C_12 
REMARK    2  A    between atoms: C_12  and  C_13 
REMARK    3  A    between atoms: C_12  and  C_24 
ROOT
ATOM      1  C   UNK d   1      18.322  34.980  70.567  0.00  0.00     0.063 C 
ENDROOT
BRANCH   1   2
ATOM      2  C   UNK d   1      18.911  33.991  71.482  0.00  0.00     0.182 C 
ATOM      3  C   UNK d   1      18.756  34.051  72.908  0.00  0.00     0.259 C 
ATOM      4  N   UNK d   1      17.627  33.336  73.482  0.00  0.00    -0.188 NA
ATOM      5  O   UNK d   1      19.458  34.634  73.771  0.00  0.00    -0.270 OA
ATOM      6  C   UNK d   1      17.113  32.317  72.870  0.00  0.00     0.174 C 
ATOM      7  S   UNK d   1      15.731  31.230  73.310  0.00  0.00    -0.090 SA
ATOM      8  N   UNK d   1      17.547  31.844  71.614  0.00  0.00    -0.295 N 
ATOM      9  C   UNK d   1      15.475  30.614  71.589  0.00  0.00     0.103 C 
ATOM     10  C   UNK d   1      16.885  30.706  71.099  0.00  0.00     0.144 C 
ATOM     11  C   UNK d   1      18.638  32.581  71.014  0.00  0.00     0.239 C 
ATOM     12  O   UNK d   1      19.332  32.050  70.129  0.00  0.00    -0.272 OA
ENDBRANCH   1   2
BRANCH   1  13
ATOM     13  C   UNK d   1      18.875  36.333  70.424  0.00  0.00     0.182 C 
ATOM     14  C   UNK d   1      20.397  36.200  70.380  0.00  0.00     0.239 C 
ATOM     15  O   UNK d   1      21.038  36.025  71.441  0.00  0.00    -0.272 OA
ATOM     16  N   UNK d   1      21.095  36.275  69.115  0.00  0.00    -0.295 N 
ATOM     17  C   UNK d   1      22.424  35.855  68.834  0.00  0.00     0.144 C 
ATOM     18  C   UNK d   1      20.392  36.848  68.027  0.00  0.00     0.174 C 
ATOM     19  C   UNK d   1      22.572  35.421  67.397  0.00  0.00     0.103 C 
ATOM     20  S   UNK d   1      21.517  36.749  66.645  0.00  0.00    -0.090 SA
ATOM     21  N   UNK d   1      19.202  37.297  68.101  0.00  0.00    -0.188 NA
ATOM     22  C   UNK d   1      18.487  37.234  69.372  0.00  0.00     0.259 C 
ATOM     23  O   UNK d   1      17.528  38.020  69.473  0.00  0.00    -0.270 OA
ENDBRANCH   1  13
BRANCH   1  24
ATOM     24  C   UNK d   1      16.809  34.945  70.576  0.00  0.00    -0.051 A 
ATOM     25  C   UNK d   1      16.087  35.785  71.389  0.00  0.00     0.009 A 
ATOM     26  C   UNK d   1      14.717  35.720  71.374  0.00  0.00     0.019 A 
ATOM     27  C   UNK d   1      14.026  34.856  70.584  0.00  0.00     0.011 A 
ATOM     28  C   UNK d   1      14.719  34.004  69.761  0.00  0.00     0.019 A 
ATOM     29 Br   UNK d   1      12.109  34.773  70.569  0.00  0.00    -0.051 Br
ATOM     30  C   UNK d   1      16.113  34.070  69.777  0.00  0.00     0.009 A 
ENDBRANCH   1  24
TORSDOF 3
ENDMDL
