MODEL 1
REMARK VINA RESULT:    -7.626      0.000      0.000
REMARK INTER + INTRA:          -8.638
REMARK INTER:                  -8.517
REMARK INTRA:                  -0.121
REMARK UNBOUND:                -0.121
REMARK  2 active torsions:
REMARK  status: ('A' for Active; 'I' for Inactive)
REMARK    1  A    between atoms: C_4  and  C_7 
REMARK    2  A    between atoms: C_14  and  C_15 
ROOT
ATOM      1  S   UNK d   1      13.938  31.213  71.298  0.00  0.00    -0.025 SA
ATOM      2  C   UNK d   1      15.412  30.444  71.730  0.00  0.00     0.219 A 
ATOM      3  N   UNK d   1      16.281  31.441  71.569  0.00  0.00    -0.184 N 
ATOM      4  C   UNK d   1      17.493  30.883  71.904  0.00  0.00     0.205 A 
ATOM      5  N   UNK d   1      17.317  29.607  72.244  0.00  0.00    -0.125 NA
ATOM      6  N   UNK d   1      16.040  29.299  72.148  0.00  0.00    -0.120 NA
ATOM      7  N   UNK d   1      15.856  32.576  71.183  0.00  0.00    -0.154 NA
ATOM      8  C   UNK d   1      14.576  32.776  70.942  0.00  0.00     0.153 A 
ENDROOT
BRANCH   8   9
ATOM      9  C   UNK d   1      13.874  33.983  70.495  0.00  0.00     0.133 A 
ATOM     10  N   UNK d   1      12.570  34.093  70.213  0.00  0.00    -0.171 NA
ATOM     11  N   UNK d   1      12.305  35.355  69.838  0.00  0.00    -0.287 N 
ATOM     12  C   UNK d   1      13.447  36.068  69.878  0.00  0.00     0.131 A 
ATOM     13  H   UNK d   1      11.359  35.707  69.563  0.00  0.00     0.188 HD
ATOM     14  C   UNK d   1      14.449  35.190  70.298  0.00  0.00     0.061 A 
ATOM     15 Br   UNK d   1      16.255  35.686  70.522  0.00  0.00    -0.047 Br
ENDBRANCH   8   9
BRANCH   4  16
ATOM     16  C   UNK d   1      18.799  31.573  71.894  0.00  0.00     0.123 A 
ATOM     17  N   UNK d   1      19.601  31.530  70.814  0.00  0.00    -0.254 NA
ATOM     18  C   UNK d   1      20.794  32.165  70.817  0.00  0.00     0.136 A 
ATOM     19  C   UNK d   1      21.203  32.863  71.920  0.00  0.00     0.135 A 
ATOM     20  N   UNK d   1      20.397  32.899  72.983  0.00  0.00    -0.269 NA
ATOM     21  C   UNK d   1      19.200  32.272  73.007  0.00  0.00     0.151 A 
ENDBRANCH   4  16
TORSDOF 2
ENDMDL
