MODEL 1
REMARK VINA RESULT:    -6.827      0.000      0.000
REMARK INTER + INTRA:          -8.120
REMARK INTER:                  -8.024
REMARK INTRA:                  -0.096
REMARK UNBOUND:                -0.096
REMARK  3 active torsions:
REMARK  status: ('A' for Active; 'I' for Inactive)
REMARK    1  A    between atoms: C_6  and  C_13 
REMARK    2  A    between atoms: C_13  and  C_14 
REMARK    3  A    between atoms: C_13  and  C_26 
ROOT
ATOM      1  C   UNK d   1      21.588  35.100  69.964  0.00  0.00     0.063 C 
ENDROOT
BRANCH   1   2
ATOM      2  C   UNK d   1      21.549  34.420  71.303  0.00  0.00     0.184 C 
ATOM      3  C   UNK d   1      21.685  32.915  71.078  0.00  0.00     0.259 C 
ATOM      4  N   UNK d   1      20.598  32.275  70.372  0.00  0.00    -0.186 NA
ATOM      5  O   UNK d   1      22.693  32.353  71.504  0.00  0.00    -0.270 OA
ATOM      6  C   UNK d   1      19.402  32.760  70.465  0.00  0.00     0.200 A 
ATOM      7  S   UNK d   1      17.862  32.226  69.736  0.00  0.00    -0.032 SA
ATOM      8  N   UNK d   1      19.086  33.895  71.241  0.00  0.00    -0.197 N 
ATOM      9  C   UNK d   1      16.868  33.511  70.478  0.00  0.00     0.083 A 
ATOM     10  N   UNK d   1      17.772  34.278  71.244  0.00  0.00    -0.283 N 
ATOM     11  C   UNK d   1      15.558  33.678  70.320  0.00  0.00     0.052 C 
ATOM     12  H   UNK d   1      17.393  35.123  71.804  0.00  0.00     0.188 HD
ATOM     13  C   UNK d   1      20.203  34.506  71.951  0.00  0.00     0.259 C 
ATOM     14  O   UNK d   1      20.004  35.073  73.063  0.00  0.00    -0.270 OA
ENDBRANCH   1   2
BRANCH   1  15
ATOM     15  C   UNK d   1      21.543  36.575  69.946  0.00  0.00     0.184 C 
ATOM     16  C   UNK d   1      20.484  37.235  70.695  0.00  0.00     0.259 C 
ATOM     17  O   UNK d   1      20.737  37.760  71.832  0.00  0.00    -0.270 OA
ATOM     18  N   UNK d   1      19.129  37.321  70.182  0.00  0.00    -0.197 N 
ATOM     19  N   UNK d   1      17.978  37.483  70.883  0.00  0.00    -0.283 N 
ATOM     20  C   UNK d   1      19.016  37.230  68.780  0.00  0.00     0.200 A 
ATOM     21  C   UNK d   1      16.769  37.546  70.145  0.00  0.00     0.083 A 
ATOM     22  H   UNK d   1      17.912  37.570  71.956  0.00  0.00     0.188 HD
ATOM     23  C   UNK d   1      15.534  37.702  70.569  0.00  0.00     0.052 C 
ATOM     24  S   UNK d   1      17.272  37.363  68.436  0.00  0.00    -0.032 SA
ATOM     25  N   UNK d   1      20.016  37.081  67.986  0.00  0.00    -0.186 NA
ATOM     26  C   UNK d   1      21.356  36.995  68.498  0.00  0.00     0.259 C 
ATOM     27  O   UNK d   1      22.376  37.241  67.838  0.00  0.00    -0.270 OA
ENDBRANCH   1  15
BRANCH   1  28
ATOM     28  C   UNK d   1      22.730  34.612  69.139  0.00  0.00    -0.051 A 
ATOM     29  C   UNK d   1      22.520  33.906  67.976  0.00  0.00     0.009 A 
ATOM     30  C   UNK d   1      23.570  33.453  67.211  0.00  0.00     0.019 A 
ATOM     31  C   UNK d   1      24.862  33.709  67.613  0.00  0.00     0.011 A 
ATOM     32  C   UNK d   1      25.119  34.421  68.786  0.00  0.00     0.019 A 
ATOM     33 Br   UNK d   1      26.343  33.093  66.572  0.00  0.00    -0.051 Br
ATOM     34  C   UNK d   1      24.039  34.858  69.525  0.00  0.00     0.009 A 
ENDBRANCH   1  28
TORSDOF 3
ENDMDL
