MODEL 1
REMARK VINA RESULT:    -8.271      0.000      0.000
REMARK INTER + INTRA:         -10.689
REMARK INTER:                 -10.205
REMARK INTRA:                  -0.484
REMARK UNBOUND:                -0.484
REMARK  4 active torsions:
REMARK  status: ('A' for Active; 'I' for Inactive)
REMARK    1  A    between atoms: N_3  and  C_15 
REMARK    2  A    between atoms: C_7  and  C_9 
REMARK    3  A    between atoms: C_15  and  C_16 
REMARK    4  A    between atoms: C_16  and  C_18 
ROOT
ATOM      1  S   UNK d   1      19.210  36.013  70.764  0.00  0.00    -0.063 SA
ATOM      2  C   UNK d   1      18.245  36.998  69.625  0.00  0.00     0.149 A 
ATOM      3  N   UNK d   1      17.086  37.551  69.478  0.00  0.00    -0.352 N 
ATOM      4  C   UNK d   1      16.983  38.231  68.242  0.00  0.00     0.145 A 
ATOM      5  C   UNK d   1      18.310  38.026  67.588  0.00  0.00     0.151 A 
ATOM      6  N   UNK d   1      19.109  37.215  68.537  0.00  0.00    -0.325 N 
ATOM      7  C   UNK d   1      20.386  36.649  68.634  0.00  0.00     0.053 A 
ATOM      8  C   UNK d   1      20.662  35.968  69.723  0.00  0.00     0.083 A 
ENDROOT
BRANCH   3   9
ATOM      9  C   UNK d   1      16.051  37.453  70.523  0.00  0.00     0.208 C 
BRANCH   9  10
ATOM     10  C   UNK d   1      14.954  36.636  69.966  0.00  0.00     0.177 C 
ATOM     11  O   UNK d   1      14.150  37.107  69.137  0.00  0.00    -0.291 OA
BRANCH  10  12
ATOM     12  C   UNK d   1      14.792  35.250  70.383  0.00  0.00     0.011 A 
ATOM     13  C   UNK d   1      13.708  34.489  69.941  0.00  0.00     0.016 A 
ATOM     14  C   UNK d   1      13.526  33.174  70.328  0.00  0.00     0.020 A 
ATOM     15  C   UNK d   1      14.455  32.625  71.172  0.00  0.00     0.011 A 
ATOM     16  C   UNK d   1      15.546  33.337  71.636  0.00  0.00     0.020 A 
ATOM     17 Br   UNK d   1      14.193  30.800  71.701  0.00  0.00    -0.051 Br
ATOM     18  C   UNK d   1      15.708  34.664  71.231  0.00  0.00     0.016 A 
ENDBRANCH  10  12
ENDBRANCH   9  10
ENDBRANCH   3   9
BRANCH   7  19
ATOM     19  C   UNK d   1      21.454  36.780  67.589  0.00  0.00    -0.009 A 
ATOM     20  C   UNK d   1      22.103  35.677  67.083  0.00  0.00     0.014 A 
ATOM     21  C   UNK d   1      23.093  35.741  66.125  0.00  0.00     0.001 A 
ATOM     22  C   UNK d   1      23.485  36.959  65.621  0.00  0.00     0.000 A 
ATOM     23  C   UNK d   1      22.855  38.070  66.108  0.00  0.00     0.001 A 
ATOM     24  C   UNK d   1      21.846  37.993  67.086  0.00  0.00     0.014 A 
ENDBRANCH   7  19
TORSDOF 4
ENDMDL
