MODEL 1
REMARK VINA RESULT:    -9.092      0.000      0.000
REMARK INTER + INTRA:         -10.007
REMARK INTER:                 -10.155
REMARK INTRA:                   0.148
REMARK UNBOUND:                 0.148
REMARK  2 active torsions:
REMARK  status: ('A' for Active; 'I' for Inactive)
REMARK    1  A    between atoms: C_3  and  C_8 
REMARK       I    between atoms: N_12  and  C_14 
REMARK    2  A    between atoms: C_14  and  C_16 
ROOT
ATOM      1  C   UNK d   1      16.943  37.411  70.236  0.00  0.00     0.273 C 
ATOM      2  N   UNK d   1      16.472  37.756  68.901  0.00  0.00     0.095 NA
ATOM      3  C   UNK d   1      17.395  38.023  67.901  0.00  0.00     0.290 C 
ATOM      4  C   UNK d   1      18.781  37.418  67.988  0.00  0.00     0.155 C 
ATOM      5  N   UNK d   1      19.198  37.157  69.296  0.00  0.00    -0.355 N 
ATOM      6  C   UNK d   1      18.380  37.617  70.378  0.00  0.00     0.165 C 
ATOM      7  C   UNK d   1      20.375  36.464  69.680  0.00  0.00     0.189 C 
ATOM      8  O   UNK d   1      20.570  36.512  70.977  0.00  0.00    -0.171 OA
ATOM      9  H   UNK d   1      15.715  37.107  68.605  0.00  0.00     0.316 HD
ENDROOT
BRANCH   7  10
ATOM     10  C   UNK d   1      21.357  35.738  68.958  0.00  0.00     0.038 A 
ATOM     11  C   UNK d   1      21.479  34.356  69.242  0.00  0.00     0.135 A 
ATOM     12  N   UNK d   1      22.280  33.572  68.520  0.00  0.00    -0.234 NA
ATOM     13  C   UNK d   1      23.000  34.047  67.503  0.00  0.00     0.192 A 
ATOM     14  C   UNK d   1      22.924  35.375  67.181  0.00  0.00     0.089 A 
ATOM     15  O   UNK d   1      23.838  33.209  66.759  0.00  0.00    -0.323 OA
ATOM     16  C   UNK d   1      22.099  36.229  67.911  0.00  0.00     0.051 A 
ATOM     17  N   UNK d   1      23.665  35.889  66.070  0.00  0.00    -0.322 N 
ATOM     18  C   UNK d   1      24.477  34.987  65.317  0.00  0.00     0.246 C 
ATOM     19  H   UNK d   1      23.621  36.883  65.801  0.00  0.00     0.169 HD
ATOM     20  O   UNK d   1      24.816  35.168  64.130  0.00  0.00    -0.271 OA
ATOM     21  C   UNK d   1      24.942  33.748  66.013  0.00  0.00     0.280 C 
ENDBRANCH   7  10
BRANCH   1  22
ATOM     22  C   UNK d   1      16.503  35.984  70.432  0.00  0.00    -0.002 A 
ATOM     23  C   UNK d   1      15.133  35.704  70.306  0.00  0.00     0.042 A 
ATOM     24 Cl   UNK d   1      14.040  37.087  70.086  0.00  0.00    -0.084 Cl
ATOM     25  C   UNK d   1      14.618  34.427  70.348  0.00  0.00     0.024 A 
ATOM     26  C   UNK d   1      15.485  33.354  70.525  0.00  0.00     0.002 A 
ATOM     27  C   UNK d   1      16.835  33.632  70.649  0.00  0.00     0.001 A 
ATOM     28  C   UNK d   1      17.339  34.920  70.604  0.00  0.00     0.011 A 
ENDBRANCH   1  22
TORSDOF 2
ENDMDL
