/Users/jonathanwahrer/Desktop/Msc/3_Semester/Drug_Design_Praktikum/waehrer_HTS_screening/HTS_experiment/out/docking_results/vina_output/4x21/1271_docked.pdbqt
 OpenBabel03212202163D

 35 38  0  0  0  0  0  0  0  0999 V2000
   18.9020   32.1310   72.0110 C   0  0  0  0  0  0  0  0  0  0  0  0
   19.2110   30.8350   72.1540 N   0  0  0  0  0  0  0  0  0  0  0  0
   18.0780   30.1850   72.2060 N   0  0  0  0  0  0  0  0  0  0  0  0
   17.0520   31.0260   72.1020 N   0  0  0  0  0  0  0  0  0  0  0  0
   17.5060   32.2640   71.9770 C   0  0  0  0  0  0  0  0  0  0  0  0
   19.8830   33.1950   71.9000 C   0  0  0  0  0  0  0  0  0  0  0  0
   20.3740   33.6520   70.6550 N   0  0  0  0  0  0  0  0  0  0  0  0
   20.0580   33.2380   69.7370 H   0  0  0  0  0  0  0  0  0  0  0  0
   20.3060   33.7270   72.9520 O   0  0  0  0  0  0  0  0  0  0  0  0
   21.3120   34.6810   70.5590 N   0  0  0  0  0  0  0  0  0  0  0  0
   22.3380   34.5610   70.5990 H   0  0  0  0  0  0  0  0  0  0  0  0
   20.8250   36.0290   70.3900 C   0  0  0  0  0  0  0  0  0  0  0  0
   20.7380   36.8000   71.4440 C   0  0  0  0  0  2  0  0  0  0  0  0
   20.4390   36.4630   69.0620 C   0  0  0  0  0  0  0  0  0  0  0  0
   19.2740   37.2070   68.8800 C   0  0  0  0  0  3  0  0  0  0  0  0
   18.9040   37.6380   67.6300 C   0  0  0  0  0  0  0  0  0  0  0  0
   17.3160   38.6520   67.3700 Br  0  0  0  0  0  0  0  0  0  0  0  0
   19.6660   37.3520   66.5100 C   0  0  0  0  0  3  0  0  0  0  0  0
   20.8060   36.6260   66.6740 C   0  0  0  0  0  3  0  0  0  0  0  0
   21.1770   36.1920   67.9470 C   0  0  0  0  0  3  0  0  0  0  0  0
   16.8510   33.5480   71.8730 C   0  0  0  0  0  2  0  0  0  0  0  0
   16.7120   34.0920   70.5360 N   0  0  0  0  0  0  0  0  0  0  0  0
   15.3710   33.8460   70.0150 C   0  0  0  0  0  2  0  0  0  0  0  0
   14.3000   34.2110   71.0180 C   0  0  0  0  0  2  0  0  0  0  0  0
   14.4480   35.6660   71.4280 C   0  0  0  0  0  2  0  0  0  0  0  0
   15.5890   36.3150   70.6980 C   0  0  0  0  0  2  0  0  0  0  0  0
   16.8440   35.5450   70.5890 C   0  0  0  0  0  2  0  0  0  0  0  0
   15.6980   30.6200   72.1500 C   0  0  0  0  0  0  0  0  0  0  0  0
   14.8800   30.6350   71.0610 N   0  0  0  0  0  0  0  0  0  0  0  0
   13.7150   30.2120   71.4410 O   0  0  0  0  0  0  0  0  0  0  0  0
   13.7040   29.9240   72.6920 N   0  0  0  0  0  0  0  0  0  0  0  0
   14.9290   30.1650   73.1810 C   0  0  0  0  0  0  0  0  0  0  0  0
   15.3700   29.9910   74.5010 N   0  0  0  0  0  0  0  0  0  0  0  0
   15.9890   29.2250   74.8460 H   0  0  0  0  0  0  0  0  0  0  0  0
   15.0640   30.6780   75.2240 H   0  0  0  0  0  0  0  0  0  0  0  0
  1  2  1  0  0  0  0
  2  3  2  0  0  0  0
  4 28  1  0  0  0  0
  4  3  1  0  0  0  0
  5  1  2  0  0  0  0
  5  4  1  0  0  0  0
  6  1  1  0  0  0  0
  6  9  2  0  0  0  0
  7  6  1  0  0  0  0
  8  7  1  0  0  0  0
 10 11  1  0  0  0  0
 10  7  1  0  0  0  0
 12 10  1  0  0  0  0
 12 13  2  0  0  0  0
 14 12  1  0  0  0  0
 15 14  1  0  0  0  0
 16 15  2  0  0  0  0
 17 16  1  0  0  0  0
 18 19  2  0  0  0  0
 18 16  1  0  0  0  0
 19 20  1  0  0  0  0
 20 14  2  0  0  0  0
 21  5  1  0  0  0  0
 22 27  1  0  0  0  0
 22 21  1  0  0  0  0
 23 22  1  0  0  0  0
 23 24  1  0  0  0  0
 24 25  1  0  0  0  0
 26 25  1  0  0  0  0
 27 26  1  0  0  0  0
 28 32  1  0  0  0  0
 29 30  1  0  0  0  0
 29 28  2  0  0  0  0
 30 31  1  0  0  0  0
 31 32  2  0  0  0  0
 32 33  1  0  0  0  0
 33 34  1  0  0  0  0
 33 35  1  0  0  0  0
M  END
>  <Pose>
1

>  <Score>
-8.746

$$$$
