MODEL 1
REMARK VINA RESULT:    -8.746      0.000      0.000
REMARK INTER + INTRA:         -14.329
REMARK INTER:                 -12.580
REMARK INTRA:                  -1.749
REMARK UNBOUND:                -1.749
REMARK  8 active torsions:
REMARK  status: ('A' for Active; 'I' for Inactive)
REMARK    1  A    between atoms: C_4  and  C_8 
REMARK    2  A    between atoms: C_8  and  N_10 
REMARK    3  A    between atoms: N_10  and  N_11 
REMARK       I    between atoms: N_11  and  C_12 
REMARK    4  A    between atoms: C_12  and  C_14 
REMARK    5  A    between atoms: N_17  and  C_26 
REMARK    6  A    between atoms: C_18  and  C_19 
REMARK    7  A    between atoms: C_19  and  N_20 
REMARK    8  A    between atoms: C_30  and  N_31 
ROOT
ATOM      1  C   UNK d   1      18.902  32.131  72.011  0.00  0.00     0.176 A 
ATOM      2  N   UNK d   1      19.211  30.835  72.154  0.00  0.00    -0.124 NA
ATOM      3  N   UNK d   1      18.078  30.185  72.206  0.00  0.00    -0.058 NA
ATOM      4  N   UNK d   1      17.052  31.026  72.102  0.00  0.00    -0.191 N 
ATOM      5  C   UNK d   1      17.506  32.264  71.977  0.00  0.00     0.104 A 
ENDROOT
BRANCH   1   6
ATOM      6  C   UNK d   1      19.883  33.195  71.900  0.00  0.00     0.292 C 
ATOM      7  N   UNK d   1      20.374  33.652  70.655  0.00  0.00    -0.264 N 
ATOM      8  H   UNK d   1      20.058  33.238  69.737  0.00  0.00     0.190 HD
ATOM      9  O   UNK d   1      20.306  33.727  72.952  0.00  0.00    -0.264 OA
BRANCH   7  10
ATOM     10  N   UNK d   1      21.312  34.681  70.559  0.00  0.00    -0.298 N 
ATOM     11  H   UNK d   1      22.338  34.561  70.599  0.00  0.00     0.187 HD
BRANCH  10  12
ATOM     12  C   UNK d   1      20.825  36.029  70.390  0.00  0.00     0.049 C 
ATOM     13  C   UNK d   1      20.738  36.800  71.444  0.00  0.00     0.045 C 
BRANCH  12  14
ATOM     14  C   UNK d   1      20.439  36.463  69.062  0.00  0.00    -0.008 A 
ATOM     15  C   UNK d   1      19.274  37.207  68.880  0.00  0.00     0.032 A 
ATOM     16  C   UNK d   1      18.904  37.638  67.630  0.00  0.00     0.011 A 
ATOM     17 Br   UNK d   1      17.316  38.652  67.370  0.00  0.00    -0.051 Br
ATOM     18  C   UNK d   1      19.666  37.352  66.510  0.00  0.00     0.019 A 
ATOM     19  C   UNK d   1      20.806  36.626  66.674  0.00  0.00     0.002 A 
ATOM     20  C   UNK d   1      21.177  36.192  67.947  0.00  0.00     0.014 A 
ENDBRANCH  12  14
ENDBRANCH  10  12
ENDBRANCH   7  10
ENDBRANCH   1   6
BRANCH   5  21
ATOM     21  C   UNK d   1      16.851  33.548  71.873  0.00  0.00     0.334 C 
BRANCH  21  22
ATOM     22  N   UNK d   1      16.712  34.092  70.536  0.00  0.00     0.094 NA
ATOM     23  C   UNK d   1      15.371  33.846  70.015  0.00  0.00     0.273 C 
ATOM     24  C   UNK d   1      14.300  34.211  71.018  0.00  0.00     0.030 C 
ATOM     25  C   UNK d   1      14.448  35.666  71.428  0.00  0.00     0.003 C 
ATOM     26  C   UNK d   1      15.589  36.315  70.698  0.00  0.00     0.030 C 
ATOM     27  C   UNK d   1      16.844  35.545  70.589  0.00  0.00     0.273 C 
ENDBRANCH  21  22
ENDBRANCH   5  21
BRANCH   4  28
ATOM     28  C   UNK d   1      15.698  30.620  72.150  0.00  0.00     0.229 A 
ATOM     29  N   UNK d   1      14.880  30.635  71.061  0.00  0.00    -0.081 NA
ATOM     30  O   UNK d   1      13.715  30.212  71.441  0.00  0.00    -0.103 OA
ATOM     31  N   UNK d   1      13.704  29.924  72.692  0.00  0.00    -0.083 NA
ATOM     32  C   UNK d   1      14.929  30.165  73.181  0.00  0.00     0.201 A 
BRANCH  32  33
ATOM     33  N   UNK d   1      15.370  29.991  74.501  0.00  0.00    -0.379 N 
ATOM     34  H   UNK d   1      15.989  29.225  74.846  0.00  0.00     0.158 HD
ATOM     35  H   UNK d   1      15.064  30.678  75.224  0.00  0.00     0.158 HD
ENDBRANCH  32  33
ENDBRANCH   4  28
TORSDOF 8
ENDMDL
