MODEL 1
REMARK VINA RESULT:    -8.573      0.000      0.000
REMARK INTER + INTRA:         -13.988
REMARK INTER:                 -12.081
REMARK INTRA:                  -1.907
REMARK UNBOUND:                -1.907
REMARK  7 active torsions:
REMARK  status: ('A' for Active; 'I' for Inactive)
REMARK    1  A    between atoms: C_4  and  C_8 
REMARK    2  A    between atoms: N_9  and  C_26 
REMARK    3  A    between atoms: C_15  and  C_17 
REMARK    4  A    between atoms: C_20  and  O_23 
REMARK    5  A    between atoms: C_26  and  C_27 
REMARK    6  A    between atoms: C_27  and  C_28 
REMARK    7  A    between atoms: C_28  and  N_29 
ROOT
ATOM      1  C   UNK d   1      15.482  32.830  72.659  0.00  0.00     0.161 C 
ATOM      2  N   UNK d   1      14.896  31.512  72.511  0.00  0.00    -0.332 N 
ATOM      3  C   UNK d   1      15.553  30.889  71.421  0.00  0.00     0.295 C 
ATOM      4  O   UNK d   1      15.074  30.000  70.709  0.00  0.00    -0.264 OA
ATOM      5  C   UNK d   1      16.886  31.511  71.326  0.00  0.00     0.250 C 
ATOM      6  O   UNK d   1      17.797  31.250  70.503  0.00  0.00    -0.282 OA
ATOM      7  C   UNK d   1      16.922  32.496  72.399  0.00  0.00     0.062 C 
ATOM      8  C   UNK d   1      18.017  32.936  73.003  0.00  0.00     0.130 C 
ATOM      9  O   UNK d   1      17.802  33.859  74.054  0.00  0.00    -0.190 OA
ENDROOT
BRANCH   1  10
ATOM     10  C   UNK d   1      14.905  33.760  71.677  0.00  0.00    -0.029 A 
ATOM     11  C   UNK d   1      15.584  34.921  71.334  0.00  0.00     0.028 A 
ATOM     12  C   UNK d   1      15.072  35.813  70.386  0.00  0.00     0.011 A 
ATOM     13 Br   UNK d   1      16.039  37.411  69.935  0.00  0.00    -0.051 Br
ATOM     14  C   UNK d   1      13.874  35.553  69.771  0.00  0.00     0.019 A 
ATOM     15  C   UNK d   1      13.191  34.407  70.100  0.00  0.00     0.002 A 
ATOM     16  C   UNK d   1      13.715  33.533  71.043  0.00  0.00     0.009 A 
ENDBRANCH   1  10
BRANCH   8  17
ATOM     17  C   UNK d   1      19.370  32.524  72.644  0.00  0.00     0.007 A 
ATOM     18  C   UNK d   1      20.154  33.162  71.730  0.00  0.00    -0.046 A 
ATOM     19  C   UNK d   1      21.430  32.668  71.407  0.00  0.00     0.044 A 
ATOM     20  C   UNK d   1      19.694  34.419  71.094  0.00  0.00     0.049 C 
ATOM     21  C   UNK d   1      21.950  31.539  71.981  0.00  0.00     0.068 A 
ATOM     22  C   UNK d   1      21.159  30.893  72.907  0.00  0.00     0.037 A 
ATOM     23  C   UNK d   1      19.914  31.366  73.230  0.00  0.00     0.017 A 
BRANCH  21  24
ATOM     24  O   UNK d   1      23.215  31.045  71.665  0.00  0.00    -0.356 OA
ATOM     25  C   UNK d   1      24.013  31.684  70.701  0.00  0.00     0.210 C 
ENDBRANCH  21  24
ENDBRANCH   8  17
BRANCH   2  26
ATOM     26  C   UNK d   1      13.836  30.991  73.348  0.00  0.00     0.129 C 
BRANCH  26  27
ATOM     27  C   UNK d   1      14.328  30.190  74.512  0.00  0.00     0.048 C 
BRANCH  27  28
ATOM     28  C   UNK d   1      14.220  28.719  74.379  0.00  0.00     0.236 C 
BRANCH  28  29
ATOM     29  N   UNK d   1      15.330  28.072  73.775  0.00  0.00    -0.067 N 
ATOM     30  C   UNK d   1      16.631  28.625  74.187  0.00  0.00     0.261 C 
ATOM     31  C   UNK d   1      17.602  28.241  73.068  0.00  0.00     0.195 C 
ATOM     32  O   UNK d   1      17.061  27.301  72.210  0.00  0.00    -0.388 OA
ATOM     33  C   UNK d   1      16.540  26.219  72.919  0.00  0.00     0.195 C 
ATOM     34  C   UNK d   1      15.430  26.663  73.889  0.00  0.00     0.261 C 
ATOM     35  H   UNK d   1      15.278  28.287  72.733  0.00  0.00     0.280 HD
ENDBRANCH  28  29
ENDBRANCH  27  28
ENDBRANCH  26  27
ENDBRANCH   2  26
TORSDOF 7
ENDMDL
