MODEL 1
REMARK VINA RESULT:    -9.008      0.000      0.000
REMARK INTER + INTRA:          -9.662
REMARK INTER:                  -9.534
REMARK INTRA:                  -0.128
REMARK UNBOUND:                -0.128
REMARK  1 active torsions:
REMARK  status: ('A' for Active; 'I' for Inactive)
REMARK    1  A    between atoms: C_5  and  C_8 
ROOT
ATOM      1  C   UNK d   1      15.709  34.005  71.836  0.00  0.00     0.102 A 
ATOM      2  C   UNK d   1      16.839  34.787  71.382  0.00  0.00     0.068 A 
ATOM      3  C   UNK d   1      16.710  35.697  70.372  0.00  0.00     0.124 A 
ATOM      4  N   UNK d   1      15.456  35.946  69.725  0.00  0.00    -0.343 N 
ATOM      5  C   UNK d   1      14.352  35.188  70.200  0.00  0.00     0.048 A 
ATOM      6  C   UNK d   1      14.447  34.316  71.165  0.00  0.00     0.055 A 
ATOM      7  C   UNK d   1      13.093  33.738  71.425  0.00  0.00     0.292 A 
ATOM      8  O   UNK d   1      12.878  32.859  72.314  0.00  0.00    -0.259 OA
ATOM      9  O   UNK d   1      12.253  34.344  70.549  0.00  0.00    -0.312 OA
ATOM     10  C   UNK d   1      12.914  35.231  69.713  0.00  0.00     0.237 A 
ATOM     11  N   UNK d   1      17.809  36.411  69.963  0.00  0.00    -0.289 N 
ATOM     12  C   UNK d   1      18.998  36.222  70.544  0.00  0.00     0.332 A 
ATOM     13  O   UNK d   1      19.997  36.890  70.151  0.00  0.00    -0.246 OA
ATOM     14  N   UNK d   1      19.115  35.325  71.537  0.00  0.00    -0.270 N 
ATOM     15  C   UNK d   1      18.100  34.593  71.992  0.00  0.00     0.262 A 
ATOM     16  O   UNK d   1      18.199  33.753  72.920  0.00  0.00    -0.267 OA
ATOM     17  C   UNK d   1      20.436  35.153  72.142  0.00  0.00     0.164 C 
ATOM     18  C   UNK d   1      17.607  37.364  68.881  0.00  0.00     0.163 C 
ATOM     19  H   UNK d   1      15.402  36.644  68.961  0.00  0.00     0.167 HD
ENDROOT
BRANCH   1  20
ATOM     20  C   UNK d   1      15.944  32.571  71.977  0.00  0.00    -0.045 A 
ATOM     21  C   UNK d   1      16.331  31.789  70.930  0.00  0.00     0.009 A 
ATOM     22  C   UNK d   1      16.545  30.409  71.096  0.00  0.00     0.019 A 
ATOM     23  C   UNK d   1      16.362  29.841  72.330  0.00  0.00     0.011 A 
ATOM     24 Br   UNK d   1      16.642  27.958  72.605  0.00  0.00    -0.051 Br
ATOM     25  C   UNK d   1      15.974  30.614  73.386  0.00  0.00     0.019 A 
ATOM     26  C   UNK d   1      15.763  31.992  73.207  0.00  0.00     0.009 A 
ENDBRANCH   1  20
TORSDOF 1
ENDMDL
