/Users/jonathanwahrer/Desktop/Msc/3_Semester/Drug_Design_Praktikum/waehrer_HTS_screening/HTS_experiment/out/docking_results/vina_output/4x21/1295_docked.pdbqt
 OpenBabel03212202173D

 26 29  0  0  1  0  0  0  0  0999 V2000
   15.7090   34.0050   71.8360 C   0  0  0  0  0  0  0  0  0  0  0  0
   16.8390   34.7870   71.3820 C   0  0  0  0  0  0  0  0  0  0  0  0
   16.7100   35.6970   70.3720 C   0  0  1  0  0  3  0  0  0  0  0  0
   15.4560   35.9460   69.7250 N   0  0  0  0  0  0  0  0  0  0  0  0
   14.3520   35.1880   70.2000 C   0  0  0  0  0  0  0  0  0  0  0  0
   14.4470   34.3160   71.1650 C   0  0  0  0  0  0  0  0  0  0  0  0
   13.0930   33.7380   71.4250 C   0  0  0  0  0  0  0  0  0  0  0  0
   12.8780   32.8590   72.3140 O   0  0  0  0  0  0  0  0  0  0  0  0
   12.2530   34.3440   70.5490 O   0  0  0  0  0  0  0  0  0  0  0  0
   12.9140   35.2310   69.7130 C   0  0  0  0  0  2  0  0  0  0  0  0
   17.8090   36.4110   69.9630 N   0  0  0  0  0  0  0  0  0  0  0  0
   18.9980   36.2220   70.5440 C   0  0  0  0  0  0  0  0  0  0  0  0
   19.9970   36.8900   70.1510 O   0  0  0  0  0  0  0  0  0  0  0  0
   19.1150   35.3250   71.5370 N   0  0  0  0  0  0  0  0  0  0  0  0
   18.1000   34.5930   71.9920 C   0  0  0  0  0  0  0  0  0  0  0  0
   18.1990   33.7530   72.9200 O   0  0  0  0  0  0  0  0  0  0  0  0
   20.4360   35.1530   72.1420 C   0  0  0  0  0  1  0  0  0  0  0  0
   17.6070   37.3640   68.8810 C   0  0  0  0  0  1  0  0  0  0  0  0
   15.4020   36.6440   68.9610 H   0  0  0  0  0  0  0  0  0  0  0  0
   15.9440   32.5710   71.9770 C   0  0  0  0  0  0  0  0  0  0  0  0
   16.3310   31.7890   70.9300 C   0  0  0  0  0  3  0  0  0  0  0  0
   16.5450   30.4090   71.0960 C   0  0  0  0  0  3  0  0  0  0  0  0
   16.3620   29.8410   72.3300 C   0  0  0  0  0  0  0  0  0  0  0  0
   16.6420   27.9580   72.6050 Br  0  0  0  0  0  0  0  0  0  0  0  0
   15.9740   30.6140   73.3860 C   0  0  0  0  0  3  0  0  0  0  0  0
   15.7630   31.9920   73.2070 C   0  0  0  0  0  3  0  0  0  0  0  0
  1 20  1  0  0  0  0
  2  1  2  0  0  0  0
  2 15  1  0  0  0  0
  3  2  1  1  0  0  0
  4  5  1  0  0  0  0
  4  3  1  0  0  0  0
  5  6  2  0  0  0  0
  6  7  1  0  0  0  0
  6  1  1  0  0  0  0
  7  8  2  0  0  0  0
  9  7  1  0  0  0  0
 10  5  1  0  0  0  0
 10  9  1  0  0  0  0
 11  3  1  0  0  0  0
 11 12  1  0  0  0  0
 12 14  1  0  0  0  0
 13 12  2  0  0  0  0
 14 15  1  0  0  0  0
 14 17  1  0  0  0  0
 15 16  2  0  0  0  0
 18 11  1  0  0  0  0
 19  4  1  0  0  0  0
 20 26  1  0  0  0  0
 21 22  1  0  0  0  0
 21 20  2  0  0  0  0
 22 23  2  0  0  0  0
 23 24  1  0  0  0  0
 23 25  1  0  0  0  0
 26 25  2  0  0  0  0
M  END
>  <Pose>
1

>  <Score>
-9.008

$$$$
