/Users/jonathanwahrer/Desktop/Msc/3_Semester/Drug_Design_Praktikum/waehrer_HTS_screening/HTS_experiment/out/docking_results/vina_output/4x21/1299_docked.pdbqt
 OpenBabel03212202173D

 36 39  0  0  0  0  0  0  0  0999 V2000
   23.4390   36.1170   67.0850 C   0  0  0  0  0  0  0  0  0  0  0  0
   23.5190   37.3010   66.3980 N   0  0  0  0  0  0  0  0  0  0  0  0
   24.7220   37.3200   65.8640 N   0  0  0  0  0  0  0  0  0  0  0  0
   25.3950   36.2550   66.1550 N   0  0  0  0  0  0  0  0  0  0  0  0
   24.6240   35.4470   66.9370 C   0  0  0  0  0  0  0  0  0  0  0  0
   22.2250   35.7630   67.8100 C   0  0  0  0  0  0  0  0  0  0  0  0
   21.7650   36.3290   69.0210 N   0  0  0  0  0  0  0  0  0  0  0  0
   22.2380   37.0850   69.5640 H   0  0  0  0  0  0  0  0  0  0  0  0
   21.4540   34.8420   67.3410 O   0  0  0  0  0  0  0  0  0  0  0  0
   20.5330   35.8090   69.5420 N   0  0  0  0  0  0  0  0  0  0  0  0
   19.5480   36.5720   69.8160 C   0  0  0  0  0  3  0  0  0  0  0  0
   18.2860   36.0380   70.3500 C   0  0  0  0  0  0  0  0  0  0  0  0
   17.0870   36.5600   69.9770 C   0  0  0  0  0  3  0  0  0  0  0  0
   15.9010   36.0570   70.4800 C   0  0  0  0  0  0  0  0  0  0  0  0
   15.8940   35.0150   71.3720 C   0  0  0  0  0  0  0  0  0  0  0  0
   14.2110   36.8040   69.9450 Br  0  0  0  0  0  0  0  0  0  0  0  0
   17.1090   34.4820   71.7530 C   0  0  0  0  0  0  0  0  0  0  0  0
   17.1110   33.0320   72.9930 Br  0  0  0  0  0  0  0  0  0  0  0  0
   18.2870   34.9910   71.2450 C   0  0  0  0  0  3  0  0  0  0  0  0
   14.6840   34.5370   71.8540 O   0  0  0  0  0  0  0  0  0  0  0  0
   13.8340   34.5440   71.3180 H   0  0  0  0  0  0  0  0  0  0  0  0
   22.5180   38.2930   66.2890 C   0  0  0  0  0  0  0  0  0  0  0  0
   21.1990   38.2290   66.5990 N   0  0  0  0  0  0  0  0  0  0  0  0
   20.6550   39.3640   66.3430 O   0  0  0  0  0  0  0  0  0  0  0  0
   21.5030   40.2230   65.8740 N   0  0  0  0  0  0  0  0  0  0  0  0
   22.7010   39.5820   65.8230 C   0  0  0  0  0  0  0  0  0  0  0  0
   23.9050   40.1730   65.3650 N   0  0  0  0  0  0  0  0  0  0  0  0
   24.0410   40.2720   64.3420 H   0  0  0  0  0  0  0  0  0  0  0  0
   24.6570   40.5150   65.9910 H   0  0  0  0  0  0  0  0  0  0  0  0
   24.9690   34.1490   67.5140 C   0  0  0  0  0  2  0  0  0  0  0  0
   25.3240   34.2010   68.9240 N   0  0  0  0  0  0  0  0  0  0  0  0
   24.3920   33.3990   69.7070 C   0  0  0  0  0  2  0  0  0  0  0  0
   24.8730   31.9850   69.8710 C   0  0  0  0  0  2  0  0  0  0  0  0
   25.7710   31.5780   68.9030 O   0  0  0  0  0  0  0  0  0  0  0  0
   26.9210   32.3490   68.8230 C   0  0  0  0  0  2  0  0  0  0  0  0
   26.6810   33.7890   69.1850 C   0  0  0  0  0  2  0  0  0  0  0  0
  1  6  1  0  0  0  0
  2  1  1  0  0  0  0
  3  4  2  0  0  0  0
  3  2  1  0  0  0  0
  4  5  1  0  0  0  0
  5  1  2  0  0  0  0
  5 30  1  0  0  0  0
  6  7  1  0  0  0  0
  7 10  1  0  0  0  0
  7  8  1  0  0  0  0
  9  6  2  0  0  0  0
 10 11  2  0  0  0  0
 11 12  1  0  0  0  0
 12 19  1  0  0  0  0
 13 12  2  0  0  0  0
 13 14  1  0  0  0  0
 14 15  2  0  0  0  0
 15 17  1  0  0  0  0
 15 20  1  0  0  0  0
 16 14  1  0  0  0  0
 17 18  1  0  0  0  0
 19 17  2  0  0  0  0
 21 20  1  0  0  0  0
 22  2  1  0  0  0  0
 22 23  2  0  0  0  0
 24 23  1  0  0  0  0
 25 24  1  0  0  0  0
 26 25  2  0  0  0  0
 26 22  1  0  0  0  0
 27 26  1  0  0  0  0
 27 29  1  0  0  0  0
 28 27  1  0  0  0  0
 30 31  1  0  0  0  0
 31 36  1  0  0  0  0
 31 32  1  0  0  0  0
 32 33  1  0  0  0  0
 34 33  1  0  0  0  0
 35 34  1  0  0  0  0
 35 36  1  0  0  0  0
M  END
>  <Pose>
1

>  <Score>
-8.135

$$$$
