MODEL 1
REMARK VINA RESULT:    -7.305      0.000      0.000
REMARK INTER + INTRA:          -8.700
REMARK INTER:                  -8.160
REMARK INTRA:                  -0.540
REMARK UNBOUND:                -0.540
REMARK  2 active torsions:
REMARK  status: ('A' for Active; 'I' for Inactive)
REMARK    1  A    between atoms: C_3  and  N_11 
REMARK    2  A    between atoms: C_6  and  N_8 
ROOT
ATOM      1  N   UNK d   1      17.984  33.019  71.778  0.00  0.00    -0.250 N 
ATOM      2  C   UNK d   1      17.694  31.792  71.134  0.00  0.00     0.239 C 
ATOM      3  O   UNK d   1      18.365  31.248  70.233  0.00  0.00    -0.272 OA
ATOM      4  C   UNK d   1      16.449  31.206  71.675  0.00  0.00     0.127 C 
ATOM      5  C   UNK d   1      15.330  31.632  70.749  0.00  0.00     0.159 C 
ATOM      6  O   UNK d   1      15.208  32.996  71.127  0.00  0.00    -0.371 OA
ATOM      7  C   UNK d   1      14.885  32.750  72.488  0.00  0.00     0.159 C 
ATOM      8  C   UNK d   1      16.130  32.024  72.923  0.00  0.00     0.127 C 
ATOM      9  C   UNK d   1      17.235  33.007  72.996  0.00  0.00     0.239 C 
ATOM     10  O   UNK d   1      17.489  33.746  74.002  0.00  0.00    -0.272 OA
ATOM     11  C   UNK d   1      13.735  31.838  72.311  0.00  0.00     0.004 C 
ATOM     12  C   UNK d   1      14.027  31.113  71.235  0.00  0.00     0.004 C 
ENDROOT
BRANCH   1  13
ATOM     13  C   UNK d   1      18.822  34.096  71.389  0.00  0.00     0.062 A 
ATOM     14  C   UNK d   1      20.178  34.078  71.623  0.00  0.00     0.040 A 
ATOM     15 Br   UNK d   1      20.880  32.519  72.488  0.00  0.00    -0.049 Br
ATOM     16  C   UNK d   1      21.021  35.124  71.258  0.00  0.00     0.057 A 
ATOM     17  C   UNK d   1      20.516  36.247  70.632  0.00  0.00     0.104 A 
ATOM     18  C   UNK d   1      19.151  36.267  70.397  0.00  0.00     0.038 A 
ATOM     19  C   UNK d   1      18.318  35.234  70.757  0.00  0.00     0.034 A 
BRANCH  17  20
ATOM     20  N   UNK d   1      21.352  37.332  70.250  0.00  0.00    -0.116 N 
ATOM     21  O   UNK d   1      21.341  37.693  69.060  0.00  0.00    -0.532 OA
ATOM     22  O   UNK d   1      22.173  38.011  71.108  0.00  0.00    -0.532 OA
ENDBRANCH  17  20
ENDBRANCH   1  13
TORSDOF 2
ENDMDL
