MODEL 1
REMARK VINA RESULT:    -8.623      0.000      0.000
REMARK INTER + INTRA:         -10.107
REMARK INTER:                  -9.884
REMARK INTRA:                  -0.223
REMARK UNBOUND:                -0.223
REMARK  3 active torsions:
REMARK  status: ('A' for Active; 'I' for Inactive)
REMARK    1  A    between atoms: C_6  and  N_8 
REMARK    2  A    between atoms: C_12  and  C_21 
REMARK    3  A    between atoms: C_21  and  O_22 
ROOT
ATOM      1  N   UNK d   1      19.737  36.058  70.379  0.00  0.00    -0.252 N 
ATOM      2  C   UNK d   1      20.395  35.247  71.346  0.00  0.00     0.239 C 
ATOM      3  O   UNK d   1      20.019  34.998  72.512  0.00  0.00    -0.272 OA
ATOM      4  C   UNK d   1      21.657  34.702  70.760  0.00  0.00     0.136 C 
ATOM      5  C   UNK d   1      21.429  33.425  70.023  0.00  0.00     0.114 C 
ATOM      6  O   UNK d   1      20.879  33.861  68.792  0.00  0.00    -0.358 OA
ATOM      7  C   UNK d   1      21.951  34.719  68.440  0.00  0.00     0.089 C 
ATOM      8  C   UNK d   1      21.948  35.655  69.603  0.00  0.00     0.133 C 
ATOM      9  C   UNK d   1      20.772  36.556  69.542  0.00  0.00     0.239 C 
ATOM     10  O   UNK d   1      20.705  37.596  68.854  0.00  0.00    -0.272 OA
ATOM     11  C   UNK d   1      23.079  33.746  68.547  0.00  0.00     0.010 C 
ATOM     12  C   UNK d   1      22.741  32.913  69.548  0.00  0.00     0.013 C 
ATOM     13  C   UNK d   1      21.792  35.333  67.115  0.00  0.00     0.051 C 
ENDROOT
BRANCH   1  14
ATOM     14  C   UNK d   1      18.335  36.279  70.311  0.00  0.00     0.046 A 
ATOM     15  C   UNK d   1      17.786  37.471  69.883  0.00  0.00     0.031 A 
ATOM     16  C   UNK d   1      16.405  37.686  69.815  0.00  0.00     0.010 A 
ATOM     17  C   UNK d   1      15.522  36.697  70.182  0.00  0.00    -0.044 A 
ATOM     18  C   UNK d   1      16.053  35.503  70.610  0.00  0.00     0.019 A 
ATOM     19  C   UNK d   1      14.050  36.931  70.111  0.00  0.00     0.049 C 
ATOM     20 Br   UNK d   1      14.863  34.111  71.126  0.00  0.00    -0.051 Br
ATOM     21  C   UNK d   1      17.433  35.294  70.675  0.00  0.00     0.050 A 
ENDBRANCH   1  14
BRANCH   5  22
ATOM     22  C   UNK d   1      20.595  32.425  70.713  0.00  0.00     0.207 C 
BRANCH  22  23
ATOM     23  O   UNK d   1      20.916  31.124  70.332  0.00  0.00    -0.398 OA
ATOM     24  H   UNK d   1      20.296  30.755  69.643  0.00  0.00     0.209 HD
ENDBRANCH  22  23
ENDBRANCH   5  22
TORSDOF 3
ENDMDL
