/Users/jonathanwahrer/Desktop/Msc/3_Semester/Drug_Design_Praktikum/waehrer_HTS_screening/HTS_experiment/out/docking_results/vina_output/4x21/1301_docked.pdbqt
 OpenBabel03212202183D

 24 27  0  0  1  0  0  0  0  0999 V2000
   19.7370   36.0580   70.3790 N   0  0  0  0  0  0  0  0  0  0  0  0
   20.3950   35.2470   71.3460 C   0  0  0  0  0  0  0  0  0  0  0  0
   20.0190   34.9980   72.5120 O   0  0  0  0  0  0  0  0  0  0  0  0
   21.6570   34.7020   70.7600 C   0  0  1  0  0  3  0  0  0  0  0  0
   21.4290   33.4250   70.0230 C   0  0  1  0  0  0  0  0  0  0  0  0
   20.8790   33.8610   68.7920 O   0  0  0  0  0  0  0  0  0  0  0  0
   21.9510   34.7190   68.4400 C   0  0  1  0  0  0  0  0  0  0  0  0
   21.9480   35.6550   69.6030 C   0  0  1  0  0  3  0  0  0  0  0  0
   20.7720   36.5560   69.5420 C   0  0  0  0  0  0  0  0  0  0  0  0
   20.7050   37.5960   68.8540 O   0  0  0  0  0  0  0  0  0  0  0  0
   23.0790   33.7460   68.5470 C   0  0  0  0  0  2  0  0  0  0  0  0
   22.7410   32.9130   69.5480 C   0  0  0  0  0  2  0  0  0  0  0  0
   21.7920   35.3330   67.1150 C   0  0  0  0  0  1  0  0  0  0  0  0
   18.3350   36.2790   70.3110 C   0  0  0  0  0  0  0  0  0  0  0  0
   17.7860   37.4710   69.8830 C   0  0  0  0  0  3  0  0  0  0  0  0
   16.4050   37.6860   69.8150 C   0  0  0  0  0  3  0  0  0  0  0  0
   15.5220   36.6970   70.1820 C   0  0  0  0  0  0  0  0  0  0  0  0
   16.0530   35.5030   70.6100 C   0  0  0  0  0  0  0  0  0  0  0  0
   14.0500   36.9310   70.1110 C   0  0  0  0  0  1  0  0  0  0  0  0
   14.8630   34.1110   71.1260 Br  0  0  0  0  0  0  0  0  0  0  0  0
   17.4330   35.2940   70.6750 C   0  0  0  0  0  3  0  0  0  0  0  0
   20.5950   32.4250   70.7130 C   0  0  0  0  0  2  0  0  0  0  0  0
   20.9160   31.1240   70.3320 O   0  0  0  0  0  0  0  0  0  0  0  0
   20.2960   30.7550   69.6430 H   0  0  0  0  0  0  0  0  0  0  0  0
  1  2  1  0  0  0  0
  2  3  2  0  0  0  0
  4  2  1  6  0  0  0
  5 22  1  1  0  0  0
  5  4  1  0  0  0  0
  6  5  1  0  0  0  0
  7 13  1  6  0  0  0
  7 11  1  0  0  0  0
  7  6  1  0  0  0  0
  7  8  1  0  0  0  0
  8  9  1  6  0  0  0
  8  4  1  0  0  0  0
  9  1  1  0  0  0  0
 10  9  2  0  0  0  0
 11 12  1  0  0  0  0
 12  5  1  0  0  0  0
 14  1  1  0  0  0  0
 14 21  1  0  0  0  0
 15 14  2  0  0  0  0
 16 15  1  0  0  0  0
 16 17  2  0  0  0  0
 17 18  1  0  0  0  0
 18 21  2  0  0  0  0
 18 20  1  0  0  0  0
 19 17  1  0  0  0  0
 23 22  1  0  0  0  0
 24 23  1  0  0  0  0
M  END
>  <Pose>
1

>  <Score>
-8.623

$$$$
