MODEL 1
REMARK VINA RESULT:    -8.776      0.000      0.000
REMARK INTER + INTRA:         -13.431
REMARK INTER:                 -12.111
REMARK INTRA:                  -1.320
REMARK UNBOUND:                -1.320
REMARK  7 active torsions:
REMARK  status: ('A' for Active; 'I' for Inactive)
REMARK    1  A    between atoms: C_3  and  C_8 
REMARK    2  A    between atoms: C_8  and  N_9 
REMARK    3  A    between atoms: N_9  and  N_10 
REMARK       I    between atoms: N_10  and  C_11 
REMARK    4  A    between atoms: C_11  and  C_13 
REMARK    5  A    between atoms: N_16  and  C_24 
REMARK    6  A    between atoms: C_17  and  C_18 
REMARK    7  A    between atoms: C_28  and  N_29 
ROOT
ATOM      1  C   UNK d   1      18.652  32.333  70.993  0.00  0.00     0.176 A 
ATOM      2  N   UNK d   1      19.096  31.211  71.472  0.00  0.00    -0.124 NA
ATOM      3  N   UNK d   1      18.105  30.493  71.878  0.00  0.00    -0.058 NA
ATOM      4  N   UNK d   1      16.885  31.126  71.684  0.00  0.00    -0.191 N 
ATOM      5  C   UNK d   1      17.188  32.278  71.128  0.00  0.00     0.093 A 
ENDROOT
BRANCH   1   6
ATOM      6  C   UNK d   1      19.311  33.530  70.661  0.00  0.00     0.294 C 
ATOM      7  N   UNK d   1      19.237  34.780  71.566  0.00  0.00    -0.242 N 
ATOM      8  H   UNK d   1      18.713  34.643  72.427  0.00  0.00     0.192 HD
ATOM      9  O   UNK d   1      19.981  33.713  69.651  0.00  0.00    -0.264 OA
BRANCH   7  10
ATOM     10  N   UNK d   1      19.865  35.687  70.895  0.00  0.00    -0.183 NA
BRANCH  10  11
ATOM     11  C   UNK d   1      20.117  36.824  70.460  0.00  0.00     0.151 C 
BRANCH  11  12
ATOM     12  C   UNK d   1      19.134  37.156  69.310  0.00  0.00     0.000 A 
ATOM     13  C   UNK d   1      19.680  37.265  68.054  0.00  0.00     0.022 A 
ATOM     14 Br   UNK d   1      21.448  36.680  67.745  0.00  0.00    -0.050 Br
ATOM     15  C   UNK d   1      18.912  37.875  67.057  0.00  0.00     0.020 A 
ATOM     16  C   UNK d   1      17.620  38.332  67.334  0.00  0.00     0.001 A 
ATOM     17  C   UNK d   1      17.098  38.186  68.575  0.00  0.00     0.001 A 
ATOM     18  C   UNK d   1      17.902  37.583  69.592  0.00  0.00     0.014 A 
ENDBRANCH  11  12
ENDBRANCH  10  11
ENDBRANCH   7  10
ENDBRANCH   1   6
BRANCH   5  19
ATOM     19  C   UNK d   1      16.469  33.378  70.491  0.00  0.00     0.179 C 
ATOM     20  N   UNK d   1      15.467  34.149  70.927  0.00  0.00    -0.407 N 
ATOM     21  C   UNK d   1      15.215  35.228  69.983  0.00  0.00     0.117 C 
ATOM     22  C   UNK d   1      14.308  33.911  71.611  0.00  0.00     0.117 C 
ATOM     23  C   UNK d   1      13.731  35.290  69.778  0.00  0.00     0.021 C 
ATOM     24  C   UNK d   1      13.150  34.152  70.611  0.00  0.00     0.021 C 
ENDBRANCH   5  19
BRANCH   4  25
ATOM     25  C   UNK d   1      15.745  30.466  72.141  0.00  0.00     0.229 A 
ATOM     26  N   UNK d   1      14.531  30.550  71.460  0.00  0.00    -0.081 NA
ATOM     27  O   UNK d   1      13.642  29.954  72.150  0.00  0.00    -0.103 OA
ATOM     28  N   UNK d   1      14.122  29.470  73.224  0.00  0.00    -0.083 NA
ATOM     29  C   UNK d   1      15.449  29.780  73.245  0.00  0.00     0.201 A 
BRANCH  29  30
ATOM     30  N   UNK d   1      16.269  29.384  74.352  0.00  0.00    -0.379 N 
ATOM     31  H   UNK d   1      16.037  28.492  74.811  0.00  0.00     0.158 HD
ATOM     32  H   UNK d   1      17.004  29.994  74.702  0.00  0.00     0.158 HD
ENDBRANCH  29  30
ENDBRANCH   4  25
TORSDOF 7
ENDMDL
