MODEL 1
REMARK VINA RESULT:    -8.244      0.000      0.000
REMARK INTER + INTRA:         -12.579
REMARK INTER:                 -11.377
REMARK INTRA:                  -1.202
REMARK UNBOUND:                -1.202
REMARK  7 active torsions:
REMARK  status: ('A' for Active; 'I' for Inactive)
REMARK    1  A    between atoms: C_4  and  C_8 
REMARK    2  A    between atoms: C_8  and  C_10 
REMARK    3  A    between atoms: C_10  and  N_11 
REMARK    4  A    between atoms: N_18  and  C_21 
REMARK    5  A    between atoms: C_19  and  N_20 
REMARK    6  A    between atoms: C_21  and  C_22 
REMARK    7  A    between atoms: C_22  and  N_23 
ROOT
ATOM      1  N   UNK d   1      19.205  35.381  70.839  0.00  0.00    -0.175 N 
ATOM      2  C   UNK d   1      18.207  36.172  70.327  0.00  0.00     0.079 A 
ATOM      3  C   UNK d   1      17.038  35.713  70.860  0.00  0.00     0.079 A 
ATOM      4  C   UNK d   1      15.834  36.332  70.509  0.00  0.00     0.032 A 
ATOM      5  C   UNK d   1      15.848  37.395  69.632  0.00  0.00     0.002 A 
ATOM      6  C   UNK d   1      17.027  37.862  69.093  0.00  0.00     0.002 A 
ATOM      7  C   UNK d   1      18.224  37.236  69.451  0.00  0.00     0.032 A 
ATOM      8  N   UNK d   1      17.334  34.675  71.673  0.00  0.00    -0.179 N 
ATOM      9  C   UNK d   1      18.651  34.460  71.672  0.00  0.00     0.681 A 
ENDROOT
BRANCH   1  10
ATOM     10  C   UNK d   1      20.614  35.574  70.569  0.00  0.00     0.216 C 
BRANCH  10  11
ATOM     11  C   UNK d   1      21.115  34.796  69.430  0.00  0.00     0.113 C 
ATOM     12  O   UNK d   1      20.971  33.493  69.523  0.00  0.00    -0.194 OA
BRANCH  11  13
ATOM     13  C   UNK d   1      21.747  35.221  68.208  0.00  0.00    -0.001 A 
ATOM     14  C   UNK d   1      22.873  34.679  67.659  0.00  0.00     0.033 A 
ATOM     15  C   UNK d   1      23.406  35.127  66.485  0.00  0.00     0.011 A 
ATOM     16 Br   UNK d   1      25.002  34.320  65.742  0.00  0.00    -0.051 Br
ATOM     17  C   UNK d   1      22.799  36.165  65.813  0.00  0.00     0.019 A 
ATOM     18  C   UNK d   1      21.661  36.751  66.315  0.00  0.00     0.002 A 
ATOM     19  C   UNK d   1      21.157  36.275  67.493  0.00  0.00     0.014 A 
ENDBRANCH  11  13
ENDBRANCH  10  11
ENDBRANCH   1  10
BRANCH   9  20
ATOM     20  N   UNK d   1      19.290  33.589  72.421  0.00  0.00    -0.234 N 
ATOM     21  H   UNK d   1      19.430  32.619  72.154  0.00  0.00     0.174 HD
ATOM     22  H   UNK d   1      19.641  33.898  73.338  0.00  0.00     0.174 HD
ENDBRANCH   9  20
BRANCH   8  23
ATOM     23  C   UNK d   1      16.309  33.982  72.433  0.00  0.00     0.178 C 
BRANCH  23  24
ATOM     24  C   UNK d   1      15.712  32.800  71.787  0.00  0.00     0.293 C 
BRANCH  24  25
ATOM     25  N   UNK d   1      16.136  31.504  72.176  0.00  0.00     0.094 N 
ATOM     26  C   UNK d   1      15.653  30.487  71.207  0.00  0.00     0.298 C 
ATOM     27  C   UNK d   1      14.169  30.531  71.038  0.00  0.00     0.198 C 
ATOM     28  O   UNK d   1      13.609  30.109  72.245  0.00  0.00    -0.388 OA
ATOM     29  C   UNK d   1      14.011  30.893  73.297  0.00  0.00     0.198 C 
ATOM     30  C   UNK d   1      15.501  31.065  73.430  0.00  0.00     0.298 C 
ENDBRANCH  24  25
ENDBRANCH  23  24
ENDBRANCH   8  23
TORSDOF 7
ENDMDL
