/Users/jonathanwahrer/Desktop/Msc/3_Semester/Drug_Design_Praktikum/waehrer_HTS_screening/HTS_experiment/out/docking_results/vina_output/4x21/1325_docked.pdbqt
 OpenBabel03212202193D

 31 34  0  0  1  0  0  0  0  0999 V2000
   21.6980   35.8030   68.9150 C   0  0  1  0  0  3  0  0  0  0  0  0
   20.9640   36.5610   67.9460 N   0  0  0  0  0  0  0  0  0  0  0  0
   19.7470   36.9370   68.6580 C   0  0  0  0  0  0  0  0  0  0  0  0
   19.0290   37.9320   68.4170 O   0  0  0  0  0  0  0  0  0  0  0  0
   19.5240   35.9460   69.6940 C   0  0  0  0  0  0  0  0  0  0  0  0
   18.5900   35.8790   70.5480 O   0  0  0  0  0  0  0  0  0  0  0  0
   20.6310   34.9920   69.5670 C   0  0  0  0  0  0  0  0  0  0  0  0
   20.6300   33.7560   69.9870 C   0  0  0  0  0  0  0  0  0  0  0  0
   21.7990   33.0010   69.8330 O   0  0  0  0  0  1  0  0  0  0  0  0
   22.8560   35.0590   68.4870 C   0  0  0  0  0  0  0  0  0  0  0  0
   24.0500   35.2280   69.2110 C   0  0  0  0  0  3  0  0  0  0  0  0
   25.2090   34.5590   68.9080 C   0  0  0  0  0  3  0  0  0  0  0  0
   25.2520   33.6750   67.8590 C   0  0  0  0  0  0  0  0  0  0  0  0
   26.8530   32.7240   67.4070 Br  0  0  0  0  0  0  0  0  0  0  0  0
   24.0880   33.5040   67.1470 C   0  0  0  0  0  3  0  0  0  0  0  0
   22.9210   34.1780   67.4520 C   0  0  0  0  0  3  0  0  0  0  0  0
   19.4360   33.1470   70.6040 C   0  0  0  0  0  0  0  0  0  0  0  0
   19.0010   33.3840   71.8370 O   0  0  0  0  0  0  0  0  0  0  0  0
   17.9210   32.6980   72.1050 C   0  0  0  0  0  0  0  0  0  0  0  0
   17.5710   31.9350   71.0110 C   0  0  0  0  0  0  0  0  0  0  0  0
   17.1000   32.5980   73.2330 C   0  0  0  0  0  3  0  0  0  0  0  0
   18.5480   32.2400   70.0780 C   0  0  0  0  0  3  0  0  0  0  0  0
   16.4610   31.1210   71.0470 C   0  0  0  0  0  3  0  0  0  0  0  0
   15.6470   31.0170   72.1530 C   0  0  0  0  0  3  0  0  0  0  0  0
   15.9930   31.7790   73.2540 C   0  0  0  0  0  3  0  0  0  0  0  0
   21.2550   36.9940   66.5970 C   0  0  0  0  0  2  0  0  0  0  0  0
   22.0560   38.2140   66.4160 C   0  0  0  0  0  2  0  0  0  0  0  0
   23.1460   38.1550   65.4780 N   0  0  0  0  0  4  0  0  0  0  0  0
   23.6140   39.4570   65.0920 C   0  0  0  0  0  1  0  0  0  0  0  0
   24.1800   37.2170   65.8090 C   0  0  0  0  0  1  0  0  0  0  0  0
   22.6890   37.7630   64.5840 H   0  0  0  0  0  0  0  0  0  0  0  0
  1 10  1  6  0  0  0
  1  7  1  0  0  0  0
  2  3  1  0  0  0  0
  2  1  1  0  0  0  0
  3  5  1  0  0  0  0
  4  3  2  0  0  0  0
  5  6  2  0  0  0  0
  7  5  1  0  0  0  0
  7  8  2  0  0  0  0
  8 17  1  0  0  0  0
  9  8  1  0  0  0  0
 10 11  1  0  0  0  0
 12 11  2  0  0  0  0
 13 12  1  0  0  0  0
 14 13  1  0  0  0  0
 15 16  1  0  0  0  0
 15 13  2  0  0  0  0
 16 10  2  0  0  0  0
 17 18  1  0  0  0  0
 18 19  1  0  0  0  0
 19 21  1  0  0  0  0
 20 23  1  0  0  0  0
 20 19  2  0  0  0  0
 21 25  2  0  0  0  0
 22 17  2  0  0  0  0
 22 20  1  0  0  0  0
 23 24  2  0  0  0  0
 24 25  1  0  0  0  0
 26  2  1  0  0  0  0
 27 26  1  0  0  0  0
 28 30  1  0  0  0  0
 28 27  1  0  0  0  0
 29 28  1  0  0  0  0
 31 28  1  0  0  0  0
M  END
>  <Pose>
1

>  <Score>
-7.992

$$$$
