MODEL 1
REMARK VINA RESULT:    -9.235      0.000      0.000
REMARK INTER + INTRA:         -11.940
REMARK INTER:                 -10.855
REMARK INTRA:                  -1.085
REMARK UNBOUND:                -1.085
REMARK  3 active torsions:
REMARK  status: ('A' for Active; 'I' for Inactive)
REMARK    1  A    between atoms: C_4  and  C_8 
REMARK    2  A    between atoms: C_16  and  C_17 
REMARK    3  A    between atoms: C_17  and  N_18 
ROOT
ATOM      1  C   UNK d   1      17.260  37.449  69.806  0.00  0.00     0.053 C 
ATOM      2  C   UNK d   1      16.452  36.449  70.165  0.00  0.00     0.127 A 
ATOM      3  O   UNK d   1      16.807  35.119  70.385  0.00  0.00    -0.305 OA
ATOM      4  C   UNK d   1      15.713  34.381  70.747  0.00  0.00     0.101 A 
ATOM      5  C   UNK d   1      14.580  35.186  70.784  0.00  0.00     0.051 A 
ATOM      6  C   UNK d   1      13.374  34.604  71.140  0.00  0.00     0.021 A 
ATOM      7  C   UNK d   1      13.316  33.264  71.449  0.00  0.00     0.041 A 
ATOM      8  C   UNK d   1      14.475  32.487  71.400  0.00  0.00     0.118 A 
ATOM      9  C   UNK d   1      15.680  33.036  71.050  0.00  0.00     0.039 A 
ATOM     10  O   UNK d   1      14.312  31.149  71.727  0.00  0.00    -0.191 OA
ATOM     11  C   UNK d   1      15.016  36.543  70.410  0.00  0.00     0.218 A 
ATOM     12  O   UNK d   1      14.257  37.543  70.329  0.00  0.00    -0.284 OA
ENDROOT
BRANCH   9  13
ATOM     13  C   UNK d   1      16.850  32.163  70.937  0.00  0.00     0.279 C 
BRANCH  13  14
ATOM     14  N   UNK d   1      18.054  32.642  71.511  0.00  0.00    -0.064 N 
ATOM     15  C   UNK d   1      19.166  32.157  70.710  0.00  0.00     0.265 C 
ATOM     16  C   UNK d   1      20.374  31.751  71.481  0.00  0.00     0.299 C 
ATOM     17  N   UNK d   1      20.134  30.883  72.579  0.00  0.00     0.087 N 
ATOM     18  C   UNK d   1      18.752  30.834  72.929  0.00  0.00     0.299 C 
ATOM     19  C   UNK d   1      20.969  31.263  73.699  0.00  0.00     0.310 C 
ATOM     20  C   UNK d   1      18.168  32.205  72.882  0.00  0.00     0.265 C 
ATOM     21  H   UNK d   1      18.093  33.704  71.561  0.00  0.00     0.280 HD
ENDBRANCH  13  14
ENDBRANCH   9  13
BRANCH   1  22
ATOM     22  C   UNK d   1      18.678  37.229  69.600  0.00  0.00    -0.032 A 
ATOM     23  C   UNK d   1      19.198  37.089  68.332  0.00  0.00     0.030 A 
ATOM     24  C   UNK d   1      20.560  36.865  68.149  0.00  0.00     0.011 A 
ATOM     25 Br   UNK d   1      21.279  36.660  66.391  0.00  0.00    -0.051 Br
ATOM     26  C   UNK d   1      21.398  36.782  69.250  0.00  0.00     0.019 A 
ATOM     27  C   UNK d   1      20.840  36.926  70.500  0.00  0.00     0.002 A 
ATOM     28  C   UNK d   1      19.498  37.149  70.699  0.00  0.00     0.011 A 
ENDBRANCH   1  22
TORSDOF 3
ENDMDL
