MODEL 1
REMARK VINA RESULT:    -8.719      0.000      0.000
REMARK INTER + INTRA:         -11.664
REMARK INTER:                 -10.757
REMARK INTRA:                  -0.906
REMARK UNBOUND:                -0.906
REMARK  4 active torsions:
REMARK  status: ('A' for Active; 'I' for Inactive)
REMARK    1  A    between atoms: C_5  and  N_8 
REMARK       I    between atoms: N_8  and  C_9 
REMARK    2  A    between atoms: C_9  and  C_11 
REMARK    3  A    between atoms: C_11  and  N_12 
REMARK       I    between atoms: N_12  and  C_13 
REMARK    4  A    between atoms: C_13  and  C_15 
ROOT
ATOM      1  C   UNK d   1      16.514  34.207  71.759  0.00  0.00     0.248 C 
ATOM      2  O   UNK d   1      17.829  34.171  72.033  0.00  0.00    -0.341 OA
ATOM      3  C   UNK d   1      18.376  33.001  72.455  0.00  0.00     0.296 C 
ATOM      4  O   UNK d   1      19.769  33.111  72.332  0.00  0.00    -0.323 OA
ATOM      5  C   UNK d   1      20.107  32.695  71.068  0.00  0.00     0.160 C 
ATOM      6  O   UNK d   1      18.995  32.130  70.474  0.00  0.00    -0.343 OA
ATOM      7  C   UNK d   1      18.105  31.835  71.533  0.00  0.00     0.212 C 
ATOM      8  C   UNK d   1      16.696  31.780  71.085  0.00  0.00     0.191 C 
ATOM      9  O   UNK d   1      16.011  30.690  71.670  0.00  0.00    -0.345 OA
ATOM     10  C   UNK d   1      14.772  31.140  72.050  0.00  0.00     0.158 C 
ATOM     11  O   UNK d   1      14.965  32.463  72.350  0.00  0.00    -0.345 OA
ATOM     12  C   UNK d   1      15.846  32.942  71.368  0.00  0.00     0.195 C 
ATOM     13  C   UNK d   1      14.370  30.336  73.293  0.00  0.00     0.078 C 
ATOM     14  C   UNK d   1      13.700  30.888  71.022  0.00  0.00     0.078 C 
ATOM     15  C   UNK d   1      21.185  31.611  71.094  0.00  0.00     0.078 C 
ATOM     16  C   UNK d   1      20.658  33.823  70.211  0.00  0.00     0.078 C 
ENDROOT
BRANCH   1  17
ATOM     17  C   UNK d   1      16.262  35.274  70.755  0.00  0.00     0.249 C 
ATOM     18  N   UNK d   1      17.118  36.401  70.689  0.00  0.00    -0.350 N 
ATOM     19  H   UNK d   1      17.915  36.451  71.358  0.00  0.00     0.163 HD
ATOM     20  O   UNK d   1      15.299  35.220  69.943  0.00  0.00    -0.271 OA
BRANCH  18  21
ATOM     21  C   UNK d   1      16.948  37.473  69.755  0.00  0.00     0.225 C 
BRANCH  21  22
ATOM     22  C   UNK d   1      18.137  37.609  68.874  0.00  0.00     0.239 C 
ATOM     23  N   UNK d   1      19.320  36.875  69.079  0.00  0.00    -0.326 N 
ATOM     24  H   UNK d   1      19.300  36.211  69.920  0.00  0.00     0.169 HD
ATOM     25  O   UNK d   1      18.038  38.415  67.928  0.00  0.00    -0.271 OA
BRANCH  23  26
ATOM     26  C   UNK d   1      20.499  36.899  68.342  0.00  0.00     0.034 A 
ATOM     27  C   UNK d   1      20.476  36.527  67.006  0.00  0.00     0.031 A 
ATOM     28  C   UNK d   1      21.587  36.516  66.195  0.00  0.00     0.021 A 
ATOM     29  C   UNK d   1      22.807  36.893  66.709  0.00  0.00     0.011 A 
ATOM     30 Br   UNK d   1      24.338  36.871  65.558  0.00  0.00    -0.051 Br
ATOM     31  C   UNK d   1      22.877  37.266  68.014  0.00  0.00     0.021 A 
ATOM     32  C   UNK d   1      21.733  37.270  68.827  0.00  0.00     0.031 A 
ENDBRANCH  23  26
ENDBRANCH  21  22
ENDBRANCH  18  21
ENDBRANCH   1  17
TORSDOF 4
ENDMDL
