/Users/jonathanwahrer/Desktop/Msc/3_Semester/Drug_Design_Praktikum/waehrer_HTS_screening/HTS_experiment/out/docking_results/vina_output/4x21/1337_docked.pdbqt
 OpenBabel03212202193D

 32 35  0  0  1  0  0  0  0  0999 V2000
   16.5140   34.2070   71.7590 C   0  0  2  0  0  3  0  0  0  0  0  0
   17.8290   34.1710   72.0330 O   0  0  0  0  0  0  0  0  0  0  0  0
   18.3760   33.0010   72.4550 C   0  0  2  0  0  3  0  0  0  0  0  0
   19.7690   33.1110   72.3320 O   0  0  0  0  0  0  0  0  0  0  0  0
   20.1070   32.6950   71.0680 C   0  0  0  0  0  0  0  0  0  0  0  0
   18.9950   32.1300   70.4740 O   0  0  0  0  0  0  0  0  0  0  0  0
   18.1050   31.8350   71.5330 C   0  0  2  0  0  3  0  0  0  0  0  0
   16.6960   31.7800   71.0850 C   0  0  1  0  0  3  0  0  0  0  0  0
   16.0110   30.6900   71.6700 O   0  0  0  0  0  0  0  0  0  0  0  0
   14.7720   31.1400   72.0500 C   0  0  0  0  0  0  0  0  0  0  0  0
   14.9650   32.4630   72.3500 O   0  0  0  0  0  0  0  0  0  0  0  0
   15.8460   32.9420   71.3680 C   0  0  1  0  0  3  0  0  0  0  0  0
   14.3700   30.3360   73.2930 C   0  0  0  0  0  1  0  0  0  0  0  0
   13.7000   30.8880   71.0220 C   0  0  0  0  0  1  0  0  0  0  0  0
   21.1850   31.6110   71.0940 C   0  0  0  0  0  1  0  0  0  0  0  0
   20.6580   33.8230   70.2110 C   0  0  0  0  0  1  0  0  0  0  0  0
   16.2620   35.2740   70.7550 C   0  0  0  0  0  0  0  0  0  0  0  0
   17.1180   36.4010   70.6890 N   0  0  0  0  0  0  0  0  0  0  0  0
   17.9150   36.4510   71.3580 H   0  0  0  0  0  0  0  0  0  0  0  0
   15.2990   35.2200   69.9430 O   0  0  0  0  0  0  0  0  0  0  0  0
   16.9480   37.4730   69.7550 C   0  0  0  0  0  2  0  0  0  0  0  0
   18.1370   37.6090   68.8740 C   0  0  0  0  0  0  0  0  0  0  0  0
   19.3200   36.8750   69.0790 N   0  0  0  0  0  0  0  0  0  0  0  0
   19.3000   36.2110   69.9200 H   0  0  0  0  0  0  0  0  0  0  0  0
   18.0380   38.4150   67.9280 O   0  0  0  0  0  0  0  0  0  0  0  0
   20.4990   36.8990   68.3420 C   0  0  0  0  0  0  0  0  0  0  0  0
   20.4760   36.5270   67.0060 C   0  0  0  0  0  3  0  0  0  0  0  0
   21.5870   36.5160   66.1950 C   0  0  0  0  0  3  0  0  0  0  0  0
   22.8070   36.8930   66.7090 C   0  0  0  0  0  0  0  0  0  0  0  0
   24.3380   36.8710   65.5580 Br  0  0  0  0  0  0  0  0  0  0  0  0
   22.8770   37.2660   68.0140 C   0  0  0  0  0  3  0  0  0  0  0  0
   21.7330   37.2700   68.8270 C   0  0  0  0  0  3  0  0  0  0  0  0
  1 17  1  6  0  0  0
  1  2  1  0  0  0  0
  3  2  1  6  0  0  0
  4  3  1  0  0  0  0
  5 15  1  0  0  0  0
  5  4  1  0  0  0  0
  6  5  1  0  0  0  0
  7  6  1  6  0  0  0
  7  3  1  0  0  0  0
  8 12  1  0  0  0  0
  8  7  1  0  0  0  0
  8  9  1  1  0  0  0
  9 10  1  0  0  0  0
 10 11  1  0  0  0  0
 10 13  1  0  0  0  0
 12  1  1  0  0  0  0
 12 11  1  1  0  0  0
 14 10  1  0  0  0  0
 16  5  1  0  0  0  0
 18 17  1  0  0  0  0
 18 19  1  0  0  0  0
 20 17  2  0  0  0  0
 21 18  1  0  0  0  0
 22 23  1  0  0  0  0
 22 21  1  0  0  0  0
 23 24  1  0  0  0  0
 25 22  2  0  0  0  0
 26 32  1  0  0  0  0
 26 23  1  0  0  0  0
 27 26  2  0  0  0  0
 28 29  2  0  0  0  0
 28 27  1  0  0  0  0
 29 31  1  0  0  0  0
 30 29  1  0  0  0  0
 31 32  2  0  0  0  0
M  END
>  <Pose>
1

>  <Score>
-8.719

$$$$
