MODEL 1
REMARK VINA RESULT:    -8.234      0.000      0.000
REMARK INTER + INTRA:         -14.215
REMARK INTER:                 -12.807
REMARK INTRA:                  -1.407
REMARK UNBOUND:                -1.407
REMARK  12 active torsions:
REMARK  status: ('A' for Active; 'I' for Inactive)
REMARK    1  A    between atoms: C_3  and  C_12 
REMARK    2  A    between atoms: C_5  and  O_10 
REMARK    3  A    between atoms: C_6  and  O_8 
REMARK    4  A    between atoms: N_13  and  N_14 
REMARK    5  A    between atoms: N_14  and  C_15 
REMARK    6  A    between atoms: N_16  and  C_26 
REMARK    7  A    between atoms: C_19  and  N_25 
REMARK    8  A    between atoms: C_21  and  O_24 
REMARK    9  A    between atoms: C_28  and  C_33 
REMARK   10  A    between atoms: C_29  and  O_32 
REMARK   11  A    between atoms: C_30  and  O_31 
REMARK   12  A    between atoms: C_33  and  O_34 
ROOT
ATOM      1  C   UNK d   1      18.276  34.302  70.908  0.00  0.00     0.727 A 
ATOM      2  N   UNK d   1      17.142  33.562  71.019  0.00  0.00    -0.130 N 
ATOM      3  C   UNK d   1      16.072  34.371  70.807  0.00  0.00     0.201 A 
ATOM      4  N   UNK d   1      14.748  34.181  70.794  0.00  0.00    -0.042 NA
ATOM      5  C   UNK d   1      13.883  35.183  70.549  0.00  0.00     0.724 A 
ATOM      6  N   UNK d   1      14.368  36.420  70.309  0.00  0.00    -0.036 NA
ATOM      7  C   UNK d   1      15.671  36.682  70.306  0.00  0.00     0.215 A 
ATOM      8  C   UNK d   1      16.553  35.650  70.557  0.00  0.00     0.176 A 
ATOM      9  N   UNK d   1      17.870  35.559  70.628  0.00  0.00    -0.055 NA
ENDROOT
BRANCH   1  10
ATOM     10  N   UNK d   1      19.608  33.827  71.059  0.00  0.00    -0.107 N 
ATOM     11  H   UNK d   1      19.932  33.513  71.987  0.00  0.00     0.208 HD
BRANCH  10  12
ATOM     12  N   UNK d   1      20.426  33.809  69.913  0.00  0.00    -0.172 NA
ATOM     13  C   UNK d   1      21.079  34.815  69.498  0.00  0.00     0.152 C 
BRANCH  13  14
ATOM     14  C   UNK d   1      21.934  34.826  68.315  0.00  0.00     0.003 A 
ATOM     15  C   UNK d   1      21.778  35.783  67.336  0.00  0.00     0.025 A 
ATOM     16 Br   UNK d   1      20.422  37.098  67.554  0.00  0.00    -0.050 Br
ATOM     17  C   UNK d   1      22.593  35.801  66.201  0.00  0.00     0.059 A 
ATOM     18  C   UNK d   1      23.583  34.859  66.019  0.00  0.00     0.102 A 
ATOM     19  C   UNK d   1      23.738  33.901  66.999  0.00  0.00     0.102 A 
ATOM     20  C   UNK d   1      22.929  33.894  68.115  0.00  0.00     0.054 A 
BRANCH  18  21
ATOM     21  O   UNK d   1      24.406  34.861  64.892  0.00  0.00    -0.353 OA
ATOM     22  C   UNK d   1      25.320  35.877  64.611  0.00  0.00     0.210 C 
ENDBRANCH  18  21
BRANCH  19  23
ATOM     23  O   UNK d   1      24.741  32.956  66.805  0.00  0.00    -0.353 OA
ATOM     24  C   UNK d   1      25.992  32.993  67.416  0.00  0.00     0.210 C 
ENDBRANCH  19  23
ENDBRANCH  13  14
ENDBRANCH  10  12
ENDBRANCH   1  10
BRANCH   2  25
ATOM     25  C   UNK d   1      17.089  32.162  71.310  0.00  0.00     0.279 C 
ATOM     26  O   UNK d   1      15.994  31.512  70.759  0.00  0.00    -0.353 OA
ATOM     27  C   UNK d   1      15.762  30.371  71.472  0.00  0.00     0.179 C 
ATOM     28  C   UNK d   1      16.550  30.393  72.736  0.00  0.00     0.182 C 
ATOM     29  C   UNK d   1      17.021  31.848  72.790  0.00  0.00     0.199 C 
BRANCH  27  30
ATOM     30  C   UNK d   1      14.279  30.336  71.848  0.00  0.00     0.198 C 
BRANCH  30  31
ATOM     31  O   UNK d   1      13.628  31.459  71.327  0.00  0.00    -0.398 OA
ATOM     32  H   UNK d   1      13.681  31.479  70.337  0.00  0.00     0.209 HD
ENDBRANCH  30  31
ENDBRANCH  27  30
BRANCH  28  33
ATOM     33  O   UNK d   1      17.726  29.629  72.592  0.00  0.00    -0.390 OA
ATOM     34  H   UNK d   1      18.497  30.194  72.370  0.00  0.00     0.210 HD
ENDBRANCH  28  33
BRANCH  29  35
ATOM     35  O   UNK d   1      18.273  31.937  73.399  0.00  0.00    -0.388 OA
ATOM     36  H   UNK d   1      18.944  31.435  72.868  0.00  0.00     0.210 HD
ENDBRANCH  29  35
ENDBRANCH   2  25
BRANCH   7  37
ATOM     37  O   UNK d   1      16.203  37.952  70.060  0.00  0.00    -0.343 OA
ATOM     38  H   UNK d   1      16.893  38.282  70.725  0.00  0.00     0.219 HD
ENDBRANCH   7  37
BRANCH   5  39
ATOM     39  N   UNK d   1      12.465  34.961  70.539  0.00  0.00    -0.231 N 
ATOM     40  H   UNK d   1      11.932  34.659  69.718  0.00  0.00     0.174 HD
ATOM     41  H   UNK d   1      11.966  35.126  71.439  0.00  0.00     0.174 HD
ENDBRANCH   5  39
TORSDOF 12
ENDMDL
