/Users/jonathanwahrer/Desktop/Msc/3_Semester/Drug_Design_Praktikum/waehrer_HTS_screening/HTS_experiment/out/docking_results/vina_output/4x21/1355_docked.pdbqt
 OpenBabel03212202203D

 27 30  0  0  1  0  0  0  0  0999 V2000
   20.6370   35.3160   71.3440 N   0  0  0  0  0  0  0  0  0  0  0  0
   21.1110   35.1880   70.0260 C   0  0  0  0  0  0  0  0  0  0  0  0
   21.0830   34.0690   69.4680 O   0  0  0  0  0  0  0  0  0  0  0  0
   20.6630   36.2480   71.8020 H   0  0  0  0  0  0  0  0  0  0  0  0
   20.1150   34.1740   72.0730 C   0  0  0  0  0  2  0  0  0  0  0  0
   18.6110   34.2380   72.1340 C   0  0  0  0  0  0  0  0  0  0  0  0
   17.8360   33.9630   73.1520 O   0  0  0  0  0  0  0  0  0  0  0  0
   16.5750   34.1370   72.8150 N   0  0  0  0  0  0  0  0  0  0  0  0
   16.5070   34.5390   71.5350 C   0  0  0  0  0  0  0  0  0  0  0  0
   17.7870   34.5970   71.1250 N   0  0  0  0  0  0  0  0  0  0  0  0
   15.3090   34.8440   70.7620 C   0  0  0  0  0  0  0  0  0  0  0  0
   15.0300   36.1130   70.3010 C   0  0  0  0  0  0  0  0  0  0  0  0
   16.1710   37.3820   70.6740 Cl  0  0  0  0  0  0  0  0  0  0  0  0
   13.8880   36.4090   69.5640 C   0  0  0  0  0  3  0  0  0  0  0  0
   12.9860   35.4190   69.2660 C   0  0  0  0  0  3  0  0  0  0  0  0
   13.2520   34.1230   69.7230 C   0  0  0  0  0  3  0  0  0  0  0  0
   14.3920   33.8680   70.4510 C   0  0  0  0  0  3  0  0  0  0  0  0
   21.6370   36.3580   69.3070 C   0  0  1  0  0  3  0  0  0  0  0  0
   22.9730   36.0710   68.6490 C   0  0  0  0  0  2  0  0  0  0  0  0
   23.4010   37.1980   67.7700 C   0  0  0  0  0  2  0  0  0  0  0  0
   22.9790   37.0820   66.3420 C   0  0  0  0  0  2  0  0  0  0  0  0
   21.6850   36.2880   66.1840 C   0  0  0  0  0  2  0  0  0  0  0  0
   20.6910   36.9150   67.0240 N   0  0  0  0  0  0  0  0  0  0  0  0
   19.6500   37.5540   66.5600 N   0  0  0  0  0  0  0  0  0  0  0  0
   20.6730   36.9440   68.3630 C   0  0  0  0  0  0  0  0  0  0  0  0
   18.9480   38.0030   67.5700 N   0  0  0  0  0  0  0  0  0  0  0  0
   19.5640   37.6350   68.6770 N   0  0  0  0  0  0  0  0  0  0  0  0
  1  4  1  0  0  0  0
  1  5  1  0  0  0  0
  2  1  1  0  0  0  0
  3  2  2  0  0  0  0
  5  6  1  0  0  0  0
  6  7  1  0  0  0  0
  8  7  1  0  0  0  0
  9  8  2  0  0  0  0
 10  9  1  0  0  0  0
 10  6  2  0  0  0  0
 11  9  1  0  0  0  0
 12 13  1  0  0  0  0
 12 11  2  0  0  0  0
 14 12  1  0  0  0  0
 15 14  2  0  0  0  0
 15 16  1  0  0  0  0
 16 17  2  0  0  0  0
 17 11  1  0  0  0  0
 18  2  1  6  0  0  0
 19 18  1  0  0  0  0
 20 19  1  0  0  0  0
 21 20  1  0  0  0  0
 22 21  1  0  0  0  0
 22 23  1  0  0  0  0
 23 25  1  0  0  0  0
 24 23  1  0  0  0  0
 24 26  2  0  0  0  0
 25 27  2  0  0  0  0
 25 18  1  0  0  0  0
 26 27  1  0  0  0  0
M  END
>  <Pose>
1

>  <Score>
-9.144

$$$$
