MODEL 1
REMARK VINA RESULT:    -6.322      0.000      0.000
REMARK INTER + INTRA:          -7.129
REMARK INTER:                  -6.876
REMARK INTRA:                  -0.252
REMARK UNBOUND:                -0.252
REMARK  2 active torsions:
REMARK  status: ('A' for Active; 'I' for Inactive)
REMARK    1  A    between atoms: C_3  and  C_8 
REMARK    2  A    between atoms: C_12  and  N_16 
ROOT
ATOM      1  C   UNK d   1      23.139  35.447  66.804  0.00  0.00     0.084 A 
ATOM      2  C   UNK d   1      22.046  36.104  67.369  0.00  0.00     0.166 A 
ATOM      3  C   UNK d   1      21.798  37.079  68.467  0.00  0.00     0.295 C 
ATOM      4  N   UNK d   1      21.822  38.264  67.574  0.00  0.00    -0.209 NA
ATOM      5  C   UNK d   1      22.765  38.085  66.703  0.00  0.00     0.124 C 
ATOM      6  C   UNK d   1      23.376  36.826  66.993  0.00  0.00     0.146 A 
ATOM      7  C   UNK d   1      24.367  37.050  68.088  0.00  0.00     0.080 C 
ATOM      8  N   UNK d   1      25.170  37.215  68.942  0.00  0.00    -0.196 NA
ATOM      9  O   UNK d   1      20.493  36.885  68.933  0.00  0.00    -0.333 OA
ATOM     10  C   UNK d   1      20.567  36.777  70.308  0.00  0.00     0.199 C 
ATOM     11  C   UNK d   1      21.847  37.531  70.625  0.00  0.00     0.199 C 
ATOM     12  O   UNK d   1      22.628  37.126  69.514  0.00  0.00    -0.333 OA
ATOM     13  C   UNK d   1      20.923  36.297  66.383  0.00  0.00     0.080 C 
ATOM     14  N   UNK d   1      20.055  36.441  65.594  0.00  0.00    -0.196 NA
ENDROOT
BRANCH   1  15
ATOM     15  C   UNK d   1      23.801  34.402  67.628  0.00  0.00    -0.032 A 
ATOM     16  C   UNK d   1      25.043  33.907  67.319  0.00  0.00     0.017 A 
ATOM     17 Br   UNK d   1      26.029  34.535  65.810  0.00  0.00    -0.051 Br
ATOM     18  C   UNK d   1      25.589  32.926  68.136  0.00  0.00     0.019 A 
ATOM     19  C   UNK d   1      24.906  32.440  69.256  0.00  0.00     0.001 A 
ATOM     20  C   UNK d   1      23.664  32.950  69.547  0.00  0.00     0.001 A 
ATOM     21  C   UNK d   1      23.123  33.930  68.726  0.00  0.00     0.009 A 
ENDBRANCH   1  15
BRANCH   5  22
ATOM     22  N   UNK d   1      23.119  39.001  65.643  0.00  0.00    -0.386 N 
ATOM     23  H   UNK d   1      23.523  39.934  65.853  0.00  0.00     0.157 HD
ATOM     24  H   UNK d   1      22.975  38.742  64.649  0.00  0.00     0.157 HD
ENDBRANCH   5  22
TORSDOF 2
ENDMDL
