MODEL 1
REMARK VINA RESULT:    -8.109      0.000      0.000
REMARK INTER + INTRA:         -10.338
REMARK INTER:                  -9.531
REMARK INTRA:                  -0.807
REMARK UNBOUND:                -0.807
REMARK  3 active torsions:
REMARK  status: ('A' for Active; 'I' for Inactive)
REMARK    1  A    between atoms: C_4  and  C_8 
REMARK       I    between atoms: C_8  and  N_10 
REMARK    2  A    between atoms: N_10  and  C_11 
REMARK    3  A    between atoms: C_11  and  C_13 
REMARK       I    between atoms: C_13  and  N_15 
ROOT
ATOM      1  C   UNK d   1      22.386  35.267  67.949  0.00  0.00     0.242 C 
ATOM      2  O   UNK d   1      21.773  34.213  67.684  0.00  0.00    -0.271 OA
ATOM      3  N   UNK d   1      23.703  35.214  68.419  0.00  0.00    -0.350 N 
ATOM      4  C   UNK d   1      24.666  34.167  68.366  0.00  0.00     0.129 C 
ATOM      5  C   UNK d   1      26.016  34.896  68.290  0.00  0.00     0.068 C 
ATOM      6  C   UNK d   1      25.900  36.233  67.599  0.00  0.00     0.206 C 
ATOM      7  N   UNK d   1      27.169  36.906  67.545  0.00  0.00     0.099 N 
ATOM      8  C   UNK d   1      26.944  38.229  66.946  0.00  0.00     0.277 C 
ATOM      9  C   UNK d   1      26.543  38.128  65.507  0.00  0.00     0.089 C 
ATOM     10  C   UNK d   1      25.741  36.917  65.219  0.00  0.00     0.039 A 
ATOM     11  N   UNK d   1      25.198  36.491  64.075  0.00  0.00    -0.352 N 
ATOM     12  C   UNK d   1      24.554  35.331  64.312  0.00  0.00     0.207 A 
ATOM     13  N   UNK d   1      24.705  35.051  65.614  0.00  0.00    -0.244 NA
ATOM     14  C   UNK d   1      25.432  35.996  66.229  0.00  0.00     0.097 A 
ATOM     15  C   UNK d   1      24.982  37.207  68.356  0.00  0.00     0.068 C 
ATOM     16  C   UNK d   1      24.198  36.355  69.260  0.00  0.00     0.129 C 
ATOM     17  H   UNK d   1      27.504  37.093  68.520  0.00  0.00     0.317 HD
ATOM     18  H   UNK d   1      25.221  36.916  63.122  0.00  0.00     0.166 HD
ENDROOT
BRANCH   1  19
ATOM     19  C   UNK d   1      21.670  36.561  67.733  0.00  0.00     0.173 C 
ATOM     20  C   UNK d   1      21.582  36.762  66.198  0.00  0.00     0.042 C 
BRANCH  19  21
ATOM     21  N   UNK d   1      20.288  36.539  68.146  0.00  0.00    -0.344 N 
ATOM     22  C   UNK d   1      19.959  36.863  69.524  0.00  0.00     0.252 C 
ATOM     23  O   UNK d   1      20.829  37.200  70.337  0.00  0.00    -0.268 OA
ATOM     24  H   UNK d   1      19.552  36.307  67.483  0.00  0.00     0.163 HD
BRANCH  22  25
ATOM     25  C   UNK d   1      18.537  36.751  69.889  0.00  0.00     0.033 A 
ATOM     26  C   UNK d   1      18.144  35.640  70.653  0.00  0.00     0.036 A 
ATOM     27  C   UNK d   1      16.846  35.417  71.041  0.00  0.00     0.011 A 
ATOM     28 Br   UNK d   1      16.406  33.865  72.101  0.00  0.00    -0.051 Br
ATOM     29  C   UNK d   1      15.885  36.324  70.663  0.00  0.00     0.019 A 
ATOM     30  C   UNK d   1      16.253  37.424  69.906  0.00  0.00     0.002 A 
ATOM     31  C   UNK d   1      17.572  37.637  69.518  0.00  0.00     0.017 A 
ENDBRANCH  22  25
ENDBRANCH  19  21
ENDBRANCH   1  19
TORSDOF 3
ENDMDL
