MODEL 1
REMARK VINA RESULT:    -8.991      0.000      0.000
REMARK INTER + INTRA:         -13.466
REMARK INTER:                 -12.408
REMARK INTRA:                  -1.058
REMARK UNBOUND:                -1.058
REMARK  7 active torsions:
REMARK  status: ('A' for Active; 'I' for Inactive)
REMARK    1  A    between atoms: C_7  and  C_11 
REMARK    2  A    between atoms: C_11  and  O_12 
REMARK    3  A    between atoms: O_12  and  C_13 
REMARK    4  A    between atoms: C_13  and  C_15 
REMARK    5  A    between atoms: N_17  and  C_26 
REMARK    6  A    between atoms: C_26  and  C_27 
REMARK    7  A    between atoms: C_27  and  O_28 
ROOT
ATOM      1  C   UNK d   1      17.975  33.927  72.261  0.00  0.00     0.315 C 
ATOM      2  O   UNK d   1      18.490  34.252  73.323  0.00  0.00    -0.257 OA
ENDROOT
BRANCH   1   3
ATOM      3  O   UNK d   1      18.959  33.658  71.271  0.00  0.00    -0.310 OA
BRANCH   3   4
ATOM      4  C   UNK d   1      20.267  34.100  71.514  0.00  0.00     0.238 C 
BRANCH   4   5
ATOM      5  C   UNK d   1      20.613  35.062  70.449  0.00  0.00     0.066 A 
ATOM      6  N   UNK d   1      21.857  35.079  69.942  0.00  0.00    -0.233 NA
ATOM      7  C   UNK d   1      22.228  35.932  68.973  0.00  0.00     0.137 A 
ATOM      8  N   UNK d   1      21.354  36.811  68.471  0.00  0.00    -0.272 N 
ATOM      9  C   UNK d   1      23.506  35.920  68.483  0.00  0.00     0.052 A 
ATOM     10  C   UNK d   1      21.723  37.674  67.492  0.00  0.00     0.121 A 
ATOM     11  C   UNK d   1      20.084  36.861  68.922  0.00  0.00     0.255 A 
ATOM     12  C   UNK d   1      23.010  37.677  66.984  0.00  0.00     0.027 A 
ATOM     13 Br   UNK d   1      23.512  38.911  65.596  0.00  0.00    -0.050 Br
ATOM     14  C   UNK d   1      23.921  36.782  67.488  0.00  0.00     0.024 A 
ATOM     15  C   UNK d   1      19.715  35.963  69.934  0.00  0.00     0.104 A 
ATOM     16  O   UNK d   1      19.237  37.673  68.473  0.00  0.00    -0.268 OA
ENDBRANCH   4   5
ENDBRANCH   3   4
ENDBRANCH   1   3
BRANCH   1  17
ATOM     17  C   UNK d   1      16.575  33.792  71.907  0.00  0.00     0.163 A 
ATOM     18  N   UNK d   1      15.885  32.656  72.228  0.00  0.00    -0.163 NA
ATOM     19  N   UNK d   1      14.610  32.509  71.917  0.00  0.00    -0.231 N 
ATOM     20  C   UNK d   1      13.930  33.470  71.270  0.00  0.00     0.274 A 
ATOM     21  O   UNK d   1      12.698  33.316  70.974  0.00  0.00    -0.266 OA
ATOM     22  C   UNK d   1      14.551  34.643  70.910  0.00  0.00     0.046 A 
ATOM     23  C   UNK d   1      15.900  34.774  71.251  0.00  0.00     0.016 A 
ATOM     24  C   UNK d   1      13.839  35.609  70.251  0.00  0.00     0.018 A 
ATOM     25  C   UNK d   1      16.479  35.961  70.874  0.00  0.00     0.015 A 
ATOM     26  C   UNK d   1      15.766  36.950  70.204  0.00  0.00     0.001 A 
ATOM     27  C   UNK d   1      14.439  36.787  69.884  0.00  0.00     0.001 A 
BRANCH  19  28
ATOM     28  C   UNK d   1      13.890  31.300  72.262  0.00  0.00     0.180 C 
BRANCH  28  29
ATOM     29  C   UNK d   1      14.761  30.074  72.199  0.00  0.00     0.186 C 
BRANCH  29  30
ATOM     30  O   UNK d   1      15.595  30.067  71.097  0.00  0.00    -0.399 OA
ATOM     31  H   UNK d   1      15.191  29.472  70.422  0.00  0.00     0.209 HD
ENDBRANCH  29  30
ENDBRANCH  28  29
ENDBRANCH  19  28
ENDBRANCH   1  17
TORSDOF 7
ENDMDL
