/Users/jonathanwahrer/Desktop/Msc/3_Semester/Drug_Design_Praktikum/waehrer_HTS_screening/HTS_experiment/out/docking_results/vina_output/4x21/1381_docked.pdbqt
 OpenBabel03212202213D

 31 34  0  0  0  0  0  0  0  0999 V2000
   17.9750   33.9270   72.2610 C   0  0  0  0  0  0  0  0  0  0  0  0
   18.4900   34.2520   73.3230 O   0  0  0  0  0  0  0  0  0  0  0  0
   18.9590   33.6580   71.2710 O   0  0  0  0  0  0  0  0  0  0  0  0
   20.2670   34.1000   71.5140 C   0  0  0  0  0  2  0  0  0  0  0  0
   20.6130   35.0620   70.4490 C   0  0  0  0  0  0  0  0  0  0  0  0
   21.8570   35.0790   69.9420 N   0  0  0  0  0  0  0  0  0  0  0  0
   22.2280   35.9320   68.9730 C   0  0  0  0  0  0  0  0  0  0  0  0
   21.3540   36.8110   68.4710 N   0  0  0  0  0  0  0  0  0  0  0  0
   23.5060   35.9200   68.4830 C   0  0  0  0  0  3  0  0  0  0  0  0
   21.7230   37.6740   67.4920 C   0  0  0  0  0  3  0  0  0  0  0  0
   20.0840   36.8610   68.9220 C   0  0  0  0  0  0  0  0  0  0  0  0
   23.0100   37.6770   66.9840 C   0  0  0  0  0  0  0  0  0  0  0  0
   23.5120   38.9110   65.5960 Br  0  0  0  0  0  0  0  0  0  0  0  0
   23.9210   36.7820   67.4880 C   0  0  0  0  0  3  0  0  0  0  0  0
   19.7150   35.9630   69.9340 C   0  0  0  0  0  3  0  0  0  0  0  0
   19.2370   37.6730   68.4730 O   0  0  0  0  0  0  0  0  0  0  0  0
   16.5750   33.7920   71.9070 C   0  0  0  0  0  0  0  0  0  0  0  0
   15.8850   32.6560   72.2280 N   0  0  0  0  0  0  0  0  0  0  0  0
   14.6100   32.5090   71.9170 N   0  0  0  0  0  0  0  0  0  0  0  0
   13.9300   33.4700   71.2700 C   0  0  0  0  0  0  0  0  0  0  0  0
   12.6980   33.3160   70.9740 O   0  0  0  0  0  0  0  0  0  0  0  0
   14.5510   34.6430   70.9100 C   0  0  0  0  0  0  0  0  0  0  0  0
   15.9000   34.7740   71.2510 C   0  0  0  0  0  0  0  0  0  0  0  0
   13.8390   35.6090   70.2510 C   0  0  0  0  0  3  0  0  0  0  0  0
   16.4790   35.9610   70.8740 C   0  0  0  0  0  3  0  0  0  0  0  0
   15.7660   36.9500   70.2040 C   0  0  0  0  0  3  0  0  0  0  0  0
   14.4390   36.7870   69.8840 C   0  0  0  0  0  3  0  0  0  0  0  0
   13.8900   31.3000   72.2620 C   0  0  0  0  0  2  0  0  0  0  0  0
   14.7610   30.0740   72.1990 C   0  0  0  0  0  2  0  0  0  0  0  0
   15.5950   30.0670   71.0970 O   0  0  0  0  0  0  0  0  0  0  0  0
   15.1910   29.4720   70.4220 H   0  0  0  0  0  0  0  0  0  0  0  0
  1  2  2  0  0  0  0
  3  4  1  0  0  0  0
  3  1  1  0  0  0  0
  5  4  1  0  0  0  0
  6  5  1  0  0  0  0
  7  6  2  0  0  0  0
  8 11  1  0  0  0  0
  8  7  1  0  0  0  0
  9  7  1  0  0  0  0
 10  8  1  0  0  0  0
 11 15  1  0  0  0  0
 12 14  1  0  0  0  0
 12 10  2  0  0  0  0
 13 12  1  0  0  0  0
 14  9  2  0  0  0  0
 15  5  2  0  0  0  0
 16 11  2  0  0  0  0
 17 18  2  0  0  0  0
 17  1  1  0  0  0  0
 19 18  1  0  0  0  0
 19 28  1  0  0  0  0
 20 19  1  0  0  0  0
 21 20  2  0  0  0  0
 22 23  1  0  0  0  0
 22 20  1  0  0  0  0
 23 17  1  0  0  0  0
 24 22  2  0  0  0  0
 25 23  2  0  0  0  0
 26 25  1  0  0  0  0
 27 26  2  0  0  0  0
 27 24  1  0  0  0  0
 29 28  1  0  0  0  0
 30 29  1  0  0  0  0
 31 30  1  0  0  0  0
M  END
>  <Pose>
1

>  <Score>
-8.991

$$$$
