MODEL 1
REMARK VINA RESULT:    -9.107      0.000      0.000
REMARK INTER + INTRA:         -11.846
REMARK INTER:                 -11.503
REMARK INTRA:                  -0.343
REMARK UNBOUND:                -0.343
REMARK  5 active torsions:
REMARK  status: ('A' for Active; 'I' for Inactive)
REMARK    1  A    between atoms: C_6  and  C_12 
REMARK    2  A    between atoms: C_12  and  C_13 
REMARK    3  A    between atoms: C_13  and  C_14 
REMARK       I    between atoms: C_14  and  N_16 
REMARK    4  A    between atoms: C_18  and  N_24 
REMARK    5  A    between atoms: C_19  and  O_22 
ROOT
ATOM      1  C   UNK d   1      19.874  36.893  69.872  0.00  0.00     0.220 C 
ATOM      2  O   UNK d   1      20.295  37.394  68.804  0.00  0.00    -0.273 OA
ATOM      3  N   UNK d   1      20.689  35.913  70.550  0.00  0.00    -0.350 N 
ATOM      4  C   UNK d   1      21.956  35.547  69.978  0.00  0.00     0.154 C 
ATOM      5  C   UNK d   1      21.842  34.107  69.521  0.00  0.00     0.146 C 
ATOM      6  C   UNK d   1      20.935  33.284  70.363  0.00  0.00     0.078 C 
ATOM      7  C   UNK d   1      20.662  33.816  71.722  0.00  0.00     0.059 C 
ATOM      8  C   UNK d   1      20.315  35.268  71.778  0.00  0.00     0.129 C 
ATOM      9  C   UNK d   1      21.595  31.910  70.533  0.00  0.00     0.048 C 
ENDROOT
BRANCH   1  10
ATOM     10  C   UNK d   1      18.581  37.261  70.460  0.00  0.00     0.110 C 
BRANCH  10  11
ATOM     11  C   UNK d   1      17.366  37.005  69.674  0.00  0.00     0.088 C 
BRANCH  11  12
ATOM     12  C   UNK d   1      16.462  35.930  70.153  0.00  0.00     0.107 A 
ATOM     13  N   UNK d   1      16.875  34.657  70.485  0.00  0.00    -0.233 NA
ATOM     14  C   UNK d   1      15.808  33.918  70.821  0.00  0.00     0.087 A 
ATOM     15  C   UNK d   1      15.645  32.603  71.228  0.00  0.00     0.057 A 
ATOM     16  C   UNK d   1      14.683  34.701  70.710  0.00  0.00     0.064 A 
ATOM     17  C   UNK d   1      14.398  32.100  71.514  0.00  0.00     0.036 A 
ATOM     18 Cl   UNK d   1      14.245  30.413  72.031  0.00  0.00    -0.084 Cl
ATOM     19  C   UNK d   1      13.279  32.901  71.399  0.00  0.00     0.026 A 
ATOM     20  C   UNK d   1      13.428  34.206  70.995  0.00  0.00     0.034 A 
ATOM     21  N   UNK d   1      15.141  35.919  70.298  0.00  0.00    -0.338 N 
ATOM     22  C   UNK d   1      14.213  37.003  70.029  0.00  0.00     0.158 C 
ENDBRANCH  11  12
ENDBRANCH  10  11
ENDBRANCH   1  10
BRANCH   5  23
ATOM     23  N   UNK d   1      23.177  33.572  69.412  0.00  0.00    -0.300 N 
ATOM     24  C   UNK d   1      23.964  33.483  70.502  0.00  0.00     0.102 A 
ATOM     25  C   UNK d   1      25.244  32.979  70.445  0.00  0.00     0.092 A 
ATOM     26  C   UNK d   1      25.726  32.554  69.228  0.00  0.00     0.250 A 
ATOM     27  O   UNK d   1      26.903  32.077  69.109  0.00  0.00    -0.268 OA
ATOM     28  N   UNK d   1      24.920  32.654  68.160  0.00  0.00    -0.275 N 
ATOM     29  C   UNK d   1      23.683  33.147  68.242  0.00  0.00     0.329 A 
ATOM     30  H   UNK d   1      25.253  32.338  67.200  0.00  0.00     0.173 HD
ATOM     31  O   UNK d   1      22.965  33.220  67.204  0.00  0.00    -0.246 OA
ENDBRANCH   5  23
BRANCH   6  32
ATOM     32  O   UNK d   1      19.702  33.027  69.744  0.00  0.00    -0.388 OA
ATOM     33  H   UNK d   1      19.887  32.768  68.787  0.00  0.00     0.210 HD
ENDBRANCH   6  32
TORSDOF 5
ENDMDL
