MODEL 1
REMARK VINA RESULT:    -5.158      0.000      0.000
REMARK INTER + INTRA:          -5.309
REMARK INTER:                  -5.309
REMARK INTRA:                   0.000
REMARK UNBOUND:                 0.000
REMARK  1 active torsions:
REMARK  status: ('A' for Active; 'I' for Inactive)
REMARK    1  A    between atoms: C_19  and  N_23 
ROOT
ATOM      1 Br   UNK d   1      12.961  31.171  73.986  0.00  0.00    -0.051 Br
ATOM      2  C   UNK d   1      12.103  30.051  75.299  0.00  0.00     0.011 A 
ATOM      3  C   UNK d   1      10.827  30.311  75.725  0.00  0.00     0.030 A 
ATOM      4  C   UNK d   1      10.233  29.495  76.664  0.00  0.00    -0.002 A 
ATOM      5  C   UNK d   1      10.961  28.438  77.139  0.00  0.00     0.045 A 
ATOM      6  C   UNK d   1      12.274  28.171  76.700  0.00  0.00     0.031 A 
ATOM      7  C   UNK d   1      12.848  28.992  75.766  0.00  0.00     0.021 A 
ATOM      8  N   UNK d   1      10.217  27.692  78.098  0.00  0.00    -0.320 N 
ATOM      9  C   UNK d   1       8.964  28.301  78.238  0.00  0.00     0.247 A 
ATOM     10  O   UNK d   1       8.040  27.902  79.011  0.00  0.00    -0.271 OA
ATOM     11  C   UNK d   1       8.904  29.495  77.323  0.00  0.00     0.145 A 
ATOM     12  C   UNK d   1       7.806  29.235  76.398  0.00  0.00     0.049 A 
ATOM     13  C   UNK d   1       6.704  30.031  76.370  0.00  0.00     0.200 A 
ATOM     14  N   UNK d   1       5.880  29.521  75.408  0.00  0.00    -0.148 NA
ATOM     15  N   UNK d   1       6.428  28.460  74.855  0.00  0.00    -0.280 N 
ATOM     16  C   UNK d   1       7.609  28.246  75.430  0.00  0.00     0.036 A 
ATOM     17  C   UNK d   1       8.614  27.171  75.158  0.00  0.00     0.070 C 
ATOM     18  O   UNK d   1       6.546  31.138  77.211  0.00  0.00    -0.272 OA
ATOM     19  C   UNK d   1       7.595  31.382  78.092  0.00  0.00     0.162 A 
ATOM     20  C   UNK d   1       8.679  30.654  78.166  0.00  0.00     0.100 A 
ATOM     21  C   UNK d   1       9.687  31.062  79.159  0.00  0.00     0.101 C 
ATOM     22  N   UNK d   1      10.500  31.367  79.940  0.00  0.00    -0.191 NA
ATOM     23  C   UNK d   1      10.672  26.495  78.820  0.00  0.00     0.159 C 
ATOM     24  H   UNK d   1       6.045  27.848  74.088  0.00  0.00     0.189 HD
ENDROOT
BRANCH  19  25
ATOM     25  N   UNK d   1       7.488  32.521  78.992  0.00  0.00    -0.379 N 
ATOM     26  H   UNK d   1       7.227  33.415  78.532  0.00  0.00     0.158 HD
ATOM     27  H   UNK d   1       7.654  32.462  79.995  0.00  0.00     0.158 HD
ENDBRANCH  19  25
TORSDOF 1
ENDMDL
