MODEL 1
REMARK VINA RESULT:    -7.733      0.000      0.000
REMARK INTER + INTRA:          -8.755
REMARK INTER:                  -8.638
REMARK INTRA:                  -0.117
REMARK UNBOUND:                -0.117
REMARK  2 active torsions:
REMARK  status: ('A' for Active; 'I' for Inactive)
REMARK    1  A    between atoms: N_4  and  C_8 
REMARK    2  A    between atoms: C_8  and  C_9 
ROOT
ATOM      1  C   UNK d   1      16.041  36.549  70.348  0.00  0.00     0.168 A 
ATOM      2  N   UNK d   1      14.827  36.115  69.971  0.00  0.00    -0.148 NA
ATOM      3  N   UNK d   1      14.554  34.927  70.535  0.00  0.00    -0.206 N 
ATOM      4  C   UNK d   1      15.617  34.596  71.290  0.00  0.00     0.169 A 
ATOM      5  N   UNK d   1      16.518  35.589  71.170  0.00  0.00    -0.209 NA
ATOM      6  C   UNK d   1      15.568  33.399  71.979  0.00  0.00     0.079 A 
ATOM      7  C   UNK d   1      14.477  32.554  71.910  0.00  0.00     0.162 A 
ATOM      8  N   UNK d   1      14.685  31.459  72.672  0.00  0.00    -0.256 N 
ATOM      9  N   UNK d   1      15.882  31.613  73.207  0.00  0.00    -0.182 NA
ATOM     10  C   UNK d   1      16.455  32.767  72.819  0.00  0.00     0.158 A 
ATOM     11  C   UNK d   1      13.754  30.346  72.848  0.00  0.00     0.182 C 
ATOM     12  N   UNK d   1      13.450  32.949  71.138  0.00  0.00    -0.222 NA
ATOM     13  C   UNK d   1      13.486  34.110  70.464  0.00  0.00     0.239 A 
ENDROOT
BRANCH   1  14
ATOM     14  C   UNK d   1      16.740  37.806  69.964  0.00  0.00     0.232 C 
BRANCH  14  15
ATOM     15  N   UNK d   1      18.046  37.540  69.384  0.00  0.00    -0.272 N 
ATOM     16  C   UNK d   1      19.144  37.103  70.032  0.00  0.00     0.134 A 
ATOM     17  C   UNK d   1      20.179  36.980  69.109  0.00  0.00     0.054 A 
ATOM     18 Br   UNK d   1      21.971  36.408  69.419  0.00  0.00    -0.047 Br
ATOM     19  C   UNK d   1      19.651  37.358  67.893  0.00  0.00     0.069 A 
ATOM     20  N   UNK d   1      18.362  37.690  68.097  0.00  0.00    -0.176 NA
ATOM     21  C   UNK d   1      20.427  37.371  66.630  0.00  0.00     0.074 C 
ENDBRANCH  14  15
ENDBRANCH   1  14
TORSDOF 2
ENDMDL
