/Users/jonathanwahrer/Desktop/Msc/3_Semester/Drug_Design_Praktikum/waehrer_HTS_screening/HTS_experiment/out/docking_results/vina_output/4x21/1432_docked.pdbqt
 OpenBabel03212202233D

 21 24  0  0  0  0  0  0  0  0999 V2000
   16.0410   36.5490   70.3480 C   0  0  0  0  0  0  0  0  0  0  0  0
   14.8270   36.1150   69.9710 N   0  0  0  0  0  0  0  0  0  0  0  0
   14.5540   34.9270   70.5350 N   0  0  0  0  0  0  0  0  0  0  0  0
   15.6170   34.5960   71.2900 C   0  0  0  0  0  0  0  0  0  0  0  0
   16.5180   35.5890   71.1700 N   0  0  0  0  0  0  0  0  0  0  0  0
   15.5680   33.3990   71.9790 C   0  0  0  0  0  0  0  0  0  0  0  0
   14.4770   32.5540   71.9100 C   0  0  0  0  0  0  0  0  0  0  0  0
   14.6850   31.4590   72.6720 N   0  0  0  0  0  0  0  0  0  0  0  0
   15.8820   31.6130   73.2070 N   0  0  0  0  0  0  0  0  0  0  0  0
   16.4550   32.7670   72.8190 C   0  0  0  0  0  3  0  0  0  0  0  0
   13.7540   30.3460   72.8480 C   0  0  0  0  0  1  0  0  0  0  0  0
   13.4500   32.9490   71.1380 N   0  0  0  0  0  0  0  0  0  0  0  0
   13.4860   34.1100   70.4640 C   0  0  0  0  0  3  0  0  0  0  0  0
   16.7400   37.8060   69.9640 C   0  0  0  0  0  2  0  0  0  0  0  0
   18.0460   37.5400   69.3840 N   0  0  0  0  0  0  0  0  0  0  0  0
   19.1440   37.1030   70.0320 C   0  0  0  0  0  3  0  0  0  0  0  0
   20.1790   36.9800   69.1090 C   0  0  0  0  0  0  0  0  0  0  0  0
   21.9710   36.4080   69.4190 Br  0  0  0  0  0  0  0  0  0  0  0  0
   19.6510   37.3580   67.8930 C   0  0  0  0  0  0  0  0  0  0  0  0
   18.3620   37.6900   68.0970 N   0  0  0  0  0  0  0  0  0  0  0  0
   20.4270   37.3710   66.6300 C   0  0  0  0  0  1  0  0  0  0  0  0
  1  5  1  0  0  0  0
  2  1  2  0  0  0  0
  2  3  1  0  0  0  0
  3  4  1  0  0  0  0
  4  6  1  0  0  0  0
  5  4  2  0  0  0  0
  6 10  1  0  0  0  0
  7  6  2  0  0  0  0
  7  8  1  0  0  0  0
  8 11  1  0  0  0  0
  8  9  1  0  0  0  0
 10  9  2  0  0  0  0
 12  7  1  0  0  0  0
 13  3  1  0  0  0  0
 13 12  2  0  0  0  0
 14  1  1  0  0  0  0
 15 14  1  0  0  0  0
 15 16  1  0  0  0  0
 17 18  1  0  0  0  0
 17 16  2  0  0  0  0
 19 20  2  0  0  0  0
 19 17  1  0  0  0  0
 20 15  1  0  0  0  0
 21 19  1  0  0  0  0
M  END
>  <Pose>
1

>  <Score>
-7.733

$$$$
