/Users/jonathanwahrer/Desktop/Msc/3_Semester/Drug_Design_Praktikum/waehrer_HTS_screening/HTS_experiment/out/docking_results/vina_output/4x21/1434_docked.pdbqt
 OpenBabel03212202233D

 28 31  0  0  1  0  0  0  0  0999 V2000
   20.3080   37.2120   69.0990 C   0  0  0  0  0  0  0  0  0  0  0  0
   19.4340   37.3480   68.1080 O   0  0  0  0  0  0  0  0  0  0  0  0
   21.6350   37.3020   68.7080 N   0  0  0  0  0  0  0  0  0  0  0  0
   22.7960   37.1970   69.5180 C   0  0  0  0  0  2  0  0  0  0  0  0
   23.5100   35.8750   69.2330 C   0  0  0  0  0  2  0  0  0  0  0  0
   23.3130   35.4940   67.7750 C   0  0  1  0  0  0  0  0  0  0  0  0
   24.5450   34.8370   67.3730 N   0  0  0  0  0  0  0  0  0  0  0  0
   24.3710   33.4350   67.6660 C   0  0  0  0  0  0  0  0  0  0  0  0
   25.2880   32.5830   67.7690 O   0  0  0  0  0  0  0  0  0  0  0  0
   22.9570   33.2050   67.8170 N   0  0  0  0  0  0  0  0  0  0  0  0
   22.2870   34.4430   67.6190 C   0  0  0  0  0  0  0  0  0  0  0  0
   21.0660   34.5720   67.3660 O   0  0  0  0  0  0  0  0  0  0  0  0
   23.1010   36.6830   66.8910 C   0  0  0  0  0  2  0  0  0  0  0  0
   21.9290   37.5270   67.2720 C   0  0  0  0  0  2  0  0  0  0  0  0
   25.3920   35.2760   66.9550 H   0  0  0  0  0  0  0  0  0  0  0  0
   22.5160   32.2990   68.0310 H   0  0  0  0  0  0  0  0  0  0  0  0
   19.6490   36.9960   70.3710 C   0  0  0  0  0  2  0  0  0  0  0  0
   18.7330   35.9200   70.5220 N   0  0  0  0  0  0  0  0  0  0  0  0
   17.3770   36.0810   70.4730 C   0  0  0  0  0  0  0  0  0  0  0  0
   16.7740   34.8590   70.6290 C   0  0  0  0  0  0  0  0  0  0  0  0
   16.5850   37.2170   70.3030 C   0  0  0  0  0  3  0  0  0  0  0  0
   17.7800   33.9370   70.7760 C   0  0  0  0  0  0  0  0  0  0  0  0
   15.3910   34.7650   70.6160 C   0  0  0  0  0  3  0  0  0  0  0  0
   17.4560   32.0700   71.0250 Br  0  0  0  0  0  0  0  0  0  0  0  0
   18.9730   34.6010   70.7070 C   0  0  0  0  0  0  0  0  0  0  0  0
   20.3170   33.9890   70.8140 C   0  0  0  0  0  1  0  0  0  0  0  0
   14.6180   35.8910   70.4470 C   0  0  0  0  0  3  0  0  0  0  0  0
   15.2000   37.1180   70.2900 C   0  0  0  0  0  3  0  0  0  0  0  0
  1 17  1  0  0  0  0
  2  1  2  0  0  0  0
  3  1  1  0  0  0  0
  3  4  1  0  0  0  0
  5  4  1  0  0  0  0
  6 13  1  6  0  0  0
  6  5  1  0  0  0  0
  7  8  1  0  0  0  0
  7  6  1  0  0  0  0
  8  9  2  0  0  0  0
  8 10  1  0  0  0  0
 10 16  1  0  0  0  0
 11  6  1  0  0  0  0
 11 10  1  0  0  0  0
 12 11  2  0  0  0  0
 13 14  1  0  0  0  0
 14  3  1  0  0  0  0
 15  7  1  0  0  0  0
 17 18  1  0  0  0  0
 18 25  1  0  0  0  0
 19 18  1  0  0  0  0
 19 20  1  0  0  0  0
 20 22  1  0  0  0  0
 21 19  2  0  0  0  0
 22 24  1  0  0  0  0
 23 20  2  0  0  0  0
 25 22  2  0  0  0  0
 25 26  1  0  0  0  0
 27 23  1  0  0  0  0
 28 21  1  0  0  0  0
 28 27  2  0  0  0  0
M  END
>  <Pose>
1

>  <Score>
-9.094

$$$$
