MODEL 1
REMARK VINA RESULT:    -9.094      0.000      0.000
REMARK INTER + INTRA:         -10.915
REMARK INTER:                 -10.157
REMARK INTRA:                  -0.759
REMARK UNBOUND:                -0.759
REMARK  2 active torsions:
REMARK  status: ('A' for Active; 'I' for Inactive)
REMARK    1  A    between atoms: N_5  and  C_8 
REMARK    2  A    between atoms: C_8  and  C_9 
REMARK       I    between atoms: C_9  and  N_11 
ROOT
ATOM      1  C   UNK d   1      20.308  37.212  69.099  0.00  0.00     0.171 C 
ATOM      2  O   UNK d   1      19.434  37.348  68.108  0.00  0.00    -0.175 OA
ATOM      3  N   UNK d   1      21.635  37.302  68.708  0.00  0.00    -0.361 N 
ATOM      4  C   UNK d   1      22.796  37.197  69.518  0.00  0.00     0.127 C 
ATOM      5  C   UNK d   1      23.510  35.875  69.233  0.00  0.00     0.061 C 
ATOM      6  C   UNK d   1      23.313  35.494  67.775  0.00  0.00     0.118 C 
ATOM      7  N   UNK d   1      24.545  34.837  67.373  0.00  0.00    -0.324 N 
ATOM      8  C   UNK d   1      24.371  33.435  67.666  0.00  0.00     0.323 C 
ATOM      9  O   UNK d   1      25.288  32.583  67.769  0.00  0.00    -0.247 OA
ATOM     10  N   UNK d   1      22.957  33.205  67.817  0.00  0.00    -0.277 N 
ATOM     11  C   UNK d   1      22.287  34.443  67.619  0.00  0.00     0.254 C 
ATOM     12  O   UNK d   1      21.066  34.572  67.366  0.00  0.00    -0.270 OA
ATOM     13  C   UNK d   1      23.101  36.683  66.891  0.00  0.00     0.061 C 
ATOM     14  C   UNK d   1      21.929  37.527  67.272  0.00  0.00     0.127 C 
ATOM     15  H   UNK d   1      25.392  35.276  66.955  0.00  0.00     0.165 HD
ATOM     16  H   UNK d   1      22.516  32.299  68.031  0.00  0.00     0.173 HD
ENDROOT
BRANCH   1  17
ATOM     17  C   UNK d   1      19.649  36.996  70.371  0.00  0.00     0.216 C 
BRANCH  17  18
ATOM     18  N   UNK d   1      18.733  35.920  70.522  0.00  0.00    -0.341 N 
ATOM     19  C   UNK d   1      17.377  36.081  70.473  0.00  0.00     0.046 A 
ATOM     20  C   UNK d   1      16.774  34.859  70.629  0.00  0.00     0.010 A 
ATOM     21  C   UNK d   1      16.585  37.217  70.303  0.00  0.00     0.030 A 
ATOM     22  C   UNK d   1      17.780  33.937  70.776  0.00  0.00     0.045 A 
ATOM     23  C   UNK d   1      15.391  34.765  70.616  0.00  0.00     0.015 A 
ATOM     24 Br   UNK d   1      17.456  32.070  71.025  0.00  0.00    -0.048 Br
ATOM     25  C   UNK d   1      18.973  34.601  70.707  0.00  0.00     0.027 A 
ATOM     26  C   UNK d   1      20.317  33.989  70.814  0.00  0.00     0.070 C 
ATOM     27  C   UNK d   1      14.618  35.891  70.447  0.00  0.00     0.001 A 
ATOM     28  C   UNK d   1      15.200  37.118  70.290  0.00  0.00     0.002 A 
ENDBRANCH  17  18
ENDBRANCH   1  17
TORSDOF 2
ENDMDL
