MODEL 1
REMARK VINA RESULT:    -8.812      0.000      0.000
REMARK INTER + INTRA:         -12.240
REMARK INTER:                 -11.388
REMARK INTRA:                  -0.852
REMARK UNBOUND:                -0.852
REMARK  5 active torsions:
REMARK  status: ('A' for Active; 'I' for Inactive)
REMARK    1  A    between atoms: N_3  and  C_14 
REMARK    2  A    between atoms: C_14  and  C_15 
REMARK    3  A    between atoms: C_15  and  C_16 
REMARK    4  A    between atoms: C_16  and  C_17 
REMARK    5  A    between atoms: C_17  and  N_18 
ROOT
ATOM      1  C   UNK d   1      22.161  36.210  67.651  0.00  0.00     0.022 C 
ENDROOT
BRANCH   1   2
ATOM      2  C   UNK d   1      22.087  36.563  66.172  0.00  0.00     0.132 C 
BRANCH   2   3
ATOM      3  N   UNK d   1      23.149  37.463  65.791  0.00  0.00    -0.318 N 
ATOM      4  C   UNK d   1      24.414  37.171  65.404  0.00  0.00     0.180 A 
ATOM      5 Br   UNK d   1      25.082  35.386  65.281  0.00  0.00    -0.008 Br
ATOM      6  N   UNK d   1      25.096  38.298  65.133  0.00  0.00    -0.203 NA
ATOM      7  C   UNK d   1      24.278  39.357  65.341  0.00  0.00     0.169 A 
ATOM      8  C   UNK d   1      23.078  38.813  65.748  0.00  0.00     0.152 A 
ATOM      9  N   UNK d   1      24.468  40.690  65.215  0.00  0.00    -0.286 N 
ATOM     10  C   UNK d   1      22.037  39.680  66.034  0.00  0.00     0.280 A 
ATOM     11  N   UNK d   1      22.235  41.000  65.908  0.00  0.00    -0.273 N 
ATOM     12  O   UNK d   1      20.954  39.171  66.403  0.00  0.00    -0.265 OA
ATOM     13  C   UNK d   1      23.434  41.501  65.503  0.00  0.00     0.330 A 
ATOM     14  H   UNK d   1      21.453  41.663  66.122  0.00  0.00     0.173 HD
ATOM     15  O   UNK d   1      23.537  42.752  65.409  0.00  0.00    -0.246 OA
ATOM     16  C   UNK d   1      25.738  41.245  64.786  0.00  0.00     0.163 C 
ENDBRANCH   2   3
ENDBRANCH   1   2
BRANCH   1  17
ATOM     17  C   UNK d   1      20.791  35.936  68.212  0.00  0.00     0.022 C 
BRANCH  17  18
ATOM     18  C   UNK d   1      20.489  36.633  69.505  0.00  0.00     0.132 C 
BRANCH  18  19
ATOM     19  N   UNK d   1      19.279  36.137  70.069  0.00  0.00    -0.318 N 
ATOM     20  C   UNK d   1      18.015  36.523  69.899  0.00  0.00     0.152 A 
ATOM     21  C   UNK d   1      17.189  35.690  70.646  0.00  0.00     0.169 A 
ATOM     22  C   UNK d   1      17.411  37.523  69.184  0.00  0.00     0.280 A 
ATOM     23  N   UNK d   1      17.998  34.823  71.246  0.00  0.00    -0.203 NA
ATOM     24  N   UNK d   1      15.865  35.869  70.653  0.00  0.00    -0.286 N 
ATOM     25  C   UNK d   1      19.265  35.074  70.913  0.00  0.00     0.180 A 
ATOM     26 Br   UNK d   1      20.758  34.073  71.547  0.00  0.00    -0.008 Br
ATOM     27  C   UNK d   1      15.295  36.859  69.940  0.00  0.00     0.330 A 
ATOM     28  C   UNK d   1      14.974  35.010  71.426  0.00  0.00     0.163 C 
ATOM     29  O   UNK d   1      14.049  37.020  69.952  0.00  0.00    -0.246 OA
ATOM     30  N   UNK d   1      16.078  37.668  69.219  0.00  0.00    -0.273 N 
ATOM     31  H   UNK d   1      15.671  38.459  68.644  0.00  0.00     0.173 HD
ATOM     32  O   UNK d   1      18.126  38.289  68.507  0.00  0.00    -0.265 OA
ENDBRANCH  18  19
ENDBRANCH  17  18
ENDBRANCH   1  17
TORSDOF 5
ENDMDL
