/Users/jonathanwahrer/Desktop/Msc/3_Semester/Drug_Design_Praktikum/waehrer_HTS_screening/HTS_experiment/out/docking_results/vina_output/4x21/1436_docked.pdbqt
 OpenBabel03212202243D

 33 36  0  0  0  0  0  0  0  0999 V2000
   21.1800   34.1170   70.4420 O   0  0  0  0  0  0  0  0  0  0  0  0
   19.8490   33.8990   70.3080 C   0  0  0  0  0  3  0  0  0  0  0  0
   18.8550   34.5050   71.2080 C   0  0  0  0  0  3  0  0  0  0  0  0
   17.4850   34.1550   71.0420 N   0  0  0  0  0  0  0  0  0  0  0  0
   16.8360   33.0130   71.2600 C   0  0  0  0  0  0  0  0  0  0  0  0
   17.5810   31.3420   71.8150 Br  0  0  0  0  0  0  0  0  0  0  0  0
   15.5140   33.1370   70.9950 N   0  0  0  0  0  0  0  0  0  0  0  0
   15.3310   34.3890   70.5970 C   0  0  0  0  0  0  0  0  0  0  0  0
   16.5440   35.0430   70.6170 C   0  0  0  0  0  0  0  0  0  0  0  0
   14.2200   35.0690   70.1990 N   0  0  0  0  0  0  0  0  0  0  0  0
   16.6640   36.3660   70.2420 C   0  0  0  0  0  0  0  0  0  0  0  0
   15.5160   36.9910   69.8530 N   0  0  0  0  0  0  0  0  0  0  0  0
   17.7600   36.9800   70.2500 O   0  0  0  0  0  0  0  0  0  0  0  0
   14.3400   36.3450   69.8380 C   0  0  0  0  0  0  0  0  0  0  0  0
   15.5950   37.9910   69.5680 H   0  0  0  0  0  0  0  0  0  0  0  0
   13.2910   36.9500   69.4730 O   0  0  0  0  0  0  0  0  0  0  0  0
   12.9270   34.4170   70.1650 C   0  0  0  0  0  1  0  0  0  0  0  0
   21.6330   35.0650   69.5390 C   0  0  0  0  0  2  0  0  0  0  0  0
   21.4390   34.5480   68.1450 C   0  0  0  0  0  2  0  0  0  0  0  0
   22.2530   35.2400   67.1970 N   0  0  0  0  0  0  0  0  0  0  0  0
   23.4830   34.8790   66.8080 C   0  0  0  0  0  0  0  0  0  0  0  0
   23.9190   35.7970   65.9040 C   0  0  0  0  0  0  0  0  0  0  0  0
   24.2930   33.8150   67.1520 C   0  0  0  0  0  0  0  0  0  0  0  0
   22.9460   36.6930   65.7640 N   0  0  0  0  0  0  0  0  0  0  0  0
   25.1360   35.6680   65.3480 N   0  0  0  0  0  0  0  0  0  0  0  0
   21.9000   36.3830   66.5470 C   0  0  0  0  0  0  0  0  0  0  0  0
   20.2440   37.2870   66.7640 Br  0  0  0  0  0  0  0  0  0  0  0  0
   25.9010   34.6360   65.6930 C   0  0  0  0  0  0  0  0  0  0  0  0
   25.6180   36.6350   64.3830 C   0  0  0  0  0  1  0  0  0  0  0  0
   27.0390   34.5280   65.1640 O   0  0  0  0  0  0  0  0  0  0  0  0
   25.4940   33.7290   66.5730 N   0  0  0  0  0  0  0  0  0  0  0  0
   26.1080   32.9260   66.8320 H   0  0  0  0  0  0  0  0  0  0  0  0
   23.9400   32.9250   67.9910 O   0  0  0  0  0  0  0  0  0  0  0  0
  2  1  1  0  0  0  0
  2  3  2  0  0  0  0
  4  3  1  0  0  0  0
  4  5  1  0  0  0  0
  5  6  1  0  0  0  0
  7  5  2  0  0  0  0
  8  9  2  0  0  0  0
  8  7  1  0  0  0  0
  9  4  1  0  0  0  0
 10  8  1  0  0  0  0
 11 13  2  0  0  0  0
 11  9  1  0  0  0  0
 12 11  1  0  0  0  0
 14 12  1  0  0  0  0
 14 10  1  0  0  0  0
 15 12  1  0  0  0  0
 16 14  2  0  0  0  0
 17 10  1  0  0  0  0
 18  1  1  0  0  0  0
 19 18  1  0  0  0  0
 20 19  1  0  0  0  0
 21 23  1  0  0  0  0
 21 20  1  0  0  0  0
 22 21  2  0  0  0  0
 23 33  2  0  0  0  0
 24 22  1  0  0  0  0
 24 26  2  0  0  0  0
 25 28  1  0  0  0  0
 25 22  1  0  0  0  0
 26 27  1  0  0  0  0
 26 20  1  0  0  0  0
 28 31  1  0  0  0  0
 29 25  1  0  0  0  0
 30 28  2  0  0  0  0
 31 32  1  0  0  0  0
 31 23  1  0  0  0  0
M  END
>  <Pose>
1

>  <Score>
-8.560

$$$$
