MODEL 1
REMARK VINA RESULT:    -8.560      0.000      0.000
REMARK INTER + INTRA:         -12.280
REMARK INTER:                 -11.562
REMARK INTRA:                  -0.718
REMARK UNBOUND:                -0.718
REMARK  6 active torsions:
REMARK  status: ('A' for Active; 'I' for Inactive)
REMARK    1  A    between atoms: N_3  and  C_14 
REMARK    2  A    between atoms: C_14  and  C_15 
REMARK    3  A    between atoms: C_15  and  O_16 
REMARK    4  A    between atoms: O_16  and  C_17 
REMARK    5  A    between atoms: C_17  and  C_18 
REMARK    6  A    between atoms: C_18  and  N_19 
ROOT
ATOM      1  O   UNK d   1      21.180  34.117  70.442  0.00  0.00    -0.388 OA
ENDROOT
BRANCH   1   2
ATOM      2  C   UNK d   1      19.849  33.899  70.308  0.00  0.00     0.188 C 
BRANCH   2   3
ATOM      3  C   UNK d   1      18.855  34.505  71.208  0.00  0.00     0.158 C 
BRANCH   3   4
ATOM      4  N   UNK d   1      17.485  34.155  71.042  0.00  0.00    -0.316 N 
ATOM      5  C   UNK d   1      16.836  33.013  71.260  0.00  0.00     0.180 A 
ATOM      6 Br   UNK d   1      17.581  31.342  71.815  0.00  0.00    -0.008 Br
ATOM      7  N   UNK d   1      15.514  33.137  70.995  0.00  0.00    -0.203 NA
ATOM      8  C   UNK d   1      15.331  34.389  70.597  0.00  0.00     0.169 A 
ATOM      9  C   UNK d   1      16.544  35.043  70.617  0.00  0.00     0.152 A 
ATOM     10  N   UNK d   1      14.220  35.069  70.199  0.00  0.00    -0.286 N 
ATOM     11  C   UNK d   1      16.664  36.366  70.242  0.00  0.00     0.280 A 
ATOM     12  N   UNK d   1      15.516  36.991  69.853  0.00  0.00    -0.273 N 
ATOM     13  O   UNK d   1      17.760  36.980  70.250  0.00  0.00    -0.265 OA
ATOM     14  C   UNK d   1      14.340  36.345  69.838  0.00  0.00     0.330 A 
ATOM     15  H   UNK d   1      15.595  37.991  69.568  0.00  0.00     0.173 HD
ATOM     16  O   UNK d   1      13.291  36.950  69.473  0.00  0.00    -0.246 OA
ATOM     17  C   UNK d   1      12.927  34.417  70.165  0.00  0.00     0.163 C 
ENDBRANCH   3   4
ENDBRANCH   2   3
ENDBRANCH   1   2
BRANCH   1  18
ATOM     18  C   UNK d   1      21.633  35.065  69.539  0.00  0.00     0.188 C 
BRANCH  18  19
ATOM     19  C   UNK d   1      21.439  34.548  68.145  0.00  0.00     0.158 C 
BRANCH  19  20
ATOM     20  N   UNK d   1      22.253  35.240  67.197  0.00  0.00    -0.316 N 
ATOM     21  C   UNK d   1      23.483  34.879  66.808  0.00  0.00     0.152 A 
ATOM     22  C   UNK d   1      23.919  35.797  65.904  0.00  0.00     0.169 A 
ATOM     23  C   UNK d   1      24.293  33.815  67.152  0.00  0.00     0.280 A 
ATOM     24  N   UNK d   1      22.946  36.693  65.764  0.00  0.00    -0.203 NA
ATOM     25  N   UNK d   1      25.136  35.668  65.348  0.00  0.00    -0.286 N 
ATOM     26  C   UNK d   1      21.900  36.383  66.547  0.00  0.00     0.180 A 
ATOM     27 Br   UNK d   1      20.244  37.287  66.764  0.00  0.00    -0.008 Br
ATOM     28  C   UNK d   1      25.901  34.636  65.693  0.00  0.00     0.330 A 
ATOM     29  C   UNK d   1      25.618  36.635  64.383  0.00  0.00     0.163 C 
ATOM     30  O   UNK d   1      27.039  34.528  65.164  0.00  0.00    -0.246 OA
ATOM     31  N   UNK d   1      25.494  33.729  66.573  0.00  0.00    -0.273 N 
ATOM     32  H   UNK d   1      26.108  32.926  66.832  0.00  0.00     0.173 HD
ATOM     33  O   UNK d   1      23.940  32.925  67.991  0.00  0.00    -0.265 OA
ENDBRANCH  19  20
ENDBRANCH  18  19
ENDBRANCH   1  18
TORSDOF 6
ENDMDL
