/Users/jonathanwahrer/Desktop/Msc/3_Semester/Drug_Design_Praktikum/waehrer_HTS_screening/HTS_experiment/out/docking_results/vina_output/4x21/1466_docked.pdbqt
 OpenBabel03212202253D

 29 32  0  0  0  0  0  0  0  0999 V2000
   15.7340   37.0920   70.0300 N   0  0  0  0  0  0  0  0  0  0  0  0
   16.6710   36.4430   70.7010 N   0  0  0  0  0  0  0  0  0  0  0  0
   17.8410   36.5500   70.0860 N   0  0  0  0  0  0  0  0  0  0  0  0
   17.6910   37.2890   68.9750 C   0  0  0  0  0  0  0  0  0  0  0  0
   16.3580   37.6260   68.9470 C   0  0  0  0  0  3  0  0  0  0  0  0
   14.3100   37.2250   70.3590 C   0  0  0  0  0  2  0  0  0  0  0  0
   13.6150   36.0610   69.6890 C   0  0  0  0  0  2  0  0  0  0  0  0
   14.3110   34.8150   69.9680 N   0  0  0  0  0  0  0  0  0  0  0  0
   13.6870   33.8800   70.8360 C   0  0  0  0  0  0  0  0  0  0  0  0
   12.5480   34.1510   71.3420 O   0  0  0  0  0  0  0  0  0  0  0  0
   15.2390   34.6070   69.5470 H   0  0  0  0  0  0  0  0  0  0  0  0
   14.2930   32.6030   71.1820 C   0  0  0  0  0  0  0  0  0  0  0  0
   13.5720   31.4500   71.0580 C   0  0  0  0  0  3  0  0  0  0  0  0
   14.0410   30.2230   71.3520 N   0  0  0  0  0  0  0  0  0  0  0  0
   15.3110   30.1080   71.8030 C   0  0  0  0  0  3  0  0  0  0  0  0
   16.0930   31.2320   71.9520 C   0  0  0  0  0  0  0  0  0  0  0  0
   17.8810   31.0230   72.5900 Br  0  0  0  0  0  0  0  0  0  0  0  0
   15.5910   32.4960   71.6420 C   0  0  0  0  0  3  0  0  0  0  0  0
   18.7110   37.6540   68.0090 C   0  0  0  0  0  0  0  0  0  0  0  0
   19.9240   37.0940   67.8550 N   0  0  0  0  0  0  0  0  0  0  0  0
   20.5750   37.7100   66.8550 C   0  0  0  0  0  0  0  0  0  0  0  0
   19.7360   38.6560   66.4030 N   0  0  0  0  0  0  0  0  0  0  0  0
   18.6460   38.5960   67.1040 O   0  0  0  0  0  0  0  0  0  0  0  0
   21.9350   37.4110   66.3560 C   0  0  0  0  0  0  0  0  0  0  0  0
   22.3230   36.1040   66.1730 C   0  0  0  0  0  3  0  0  0  0  0  0
   23.5590   35.8190   65.7180 N   0  0  0  0  0  0  0  0  0  0  0  0
   24.4690   36.7680   65.4210 C   0  0  0  0  0  3  0  0  0  0  0  0
   24.0690   38.0770   65.6080 C   0  0  0  0  0  3  0  0  0  0  0  0
   22.8220   38.4110   66.0680 C   0  0  0  0  0  3  0  0  0  0  0  0
  1  6  1  0  0  0  0
  1  2  1  0  0  0  0
  3  2  2  0  0  0  0
  4  3  1  0  0  0  0
  5  4  2  0  0  0  0
  5  1  1  0  0  0  0
  7  8  1  0  0  0  0
  7  6  1  0  0  0  0
  8  9  1  0  0  0  0
  9 12  1  0  0  0  0
  9 10  2  0  0  0  0
 11  8  1  0  0  0  0
 12 18  1  0  0  0  0
 13 12  2  0  0  0  0
 13 14  1  0  0  0  0
 14 15  2  0  0  0  0
 15 16  1  0  0  0  0
 16 17  1  0  0  0  0
 18 16  2  0  0  0  0
 19  4  1  0  0  0  0
 20 19  2  0  0  0  0
 21 20  1  0  0  0  0
 22 21  2  0  0  0  0
 22 23  1  0  0  0  0
 23 19  1  0  0  0  0
 24 21  1  0  0  0  0
 25 24  1  0  0  0  0
 26 25  2  0  0  0  0
 27 28  2  0  0  0  0
 27 26  1  0  0  0  0
 28 29  1  0  0  0  0
 29 24  2  0  0  0  0
M  END
>  <Pose>
1

>  <Score>
-8.382

$$$$
