/Users/jonathanwahrer/Desktop/Msc/3_Semester/Drug_Design_Praktikum/waehrer_HTS_screening/HTS_experiment/out/docking_results/vina_output/4x21/1471_docked.pdbqt
 OpenBabel03212202253D

 31 34  0  0  0  0  0  0  0  0999 V2000
   21.2420   34.7890   69.9850 C   0  0  0  0  0  0  0  0  0  0  0  0
   20.7960   35.4120   68.8530 C   0  0  0  0  0  2  0  0  0  0  0  0
   21.3940   35.3020   67.6270 N   0  0  0  0  0  0  0  0  0  0  0  0
   22.4780   34.5370   67.5440 C   0  0  0  0  0  3  0  0  0  0  0  0
   23.0000   33.8730   68.6230 C   0  0  0  0  0  0  0  0  0  0  0  0
   22.3530   34.0000   69.9150 C   0  0  0  0  0  0  0  0  0  0  0  0
   23.0750   33.2500   70.7680 N   0  0  0  0  0  2  0  0  0  0  0  0
   24.0860   32.6850   70.1290 N   0  0  0  0  0  0  0  0  0  0  0  0
   24.0790   33.0330   68.8360 C   0  0  0  0  0  0  0  0  0  0  0  0
   24.8770   32.6980   67.9080 O   0  0  0  0  0  0  0  0  0  0  0  0
   24.8260   32.0420   70.5270 H   0  0  0  0  0  0  0  0  0  0  0  0
   20.5460   34.9590   71.2500 C   0  0  0  0  0  0  0  0  0  0  0  0
   19.6020   34.0210   71.7230 N   0  0  0  0  0  0  0  0  0  0  0  0
   18.8970   34.1600   72.9680 C   0  0  0  0  0  2  0  0  0  0  0  0
   19.3220   32.8550   70.9240 C   0  0  0  0  0  2  0  0  0  0  0  0
   17.4520   33.7970   72.7340 C   0  0  0  0  0  2  0  0  0  0  0  0
   17.0930   33.7630   71.3410 N   0  0  0  0  0  0  0  0  0  0  0  0
   17.9180   33.0670   70.3420 C   0  0  0  0  0  2  0  0  0  0  0  0
   20.8260   36.0000   71.9150 O   0  0  0  0  0  0  0  0  0  0  0  0
   15.9280   34.3960   70.8670 C   0  0  0  0  0  0  0  0  0  0  0  0
   15.9370   35.7010   70.4230 C   0  0  0  0  0  0  0  0  0  0  0  0
   17.4480   36.6150   70.4480 Cl  0  0  0  0  0  0  0  0  0  0  0  0
   14.7890   36.3100   69.9620 C   0  0  0  0  0  3  0  0  0  0  0  0
   13.6130   35.6030   69.9410 C   0  0  0  0  0  3  0  0  0  0  0  0
   13.5620   34.2760   70.3820 C   0  0  0  0  0  3  0  0  0  0  0  0
   14.7440   33.7110   70.8370 C   0  0  0  0  0  3  0  0  0  0  0  0
   20.8550   36.0400   66.4950 C   0  0  0  0  0  2  0  0  0  0  0  0
   20.7410   37.4890   66.6650 C   0  0  0  0  0  2  0  0  0  0  0  0
   19.4880   38.2380   66.5570 C   0  0  0  0  0  2  0  0  0  0  0  0
   18.5940   38.2830   67.5580 O   0  0  0  0  0  0  0  0  0  0  0  0
   17.2740   38.3560   67.3720 C   0  0  0  0  0  1  0  0  0  0  0  0
  1 12  1  0  0  0  0
  2  1  1  0  0  0  0
  3  2  1  0  0  0  0
  4  3  1  0  0  0  0
  4  5  2  0  0  0  0
  5  9  1  0  0  0  0
  5  6  1  0  0  0  0
  6  1  2  0  0  0  0
  6  7  1  0  0  0  0
  8 11  1  0  0  0  0
  8  7  1  0  0  0  0
  9  8  1  0  0  0  0
 10  9  2  0  0  0  0
 12 13  1  0  0  0  0
 12 19  2  0  0  0  0
 13 14  1  0  0  0  0
 15 13  1  0  0  0  0
 16 14  1  0  0  0  0
 17 16  1  0  0  0  0
 18 15  1  0  0  0  0
 18 17  1  0  0  0  0
 20 17  1  0  0  0  0
 21 22  1  0  0  0  0
 21 20  2  0  0  0  0
 23 21  1  0  0  0  0
 24 23  2  0  0  0  0
 24 25  1  0  0  0  0
 25 26  2  0  0  0  0
 26 20  1  0  0  0  0
 27 28  1  0  0  0  0
 27  3  1  0  0  0  0
 29 28  1  0  0  0  0
 29 30  1  0  0  0  0
 31 30  1  0  0  0  0
M  END
>  <Pose>
1

>  <Score>
-8.497

$$$$
