/Users/jonathanwahrer/Desktop/Msc/3_Semester/Drug_Design_Praktikum/waehrer_HTS_screening/HTS_experiment/out/docking_results/vina_output/4x21/1486_docked.pdbqt
 OpenBabel03212202263D

 31 34  0  0  1  0  0  0  0  0999 V2000
   20.3660   36.5290   70.0340 N   0  0  0  0  0  0  0  0  0  0  0  0
   19.1390   36.9920   70.1100 N   0  0  0  0  0  0  0  0  0  0  0  0
   18.7130   37.4000   68.9060 C   0  0  0  0  0  0  0  0  0  0  0  0
   19.7160   37.1830   68.0430 N   0  0  0  0  0  0  0  0  0  0  0  0
   20.7450   36.6390   68.7560 C   0  0  2  0  0  3  0  0  0  0  0  0
   22.0460   36.2380   68.2220 C   0  0  0  0  0  2  0  0  0  0  0  0
   22.7870   37.3740   67.5570 C   0  0  0  0  0  2  0  0  0  0  0  0
   22.1670   37.7550   66.2310 C   0  0  0  0  0  2  0  0  0  0  0  0
   20.8480   38.4490   66.3730 C   0  0  0  0  0  2  0  0  0  0  0  0
   19.7060   37.4730   66.6220 C   0  0  0  0  0  2  0  0  0  0  0  0
   17.4070   37.9790   68.5590 C   0  0  0  0  0  2  0  0  0  0  0  0
   16.5040   38.0040   69.6680 N   0  0  0  0  0  0  0  0  0  0  0  0
   16.5450   38.7750   70.3510 H   0  0  0  0  0  0  0  0  0  0  0  0
   15.5240   36.9950   69.8930 C   0  0  0  0  0  0  0  0  0  0  0  0
   14.2480   37.0840   69.3850 C   0  0  0  0  0  3  0  0  0  0  0  0
   13.3140   36.1040   69.6040 C   0  0  0  0  0  3  0  0  0  0  0  0
   13.6470   35.0120   70.3420 C   0  0  0  0  0  0  0  0  0  0  0  0
   14.9230   34.9200   70.8530 C   0  0  0  0  0  3  0  0  0  0  0  0
   15.8710   35.8990   70.6380 C   0  0  0  0  0  3  0  0  0  0  0  0
   12.7310   34.0150   70.5780 O   0  0  0  0  0  0  0  0  0  0  0  0
   12.7890   33.1740   71.7040 C   0  0  0  0  0  1  0  0  0  0  0  0
   21.1540   36.0050   71.1090 C   0  0  0  0  0  2  0  0  0  0  0  0
   21.0260   34.5280   71.2210 C   0  0  0  0  0  0  0  0  0  0  0  0
   22.0310   33.8320   70.9190 O   0  0  0  0  0  0  0  0  0  0  0  0
   19.8120   33.8720   71.6560 C   0  0  0  0  0  0  0  0  0  0  0  0
   19.2010   34.1840   72.8480 C   0  0  0  0  0  3  0  0  0  0  0  0
   18.0340   33.5440   73.2540 C   0  0  0  0  0  3  0  0  0  0  0  0
   17.4610   32.5710   72.4530 C   0  0  0  0  0  0  0  0  0  0  0  0
   15.8470   31.6910   73.0210 Br  0  0  0  0  0  0  0  0  0  0  0  0
   18.0640   32.2520   71.2590 C   0  0  0  0  0  3  0  0  0  0  0  0
   19.2150   32.9000   70.8840 C   0  0  0  0  0  3  0  0  0  0  0  0
  1  2  1  0  0  0  0
  1 22  1  0  0  0  0
  3  2  2  0  0  0  0
  4  5  1  0  0  0  0
  4  3  1  0  0  0  0
  5  6  1  6  0  0  0
  5  1  1  0  0  0  0
  7  6  1  0  0  0  0
  8  9  1  0  0  0  0
  8  7  1  0  0  0  0
  9 10  1  0  0  0  0
 10  4  1  0  0  0  0
 11  3  1  0  0  0  0
 11 12  1  0  0  0  0
 12 14  1  0  0  0  0
 12 13  1  0  0  0  0
 14 19  1  0  0  0  0
 15 16  1  0  0  0  0
 15 14  2  0  0  0  0
 16 17  2  0  0  0  0
 17 20  1  0  0  0  0
 17 18  1  0  0  0  0
 19 18  2  0  0  0  0
 20 21  1  0  0  0  0
 22 23  1  0  0  0  0
 23 25  1  0  0  0  0
 24 23  2  0  0  0  0
 25 26  1  0  0  0  0
 26 27  2  0  0  0  0
 28 29  1  0  0  0  0
 28 27  1  0  0  0  0
 30 28  2  0  0  0  0
 31 30  1  0  0  0  0
 31 25  2  0  0  0  0
M  END
>  <Pose>
1

>  <Score>
-8.758

$$$$
