MODEL 1
REMARK VINA RESULT:    -7.923      0.000      0.000
REMARK INTER + INTRA:         -10.079
REMARK INTER:                  -9.544
REMARK INTRA:                  -0.535
REMARK UNBOUND:                -0.535
REMARK  4 active torsions:
REMARK  status: ('A' for Active; 'I' for Inactive)
REMARK    1  A    between atoms: C_4  and  N_8 
REMARK    2  A    between atoms: C_10  and  O_18 
REMARK    3  A    between atoms: C_10  and  C_19 
REMARK    4  A    between atoms: C_21  and  N_25 
ROOT
ATOM      1  N   UNK d   1      21.182  34.329  71.981  0.00  0.00     0.009 N 
ATOM      2  C   UNK d   1      20.425  35.555  71.953  0.00  0.00     0.316 C 
ATOM      3  C   UNK d   1      20.842  36.423  70.841  0.00  0.00     0.189 C 
ATOM      4  N   UNK d   1      21.910  35.689  70.225  0.00  0.00    -0.324 N 
ATOM      5  C   UNK d   1      23.013  36.095  69.386  0.00  0.00     0.128 C 
ATOM      6  C   UNK d   1      23.040  35.471  68.028  0.00  0.00     0.020 C 
ATOM      7  C   UNK d   1      22.077  34.354  67.823  0.00  0.00     0.005 C 
ATOM      8  C   UNK d   1      22.627  33.111  68.559  0.00  0.00     0.031 C 
ATOM      9  C   UNK d   1      22.037  33.222  69.954  0.00  0.00     0.030 C 
ATOM     10  C   UNK d   1      21.748  34.305  70.639  0.00  0.00     0.208 C 
ATOM     11  H   UNK d   1      21.966  34.276  72.623  0.00  0.00     0.295 HD
ENDROOT
BRANCH   3  12
ATOM     12  O   UNK d   1      21.423  37.613  71.362  0.00  0.00    -0.365 OA
ATOM     13  H   UNK d   1      22.362  37.639  70.982  0.00  0.00     0.213 HD
ENDBRANCH   3  12
BRANCH   3  14
ATOM     14  C   UNK d   1      19.818  36.871  69.927  0.00  0.00     0.001 A 
ATOM     15  C   UNK d   1      18.486  37.055  70.297  0.00  0.00     0.048 A 
ATOM     16  C   UNK d   1      17.511  37.510  69.420  0.00  0.00     0.103 A 
ATOM     17  C   UNK d   1      17.878  37.799  68.106  0.00  0.00     0.036 A 
ATOM     18  C   UNK d   1      19.171  37.631  67.702  0.00  0.00     0.003 A 
ATOM     19  C   UNK d   1      20.129  37.169  68.619  0.00  0.00     0.012 A 
BRANCH  16  20
ATOM     20  N   UNK d   1      16.179  37.672  69.865  0.00  0.00    -0.116 N 
ATOM     21  O   UNK d   1      15.946  38.351  70.913  0.00  0.00    -0.532 OA
ATOM     22  O   UNK d   1      15.116  37.139  69.236  0.00  0.00    -0.532 OA
ENDBRANCH  16  20
ENDBRANCH   3  14
BRANCH   1  23
ATOM     23  C   UNK d   1      20.414  33.139  72.075  0.00  0.00     0.143 A 
ATOM     24  C   UNK d   1      19.207  32.979  71.441  0.00  0.00     0.061 A 
ATOM     25  C   UNK d   1      18.407  31.854  71.626  0.00  0.00     0.036 A 
ATOM     26 Cl   UNK d   1      16.886  31.687  70.762  0.00  0.00    -0.084 Cl
ATOM     27  C   UNK d   1      18.820  30.846  72.473  0.00  0.00     0.024 A 
ATOM     28  C   UNK d   1      20.017  30.967  73.127  0.00  0.00     0.004 A 
ATOM     29  C   UNK d   1      20.800  32.099  72.930  0.00  0.00     0.038 A 
ENDBRANCH   1  23
TORSDOF 4
ENDMDL
