MODEL 1
REMARK VINA RESULT:   -10.300      0.000      0.000
REMARK INTER + INTRA:         -12.531
REMARK INTER:                 -12.709
REMARK INTRA:                   0.177
REMARK UNBOUND:                 0.177
REMARK  4 active torsions:
REMARK  status: ('A' for Active; 'I' for Inactive)
REMARK    1  A    between atoms: C_7  and  N_8 
REMARK    2  A    between atoms: C_14  and  C_16 
REMARK    3  A    between atoms: N_23  and  C_31 
REMARK    4  A    between atoms: C_25  and  C_28 
ROOT
ATOM      1  F   UNK d   1      19.054  37.592  70.101  0.00  0.00    -0.204 F 
ATOM      2  C   UNK d   1      18.515  36.379  70.318  0.00  0.00     0.151 A 
ATOM      3  C   UNK d   1      17.127  36.383  70.413  0.00  0.00     0.062 A 
ATOM      4  C   UNK d   1      16.437  35.210  70.626  0.00  0.00     0.045 A 
ATOM      5  C   UNK d   1      17.161  34.046  70.739  0.00  0.00     0.051 A 
ATOM      6  C   UNK d   1      18.548  34.063  70.639  0.00  0.00     0.071 A 
ATOM      7  C   UNK d   1      19.245  35.223  70.429  0.00  0.00     0.175 A 
ATOM      8  N   UNK d   1      16.465  32.910  70.946  0.00  0.00    -0.350 N 
ATOM      9  C   UNK d   1      15.123  32.888  71.041  0.00  0.00     0.114 A 
ATOM     10  C   UNK d   1      14.370  34.036  70.933  0.00  0.00     0.107 A 
ATOM     11  C   UNK d   1      15.039  35.219  70.722  0.00  0.00     0.202 A 
ATOM     12  O   UNK d   1      14.414  36.300  70.613  0.00  0.00    -0.286 OA
ENDROOT
BRANCH   7  13
ATOM     13  N   UNK d   1      20.637  35.200  70.345  0.00  0.00    -0.035 N 
ATOM     14  C   UNK d   1      21.220  36.116  69.398  0.00  0.00     0.261 C 
ATOM     15  C   UNK d   1      22.762  36.087  69.522  0.00  0.00     0.153 C 
ATOM     16  N   UNK d   1      23.144  34.779  69.161  0.00  0.00    -0.356 N 
ATOM     17  C   UNK d   1      22.683  33.792  70.213  0.00  0.00     0.153 C 
ATOM     18  C   UNK d   1      23.768  34.255  68.079  0.00  0.00     0.187 C 
ATOM     19  C   UNK d   1      21.191  33.903  70.138  0.00  0.00     0.261 C 
ATOM     20  O   UNK d   1      24.020  32.970  68.144  0.00  0.00    -0.171 OA
ATOM     21  H   UNK d   1      20.996  35.520  71.297  0.00  0.00     0.287 HD
BRANCH  18  22
ATOM     22  C   UNK d   1      24.213  34.861  66.855  0.00  0.00     0.019 A 
ATOM     23  C   UNK d   1      24.059  36.174  66.549  0.00  0.00     0.039 A 
ATOM     24  C   UNK d   1      24.555  36.728  65.376  0.00  0.00     0.035 A 
ATOM     25  C   UNK d   1      25.223  35.925  64.488  0.00  0.00     0.024 A 
ATOM     26 Cl   UNK d   1      24.331  38.443  65.023  0.00  0.00    -0.084 Cl
ATOM     27  C   UNK d   1      25.405  34.596  64.746  0.00  0.00     0.003 A 
ATOM     28  C   UNK d   1      24.908  34.083  65.905  0.00  0.00     0.016 A 
ENDBRANCH  18  22
ENDBRANCH   7  13
BRANCH   8  29
ATOM     29  C   UNK d   1      17.254  31.678  71.064  0.00  0.00     0.090 A 
ATOM     30  C   UNK d   1      16.626  30.413  71.457  0.00  0.00     0.028 A 
ATOM     31  C   UNK d   1      17.330  31.124  72.525  0.00  0.00     0.028 A 
ENDBRANCH   8  29
BRANCH  10  32
ATOM     32  C   UNK d   1      12.899  33.995  71.042  0.00  0.00     0.214 C 
ATOM     33  O   UNK d   1      12.316  33.523  72.030  0.00  0.00    -0.644 OA
ATOM     34  O   UNK d   1      12.160  34.506  69.999  0.00  0.00    -0.644 OA
ENDBRANCH  10  32
TORSDOF 4
ENDMDL
