/Users/jonathanwahrer/Desktop/Msc/3_Semester/Drug_Design_Praktikum/waehrer_HTS_screening/HTS_experiment/out/docking_results/vina_output/4x21/1491_docked.pdbqt
 OpenBabel03212202273D

 34 38  0  0  0  0  0  0  0  0999 V2000
   19.0540   37.5920   70.1010 F   0  0  0  0  0  0  0  0  0  0  0  0
   18.5150   36.3790   70.3180 C   0  0  0  0  0  0  0  0  0  0  0  0
   17.1270   36.3830   70.4130 C   0  0  0  0  0  3  0  0  0  0  0  0
   16.4370   35.2100   70.6260 C   0  0  0  0  0  0  0  0  0  0  0  0
   17.1610   34.0460   70.7390 C   0  0  0  0  0  0  0  0  0  0  0  0
   18.5480   34.0630   70.6390 C   0  0  0  0  0  3  0  0  0  0  0  0
   19.2450   35.2230   70.4290 C   0  0  0  0  0  0  0  0  0  0  0  0
   16.4650   32.9100   70.9460 N   0  0  0  0  0  0  0  0  0  0  0  0
   15.1230   32.8880   71.0410 C   0  0  0  0  0  3  0  0  0  0  0  0
   14.3700   34.0360   70.9330 C   0  0  0  0  0  0  0  0  0  0  0  0
   15.0390   35.2190   70.7220 C   0  0  0  0  0  0  0  0  0  0  0  0
   14.4140   36.3000   70.6130 O   0  0  0  0  0  0  0  0  0  0  0  0
   20.6370   35.2000   70.3450 N   0  0  0  0  0  4  0  0  0  0  0  0
   21.2200   36.1160   69.3980 C   0  0  0  0  0  2  0  0  0  0  0  0
   22.7620   36.0870   69.5220 C   0  0  0  0  0  2  0  0  0  0  0  0
   23.1440   34.7790   69.1610 N   0  0  0  0  0  0  0  0  0  0  0  0
   22.6830   33.7920   70.2130 C   0  0  0  0  0  2  0  0  0  0  0  0
   23.7680   34.2550   68.0790 C   0  0  0  0  0  0  0  0  0  0  0  0
   21.1910   33.9030   70.1380 C   0  0  0  0  0  2  0  0  0  0  0  0
   24.0200   32.9700   68.1440 O   0  0  0  0  0  0  0  0  0  0  0  0
   20.9960   35.5200   71.2970 H   0  0  0  0  0  0  0  0  0  0  0  0
   24.2130   34.8610   66.8550 C   0  0  0  0  0  0  0  0  0  0  0  0
   24.0590   36.1740   66.5490 C   0  0  0  0  0  3  0  0  0  0  0  0
   24.5550   36.7280   65.3760 C   0  0  0  0  0  0  0  0  0  0  0  0
   25.2230   35.9250   64.4880 C   0  0  0  0  0  3  0  0  0  0  0  0
   24.3310   38.4430   65.0230 Cl  0  0  0  0  0  0  0  0  0  0  0  0
   25.4050   34.5960   64.7460 C   0  0  0  0  0  3  0  0  0  0  0  0
   24.9080   34.0830   65.9050 C   0  0  0  0  0  3  0  0  0  0  0  0
   17.2540   31.6780   71.0640 C   0  0  0  0  0  3  0  0  0  0  0  0
   16.6260   30.4130   71.4570 C   0  0  0  0  0  2  0  0  0  0  0  0
   17.3300   31.1240   72.5250 C   0  0  0  0  0  2  0  0  0  0  0  0
   12.8990   33.9950   71.0420 C   0  0  0  0  0  0  0  0  0  0  0  0
   12.3160   33.5230   72.0300 O   0  0  0  0  0  1  0  0  0  0  0  0
   12.1600   34.5060   69.9990 O   0  0  0  0  0  0  0  0  0  0  0  0
  1  2  1  0  0  0  0
  2  3  2  0  0  0  0
  2  7  1  0  0  0  0
  3  4  1  0  0  0  0
  4 11  1  0  0  0  0
  4  5  2  0  0  0  0
  5  8  1  0  0  0  0
  6  5  1  0  0  0  0
  7  6  2  0  0  0  0
  8  9  1  0  0  0  0
  8 29  1  0  0  0  0
 10  9  2  0  0  0  0
 10 32  1  0  0  0  0
 11 10  1  0  0  0  0
 12 11  2  0  0  0  0
 13  7  1  0  0  0  0
 13 21  1  0  0  0  0
 14 15  1  0  0  0  0
 14 13  1  0  0  0  0
 16 15  1  0  0  0  0
 16 17  1  0  0  0  0
 18 20  2  0  0  0  0
 18 16  1  0  0  0  0
 19 17  1  0  0  0  0
 19 13  1  0  0  0  0
 22 18  1  0  0  0  0
 23 22  1  0  0  0  0
 24 23  2  0  0  0  0
 25 27  2  0  0  0  0
 25 24  1  0  0  0  0
 26 24  1  0  0  0  0
 27 28  1  0  0  0  0
 28 22  2  0  0  0  0
 29 30  1  0  0  0  0
 29 31  1  0  0  0  0
 30 31  1  0  0  0  0
 32 33  1  0  0  0  0
 34 32  2  0  0  0  0
M  END
>  <Pose>
1

>  <Score>
-10.300

$$$$
