MODEL 1
REMARK VINA RESULT:    -9.638      0.000      0.000
REMARK INTER + INTRA:         -14.697
REMARK INTER:                 -13.019
REMARK INTRA:                  -1.678
REMARK UNBOUND:                -1.678
REMARK  6 active torsions:
REMARK  status: ('A' for Active; 'I' for Inactive)
REMARK    1  A    between atoms: C_5  and  C_8 
REMARK       I    between atoms: C_8  and  N_10 
REMARK    2  A    between atoms: N_10  and  C_11 
REMARK    3  A    between atoms: C_11  and  C_12 
REMARK    4  A    between atoms: C_12  and  N_13 
REMARK       I    between atoms: N_13  and  C_14 
REMARK    5  A    between atoms: C_14  and  C_16 
REMARK    6  A    between atoms: N_19  and  C_22 
ROOT
ATOM      1  N   UNK d   1      18.077  31.102  73.339  0.00  0.00    -0.359 N 
ATOM      2  C   UNK d   1      19.219  31.575  72.597  0.00  0.00     0.222 C 
ATOM      3  O   UNK d   1      19.658  30.889  71.661  0.00  0.00    -0.273 OA
ATOM      4  H   UNK d   1      17.754  31.729  74.072  0.00  0.00     0.162 HD
ENDROOT
BRANCH   2   5
ATOM      5  C   UNK d   1      19.879  32.861  72.926  0.00  0.00     0.081 C 
ATOM      6  C   UNK d   1      18.803  33.912  73.087  0.00  0.00     0.034 C 
ATOM      7  C   UNK d   1      18.251  34.202  71.709  0.00  0.00     0.125 C 
ATOM      8  N   UNK d   1      19.313  34.912  71.003  0.00  0.00    -0.364 N 
ATOM      9  C   UNK d   1      20.675  34.573  71.239  0.00  0.00     0.125 C 
ATOM     10  C   UNK d   1      20.901  33.280  71.935  0.00  0.00     0.034 C 
BRANCH   8  11
ATOM     11  C   UNK d   1      18.928  35.926  70.096  0.00  0.00     0.148 A 
ATOM     12  N   UNK d   1      19.709  36.330  69.076  0.00  0.00    -0.129 NA
ATOM     13  N   UNK d   1      19.365  37.276  68.222  0.00  0.00    -0.108 N 
ATOM     14  N   UNK d   1      19.994  37.797  67.173  0.00  0.00    -0.021 NA
ATOM     15  C   UNK d   1      18.196  37.921  68.299  0.00  0.00     0.196 A 
ATOM     16  N   UNK d   1      19.264  38.724  66.614  0.00  0.00    -0.021 NA
ATOM     17  N   UNK d   1      18.141  38.820  67.294  0.00  0.00    -0.107 NA
ATOM     18  C   UNK d   1      17.348  37.551  69.328  0.00  0.00     0.060 A 
ATOM     19  C   UNK d   1      17.706  36.562  70.222  0.00  0.00     0.056 A 
ENDBRANCH   8  11
ENDBRANCH   2   5
BRANCH   1  20
ATOM     20  C   UNK d   1      17.520  29.868  72.947  0.00  0.00     0.142 C 
BRANCH  20  21
ATOM     21  C   UNK d   1      16.409  29.782  71.985  0.00  0.00     0.142 C 
BRANCH  21  22
ATOM     22  N   UNK d   1      15.855  30.980  71.480  0.00  0.00    -0.355 N 
ATOM     23  C   UNK d   1      14.873  31.821  71.981  0.00  0.00     0.251 C 
ATOM     24  O   UNK d   1      14.306  31.599  73.072  0.00  0.00    -0.268 OA
ATOM     25  H   UNK d   1      16.247  31.339  70.503  0.00  0.00     0.162 HD
BRANCH  23  26
ATOM     26  C   UNK d   1      14.426  33.038  71.264  0.00  0.00     0.032 A 
ATOM     27  C   UNK d   1      14.760  34.282  71.756  0.00  0.00     0.018 A 
ATOM     28  C   UNK d   1      14.375  35.439  71.121  0.00  0.00     0.025 A 
ATOM     29  C   UNK d   1      13.630  35.358  69.956  0.00  0.00     0.034 A 
ATOM     30 Cl   UNK d   1      13.131  36.829  69.137  0.00  0.00    -0.084 Cl
ATOM     31  C   UNK d   1      13.280  34.138  69.440  0.00  0.00     0.025 A 
ATOM     32  C   UNK d   1      13.689  32.983  70.111  0.00  0.00     0.018 A 
ENDBRANCH  23  26
ENDBRANCH  21  22
ENDBRANCH  20  21
ENDBRANCH   1  20
TORSDOF 6
ENDMDL
