MODEL 1
REMARK VINA RESULT:    -9.143      0.000      0.000
REMARK INTER + INTRA:         -13.069
REMARK INTER:                 -12.349
REMARK INTRA:                  -0.719
REMARK UNBOUND:                -0.719
REMARK  6 active torsions:
REMARK  status: ('A' for Active; 'I' for Inactive)
REMARK    1  A    between atoms: C_5  and  N_8 
REMARK    2  A    between atoms: N_15  and  C_16 
REMARK    3  A    between atoms: C_16  and  C_17 
REMARK       I    between atoms: C_17  and  N_19 
REMARK    4  A    between atoms: N_19  and  C_20 
REMARK    5  A    between atoms: C_22  and  O_28 
REMARK    6  A    between atoms: C_23  and  O_26 
ROOT
ATOM      1  N   UNK d   1      22.831  36.880  66.923  0.00  0.00    -0.241 N 
ATOM      2  C   UNK d   1      22.404  36.504  68.140  0.00  0.00     0.286 A 
ATOM      3  O   UNK d   1      21.973  37.327  68.988  0.00  0.00    -0.265 OA
ATOM      4  C   UNK d   1      22.507  35.133  68.305  0.00  0.00     0.155 A 
ATOM      5  C   UNK d   1      23.006  34.668  67.166  0.00  0.00     0.152 A 
ATOM      6  N   UNK d   1      23.106  33.340  67.327  0.00  0.00    -0.279 N 
ATOM      7  N   UNK d   1      22.679  33.003  68.531  0.00  0.00    -0.239 N 
ATOM      8  N   UNK d   1      22.305  34.092  69.148  0.00  0.00    -0.261 N 
ATOM      9  C   UNK d   1      23.208  35.734  66.314  0.00  0.00     0.286 A 
ATOM     10  O   UNK d   1      23.678  35.654  65.131  0.00  0.00    -0.265 OA
ATOM     11  H   UNK d   1      23.459  32.650  66.635  0.00  0.00     0.189 HD
ATOM     12  H   UNK d   1      22.636  32.026  68.949  0.00  0.00     0.208 HD
ENDROOT
BRANCH   8  13
ATOM     13  C   UNK d   1      21.772  34.210  70.484  0.00  0.00     0.254 C 
BRANCH  13  14
ATOM     14  C   UNK d   1      20.276  34.406  70.404  0.00  0.00     0.242 C 
ATOM     15  O   UNK d   1      19.544  33.420  70.166  0.00  0.00    -0.271 OA
ATOM     16  N   UNK d   1      19.722  35.680  70.597  0.00  0.00    -0.326 N 
ATOM     17  H   UNK d   1      20.410  36.477  70.798  0.00  0.00     0.169 HD
BRANCH  16  18
ATOM     18  C   UNK d   1      18.350  35.999  70.555  0.00  0.00     0.037 A 
ATOM     19  C   UNK d   1      17.332  35.243  71.077  0.00  0.00     0.069 A 
ATOM     20  C   UNK d   1      16.003  35.603  70.988  0.00  0.00     0.103 A 
ATOM     21  C   UNK d   1      15.693  36.782  70.343  0.00  0.00     0.101 A 
ATOM     22  C   UNK d   1      16.692  37.575  69.803  0.00  0.00     0.042 A 
ATOM     23  C   UNK d   1      18.004  37.197  69.902  0.00  0.00     0.032 A 
BRANCH  20  24
ATOM     24  O   UNK d   1      14.990  34.814  71.528  0.00  0.00    -0.353 OA
ATOM     25  C   UNK d   1      14.927  33.443  71.116  0.00  0.00     0.210 C 
ENDBRANCH  20  24
BRANCH  21  26
ATOM     26  O   UNK d   1      14.358  37.164  70.242  0.00  0.00    -0.353 OA
ATOM     27  C   UNK d   1      13.591  36.711  69.144  0.00  0.00     0.210 C 
ENDBRANCH  21  26
ENDBRANCH  16  18
ENDBRANCH  13  14
ENDBRANCH   8  13
BRANCH   1  28
ATOM     28  C   UNK d   1      22.901  38.175  66.337  0.00  0.00     0.046 A 
ATOM     29  C   UNK d   1      21.800  38.993  66.191  0.00  0.00     0.031 A 
ATOM     30  C   UNK d   1      21.905  40.254  65.612  0.00  0.00     0.021 A 
ATOM     31  C   UNK d   1      23.119  40.732  65.160  0.00  0.00     0.011 A 
ATOM     32 Br   UNK d   1      23.272  42.466  64.362  0.00  0.00    -0.051 Br
ATOM     33  C   UNK d   1      24.216  39.907  65.310  0.00  0.00     0.021 A 
ATOM     34  C   UNK d   1      24.110  38.657  65.885  0.00  0.00     0.031 A 
ENDBRANCH   1  28
TORSDOF 6
ENDMDL
