MODEL 1
REMARK VINA RESULT:    -9.715      0.000      0.000
REMARK INTER + INTRA:         -11.805
REMARK INTER:                 -11.419
REMARK INTRA:                  -0.386
REMARK UNBOUND:                -0.386
REMARK  3 active torsions:
REMARK  status: ('A' for Active; 'I' for Inactive)
REMARK    1  A    between atoms: C_5  and  C_8 
REMARK       I    between atoms: C_8  and  N_10 
REMARK    2  A    between atoms: N_10  and  C_11 
REMARK    3  A    between atoms: C_11  and  C_12 
REMARK       I    between atoms: C_12  and  N_14 
ROOT
ATOM      1  C   UNK d   1      18.652  37.361  68.903  0.00  0.00     0.171 C 
ATOM      2  O   UNK d   1      17.839  37.904  68.026  0.00  0.00    -0.175 OA
ATOM      3  N   UNK d   1      19.900  37.033  68.390  0.00  0.00    -0.361 N 
ATOM      4  C   UNK d   1      20.963  36.464  69.152  0.00  0.00     0.127 C 
ATOM      5  C   UNK d   1      22.257  36.566  68.312  0.00  0.00     0.057 C 
ATOM      6  C   UNK d   1      22.083  35.615  67.143  0.00  0.00     0.073 C 
ATOM      7  N   UNK d   1      21.913  34.308  67.629  0.00  0.00    -0.407 N 
ATOM      8  C   UNK d   1      23.020  33.506  67.932  0.00  0.00     0.121 C 
ATOM      9  C   UNK d   1      24.212  33.619  67.058  0.00  0.00     0.080 C 
ATOM     10  C   UNK d   1      24.224  34.838  66.222  0.00  0.00     0.062 A 
ATOM     11  N   UNK d   1      25.157  35.223  65.330  0.00  0.00    -0.246 NA
ATOM     12  C   UNK d   1      24.770  36.389  64.802  0.00  0.00     0.207 A 
ATOM     13  N   UNK d   1      23.591  36.737  65.365  0.00  0.00    -0.350 N 
ATOM     14  C   UNK d   1      23.238  35.785  66.250  0.00  0.00     0.063 A 
ATOM     15  C   UNK d   1      20.785  36.010  66.417  0.00  0.00     0.057 C 
ATOM     16  C   UNK d   1      20.192  37.276  66.968  0.00  0.00     0.127 C 
ATOM     17  H   UNK d   1      20.993  34.002  67.922  0.00  0.00     0.154 HD
ATOM     18  H   UNK d   1      23.056  37.597  65.148  0.00  0.00     0.166 HD
ENDROOT
BRANCH   1  19
ATOM     19  C   UNK d   1      18.077  37.214  70.239  0.00  0.00     0.210 C 
BRANCH  19  20
ATOM     20  N   UNK d   1      16.739  36.941  70.337  0.00  0.00    -0.349 N 
ATOM     21  C   UNK d   1      15.414  36.672  70.434  0.00  0.00     0.252 C 
ATOM     22  O   UNK d   1      14.461  37.490  70.358  0.00  0.00    -0.268 OA
ATOM     23  H   UNK d   1      16.480  38.288  70.224  0.00  0.00     0.163 HD
BRANCH  21  24
ATOM     24  C   UNK d   1      15.005  35.247  70.659  0.00  0.00     0.032 A 
ATOM     25  C   UNK d   1      15.722  34.487  71.535  0.00  0.00     0.018 A 
ATOM     26  C   UNK d   1      15.352  33.156  71.754  0.00  0.00     0.025 A 
ATOM     27  C   UNK d   1      14.276  32.654  71.077  0.00  0.00     0.034 A 
ATOM     28 Cl   UNK d   1      13.817  30.979  71.351  0.00  0.00    -0.084 Cl
ATOM     29  C   UNK d   1      13.559  33.414  70.200  0.00  0.00     0.025 A 
ATOM     30  C   UNK d   1      13.939  34.754  69.986  0.00  0.00     0.018 A 
ENDBRANCH  21  24
ENDBRANCH  19  20
ENDBRANCH   1  19
TORSDOF 3
ENDMDL
