/Users/jonathanwahrer/Desktop/Msc/3_Semester/Drug_Design_Praktikum/waehrer_HTS_screening/HTS_experiment/out/docking_results/vina_output/4x21/1516_docked.pdbqt
 OpenBabel03212202283D

 30 33  0  0  1  0  0  0  0  0999 V2000
   18.6520   37.3610   68.9030 C   0  0  0  0  0  0  0  0  0  0  0  0
   17.8390   37.9040   68.0260 O   0  0  0  0  0  0  0  0  0  0  0  0
   19.9000   37.0330   68.3900 N   0  0  0  0  0  0  0  0  0  0  0  0
   20.9630   36.4640   69.1520 C   0  0  0  0  0  2  0  0  0  0  0  0
   22.2570   36.5660   68.3120 C   0  0  0  0  0  2  0  0  0  0  0  0
   22.0830   35.6150   67.1430 C   0  0  2  0  0  0  0  0  0  0  0  0
   21.9130   34.3080   67.6290 N   0  0  0  0  0  0  0  0  0  0  0  0
   23.0200   33.5060   67.9320 C   0  0  0  0  0  2  0  0  0  0  0  0
   24.2120   33.6190   67.0580 C   0  0  0  0  0  2  0  0  0  0  0  0
   24.2240   34.8380   66.2220 C   0  0  0  0  0  0  0  0  0  0  0  0
   25.1570   35.2230   65.3300 N   0  0  0  0  0  0  0  0  0  0  0  0
   24.7700   36.3890   64.8020 C   0  0  0  0  0  3  0  0  0  0  0  0
   23.5910   36.7370   65.3650 N   0  0  0  0  0  0  0  0  0  0  0  0
   23.2380   35.7850   66.2500 C   0  0  0  0  0  0  0  0  0  0  0  0
   20.7850   36.0100   66.4170 C   0  0  0  0  0  2  0  0  0  0  0  0
   20.1920   37.2760   66.9680 C   0  0  0  0  0  2  0  0  0  0  0  0
   20.9930   34.0020   67.9220 H   0  0  0  0  0  0  0  0  0  0  0  0
   23.0560   37.5970   65.1480 H   0  0  0  0  0  0  0  0  0  0  0  0
   18.0770   37.2140   70.2390 C   0  0  0  0  0  2  0  0  0  0  0  0
   16.7390   36.9410   70.3370 N   0  0  0  0  0  0  0  0  0  0  0  0
   15.4140   36.6720   70.4340 C   0  0  0  0  0  0  0  0  0  0  0  0
   14.4610   37.4900   70.3580 O   0  0  0  0  0  0  0  0  0  0  0  0
   16.4800   38.2880   70.2240 H   0  0  0  0  0  0  0  0  0  0  0  0
   15.0050   35.2470   70.6590 C   0  0  0  0  0  0  0  0  0  0  0  0
   15.7220   34.4870   71.5350 C   0  0  0  0  0  3  0  0  0  0  0  0
   15.3520   33.1560   71.7540 C   0  0  0  0  0  3  0  0  0  0  0  0
   14.2760   32.6540   71.0770 C   0  0  0  0  0  0  0  0  0  0  0  0
   13.8170   30.9790   71.3510 Cl  0  0  0  0  0  0  0  0  0  0  0  0
   13.5590   33.4140   70.2000 C   0  0  0  0  0  3  0  0  0  0  0  0
   13.9390   34.7540   69.9860 C   0  0  0  0  0  3  0  0  0  0  0  0
  1 19  1  0  0  0  0
  2  1  2  0  0  0  0
  3  1  1  0  0  0  0
  3  4  1  0  0  0  0
  5  4  1  0  0  0  0
  6 15  1  6  0  0  0
  6  7  1  0  0  0  0
  6  5  1  0  0  0  0
  7 17  1  0  0  0  0
  7  8  1  0  0  0  0
  9  8  1  0  0  0  0
 10 14  2  0  0  0  0
 10  9  1  0  0  0  0
 11 10  1  0  0  0  0
 12 11  2  0  0  0  0
 12 13  1  0  0  0  0
 13 14  1  0  0  0  0
 14  6  1  0  0  0  0
 15 16  1  0  0  0  0
 16  3  1  0  0  0  0
 18 13  1  0  0  0  0
 19 20  1  0  0  0  0
 20 21  1  0  0  0  0
 21 24  1  0  0  0  0
 22 21  2  0  0  0  0
 23 20  1  0  0  0  0
 24 25  1  0  0  0  0
 25 26  2  0  0  0  0
 27 28  1  0  0  0  0
 27 26  1  0  0  0  0
 29 27  2  0  0  0  0
 30 29  1  0  0  0  0
 30 24  2  0  0  0  0
M  END
>  <Pose>
1

>  <Score>
-9.715

$$$$
