/Users/jonathanwahrer/Desktop/Msc/3_Semester/Drug_Design_Praktikum/waehrer_HTS_screening/HTS_experiment/out/docking_results/vina_output/4x21/1518_docked.pdbqt
 OpenBabel03212202283D

 31 34  0  0  1  0  0  0  0  0999 V2000
   19.3040   37.0250   69.2940 C   0  0  0  0  0  0  0  0  0  0  0  0
   19.3970   36.6170   70.4780 O   0  0  0  0  0  0  0  0  0  0  0  0
   20.4080   36.9290   68.4160 N   0  0  0  0  0  0  0  0  0  0  0  0
   20.3640   37.3820   67.0400 C   0  0  0  0  0  2  0  0  0  0  0  0
   21.2700   36.4720   66.2250 C   0  0  0  0  0  2  0  0  0  0  0  0
   22.7200   36.6120   66.6890 C   0  0  1  0  0  0  0  0  0  0  0  0
   23.3260   35.3200   66.5460 N   0  0  0  0  0  0  0  0  0  0  0  0
   24.7700   35.4020   66.4850 C   0  0  0  0  0  2  0  0  0  0  0  0
   25.1650   36.0150   65.1440 C   0  0  0  0  0  2  0  0  0  0  0  0
   24.5500   37.3730   65.1100 C   0  0  0  0  0  0  0  0  0  0  0  0
   24.9090   38.5170   64.4530 N   0  0  0  0  0  0  0  0  0  0  0  0
   24.0110   39.4690   64.7630 C   0  0  0  0  0  3  0  0  0  0  0  0
   23.1070   38.9280   65.6000 N   0  0  0  0  0  0  0  0  0  0  0  0
   23.4100   37.6190   65.8410 C   0  0  0  0  0  0  0  0  0  0  0  0
   22.7780   37.0300   68.1430 C   0  0  0  0  0  2  0  0  0  0  0  0
   21.6570   36.3560   68.8780 C   0  0  0  0  0  2  0  0  0  0  0  0
   23.0350   34.6720   67.3040 H   0  0  0  0  0  0  0  0  0  0  0  0
   25.7500   38.5560   63.8350 H   0  0  0  0  0  0  0  0  0  0  0  0
   18.0150   37.6040   68.8540 C   0  0  0  0  0  2  0  0  0  0  0  0
   17.0140   37.7020   69.9620 C   0  0  0  0  0  2  0  0  0  0  0  0
   16.5980   36.3710   70.3610 N   0  0  0  0  0  0  0  0  0  0  0  0
   15.2740   36.0140   70.6190 C   0  0  0  0  0  0  0  0  0  0  0  0
   14.3580   36.8670   70.5090 O   0  0  0  0  0  0  0  0  0  0  0  0
   17.3730   35.6710   70.4450 H   0  0  0  0  0  0  0  0  0  0  0  0
   14.8910   34.6630   71.0200 C   0  0  0  0  0  0  0  0  0  0  0  0
   13.6610   34.1260   70.7110 C   0  0  0  0  0  3  0  0  0  0  0  0
   13.3530   32.8370   71.1200 C   0  0  0  0  0  3  0  0  0  0  0  0
   14.2560   32.0670   71.8400 C   0  0  0  0  0  0  0  0  0  0  0  0
   13.7850   30.4490   72.3180 Cl  0  0  0  0  0  0  0  0  0  0  0  0
   15.4900   32.5950   72.1570 C   0  0  0  0  0  3  0  0  0  0  0  0
   15.7780   33.8670   71.7440 C   0  0  0  0  0  3  0  0  0  0  0  0
  1  2  2  0  0  0  0
  3 16  1  0  0  0  0
  3  1  1  0  0  0  0
  4  3  1  0  0  0  0
  5  4  1  0  0  0  0
  6  5  1  6  0  0  0
  6 15  1  0  0  0  0
  7  6  1  0  0  0  0
  7 17  1  0  0  0  0
  8  7  1  0  0  0  0
  9  8  1  0  0  0  0
 10  9  1  0  0  0  0
 10 14  2  0  0  0  0
 11 12  1  0  0  0  0
 11 10  1  0  0  0  0
 12 13  2  0  0  0  0
 13 14  1  0  0  0  0
 14  6  1  0  0  0  0
 15 16  1  0  0  0  0
 18 11  1  0  0  0  0
 19  1  1  0  0  0  0
 19 20  1  0  0  0  0
 20 21  1  0  0  0  0
 21 24  1  0  0  0  0
 21 22  1  0  0  0  0
 22 25  1  0  0  0  0
 23 22  2  0  0  0  0
 25 31  1  0  0  0  0
 26 25  2  0  0  0  0
 26 27  1  0  0  0  0
 27 28  2  0  0  0  0
 28 30  1  0  0  0  0
 28 29  1  0  0  0  0
 31 30  2  0  0  0  0
M  END
>  <Pose>
1

>  <Score>
-9.368

$$$$
