MODEL 1
REMARK VINA RESULT:    -9.368      0.000      0.000
REMARK INTER + INTRA:         -12.091
REMARK INTER:                 -11.558
REMARK INTRA:                  -0.533
REMARK UNBOUND:                -0.533
REMARK  4 active torsions:
REMARK  status: ('A' for Active; 'I' for Inactive)
REMARK    1  A    between atoms: C_5  and  C_8 
REMARK       I    between atoms: C_8  and  N_10 
REMARK    2  A    between atoms: N_10  and  C_11 
REMARK    3  A    between atoms: C_11  and  C_12 
REMARK    4  A    between atoms: C_12  and  C_13 
REMARK       I    between atoms: C_13  and  N_15 
ROOT
ATOM      1  C   UNK d   1      19.304  37.025  69.294  0.00  0.00     0.221 C 
ATOM      2  O   UNK d   1      19.397  36.617  70.478  0.00  0.00    -0.273 OA
ATOM      3  N   UNK d   1      20.408  36.929  68.416  0.00  0.00    -0.352 N 
ATOM      4  C   UNK d   1      20.364  37.382  67.040  0.00  0.00     0.129 C 
ATOM      5  C   UNK d   1      21.270  36.472  66.225  0.00  0.00     0.068 C 
ATOM      6  C   UNK d   1      22.720  36.612  66.689  0.00  0.00     0.206 C 
ATOM      7  N   UNK d   1      23.326  35.320  66.546  0.00  0.00     0.099 N 
ATOM      8  C   UNK d   1      24.770  35.402  66.485  0.00  0.00     0.277 C 
ATOM      9  C   UNK d   1      25.165  36.015  65.144  0.00  0.00     0.089 C 
ATOM     10  C   UNK d   1      24.550  37.373  65.110  0.00  0.00     0.039 A 
ATOM     11  N   UNK d   1      24.909  38.517  64.453  0.00  0.00    -0.352 N 
ATOM     12  C   UNK d   1      24.011  39.469  64.763  0.00  0.00     0.207 A 
ATOM     13  N   UNK d   1      23.107  38.928  65.600  0.00  0.00    -0.244 NA
ATOM     14  C   UNK d   1      23.410  37.619  65.841  0.00  0.00     0.097 A 
ATOM     15  C   UNK d   1      22.778  37.030  68.143  0.00  0.00     0.068 C 
ATOM     16  C   UNK d   1      21.657  36.356  68.878  0.00  0.00     0.129 C 
ATOM     17  H   UNK d   1      23.035  34.672  67.304  0.00  0.00     0.317 HD
ATOM     18  H   UNK d   1      25.750  38.556  63.835  0.00  0.00     0.166 HD
ENDROOT
BRANCH   1  19
ATOM     19  C   UNK d   1      18.015  37.604  68.854  0.00  0.00     0.122 C 
BRANCH  19  20
ATOM     20  C   UNK d   1      17.014  37.702  69.962  0.00  0.00     0.132 C 
BRANCH  20  21
ATOM     21  N   UNK d   1      16.598  36.371  70.361  0.00  0.00    -0.356 N 
ATOM     22  C   UNK d   1      15.274  36.014  70.619  0.00  0.00     0.251 C 
ATOM     23  O   UNK d   1      14.358  36.867  70.509  0.00  0.00    -0.268 OA
ATOM     24  H   UNK d   1      17.373  35.671  70.445  0.00  0.00     0.162 HD
BRANCH  22  25
ATOM     25  C   UNK d   1      14.891  34.663  71.020  0.00  0.00     0.032 A 
ATOM     26  C   UNK d   1      13.661  34.126  70.711  0.00  0.00     0.018 A 
ATOM     27  C   UNK d   1      13.353  32.837  71.120  0.00  0.00     0.025 A 
ATOM     28  C   UNK d   1      14.256  32.067  71.840  0.00  0.00     0.034 A 
ATOM     29 Cl   UNK d   1      13.785  30.449  72.318  0.00  0.00    -0.084 Cl
ATOM     30  C   UNK d   1      15.490  32.595  72.157  0.00  0.00     0.025 A 
ATOM     31  C   UNK d   1      15.778  33.867  71.744  0.00  0.00     0.018 A 
ENDBRANCH  22  25
ENDBRANCH  20  21
ENDBRANCH  19  20
ENDBRANCH   1  19
TORSDOF 4
ENDMDL
