MODEL 1
REMARK VINA RESULT:    -7.773      0.000      0.000
REMARK INTER + INTRA:          -9.150
REMARK INTER:                  -8.909
REMARK INTRA:                  -0.241
REMARK UNBOUND:                -0.241
REMARK  3 active torsions:
REMARK  status: ('A' for Active; 'I' for Inactive)
REMARK    1  A    between atoms: N_12  and  C_15 
REMARK    2  A    between atoms: C_15  and  C_16 
REMARK    3  A    between atoms: C_16  and  O_21 
ROOT
ATOM      1 Cl   UNK d   1      12.959  34.580  69.332  0.00  0.00    -0.082 Cl
ATOM      2  C   UNK d   1      14.363  35.472  69.880  0.00  0.00     0.061 A 
ATOM      3  C   UNK d   1      15.486  34.787  70.277  0.00  0.00     0.065 A 
ATOM      4  N   UNK d   1      15.818  33.488  70.362  0.00  0.00    -0.357 N 
ATOM      5  C   UNK d   1      17.073  33.328  70.823  0.00  0.00     0.020 A 
ATOM      6  C   UNK d   1      17.552  34.602  71.039  0.00  0.00    -0.006 A 
ATOM      7  C   UNK d   1      16.580  35.521  70.705  0.00  0.00     0.002 A 
ATOM      8  C   UNK d   1      16.508  36.899  70.718  0.00  0.00     0.014 A 
ATOM      9  C   UNK d   1      15.399  37.606  70.327  0.00  0.00     0.003 A 
ATOM     10  C   UNK d   1      14.302  36.866  69.898  0.00  0.00     0.026 A 
ATOM     11  C   UNK d   1      18.941  34.688  71.554  0.00  0.00     0.158 C 
ATOM     12  N   UNK d   1      19.718  33.862  70.658  0.00  0.00    -0.405 N 
ATOM     13  C   UNK d   1      19.430  32.483  70.722  0.00  0.00     0.123 C 
ATOM     14  C   UNK d   1      18.001  32.222  71.140  0.00  0.00     0.077 C 
ATOM     15  H   UNK d   1      15.205  32.662  70.111  0.00  0.00     0.166 HD
ENDROOT
BRANCH  12  16
ATOM     16  C   UNK d   1      21.046  34.271  70.478  0.00  0.00     0.156 C 
BRANCH  16  17
ATOM     17  C   UNK d   1      21.289  34.923  69.151  0.00  0.00     0.101 A 
ATOM     18  C   UNK d   1      20.439  36.123  68.913  0.00  0.00     0.308 A 
ATOM     19  N   UNK d   1      21.249  37.257  68.627  0.00  0.00     0.086 N 
ATOM     20  C   UNK d   1      22.624  36.888  68.721  0.00  0.00     0.272 A 
ATOM     21  H   UNK d   1      21.019  37.724  67.718  0.00  0.00     0.315 HD
ATOM     22  C   UNK d   1      22.696  35.455  69.130  0.00  0.00     0.071 A 
BRANCH  17  23
ATOM     23  O   UNK d   1      21.194  33.994  68.108  0.00  0.00    -0.386 OA
ATOM     24  H   UNK d   1      20.442  33.390  68.350  0.00  0.00     0.210 HD
ENDBRANCH  17  23
ENDBRANCH  16  17
ENDBRANCH  12  16
TORSDOF 3
ENDMDL
