/Users/jonathanwahrer/Desktop/Msc/3_Semester/Drug_Design_Praktikum/waehrer_HTS_screening/HTS_experiment/out/docking_results/vina_output/4x21/1525_docked.pdbqt
 OpenBabel03212202283D

 26 29  0  0  1  0  0  0  0  0999 V2000
   15.8780   32.3560   71.2640 N   0  0  0  0  0  0  0  0  0  0  0  0
   17.2080   31.9670   70.9430 C   0  0  0  0  0  0  0  0  0  0  0  0
   17.8110   32.3530   69.9130 O   0  0  0  0  0  0  0  0  0  0  0  0
   17.6590   31.0840   72.0110 C   0  0  2  0  0  3  0  0  0  0  0  0
   16.3760   30.4310   72.4820 C   0  0  0  0  0  2  0  0  0  0  0  0
   15.3050   31.3910   72.1550 C   0  0  0  0  0  0  0  0  0  0  0  0
   14.1140   31.3820   72.5650 O   0  0  0  0  0  0  0  0  0  0  0  0
   18.3900   31.6790   73.0570 N   0  0  2  0  0  0  0  0  0  0  0  0
   18.1370   33.0300   73.3570 C   0  0  0  0  0  2  0  0  0  0  0  0
   19.1900   33.8950   72.6500 C   0  0  0  0  0  2  0  0  0  0  0  0
   20.3170   33.0670   72.2500 N   0  0  0  0  0  0  0  0  0  0  0  0
   20.7750   31.9530   73.0560 C   0  0  0  0  0  2  0  0  0  0  0  0
   19.5920   31.1260   73.4990 C   0  0  0  0  0  2  0  0  0  0  0  0
   21.0120   33.3130   71.0200 C   0  0  0  0  0  0  0  0  0  0  0  0
   20.5830   34.2550   70.1540 N   0  0  0  0  0  0  0  0  0  0  0  0
   21.2510   34.4920   69.0080 C   0  0  0  0  0  3  0  0  0  0  0  0
   22.3990   33.7820   68.6760 C   0  0  0  0  0  3  0  0  0  0  0  0
   22.8340   32.8180   69.5690 C   0  0  0  0  0  3  0  0  0  0  0  0
   22.1240   32.6290   70.6950 N   0  0  0  0  0  0  0  0  0  0  0  0
   15.2450   33.5360   70.7670 C   0  0  0  0  0  0  0  0  0  0  0  0
   15.8280   34.7850   70.8160 C   0  0  0  0  0  3  0  0  0  0  0  0
   15.1710   35.9050   70.3150 C   0  0  0  0  0  0  0  0  0  0  0  0
   15.9660   37.6330   70.3780 Br  0  0  0  0  0  0  0  0  0  0  0  0
   13.9170   35.7920   69.7550 C   0  0  0  0  0  3  0  0  0  0  0  0
   13.3180   34.5570   69.6970 C   0  0  0  0  0  3  0  0  0  0  0  0
   13.9800   33.4680   70.1940 C   0  0  0  0  0  3  0  0  0  0  0  0
  1  6  1  0  0  0  0
  2  1  1  0  0  0  0
  2  4  1  0  0  0  0
  3  2  2  0  0  0  0
  4  5  1  1  0  0  0
  4  8  1  0  0  0  0
  6  5  1  0  0  0  0
  6  7  2  0  0  0  0
  8  9  1  6  0  0  0
  8 13  1  0  0  0  0
 10  9  1  0  0  0  0
 11 10  1  0  0  0  0
 11 12  1  0  0  0  0
 12 13  1  0  0  0  0
 14 11  1  0  0  0  0
 15 14  2  0  0  0  0
 16 15  1  0  0  0  0
 17 16  2  0  0  0  0
 17 18  1  0  0  0  0
 18 19  2  0  0  0  0
 19 14  1  0  0  0  0
 20 21  1  0  0  0  0
 20  1  1  0  0  0  0
 22 23  1  0  0  0  0
 22 21  2  0  0  0  0
 24 22  1  0  0  0  0
 25 24  2  0  0  0  0
 25 26  1  0  0  0  0
 26 20  2  0  0  0  0
M  END
>  <Pose>
1

>  <Score>
-8.295

$$$$
