MODEL 1
REMARK VINA RESULT:    -8.295      0.000      0.000
REMARK INTER + INTRA:         -10.158
REMARK INTER:                  -9.750
REMARK INTRA:                  -0.408
REMARK UNBOUND:                -0.408
REMARK  3 active torsions:
REMARK  status: ('A' for Active; 'I' for Inactive)
REMARK    1  A    between atoms: C_4  and  N_8 
REMARK    2  A    between atoms: C_11  and  N_15 
REMARK    3  A    between atoms: N_18  and  C_21 
ROOT
ATOM      1  N   UNK d   1      15.878  32.356  71.264  0.00  0.00    -0.251 N 
ATOM      2  C   UNK d   1      17.208  31.967  70.943  0.00  0.00     0.254 C 
ATOM      3  O   UNK d   1      17.811  32.353  69.913  0.00  0.00    -0.270 OA
ATOM      4  C   UNK d   1      17.659  31.084  72.011  0.00  0.00     0.181 C 
ATOM      5  C   UNK d   1      16.376  30.431  72.482  0.00  0.00     0.138 C 
ATOM      6  C   UNK d   1      15.305  31.391  72.155  0.00  0.00     0.233 C 
ATOM      7  O   UNK d   1      14.114  31.382  72.565  0.00  0.00    -0.273 OA
ENDROOT
BRANCH   4   8
ATOM      8  N   UNK d   1      18.390  31.679  73.057  0.00  0.00    -0.397 N 
ATOM      9  C   UNK d   1      18.137  33.030  73.357  0.00  0.00     0.138 C 
ATOM     10  C   UNK d   1      19.190  33.895  72.650  0.00  0.00     0.161 C 
ATOM     11  N   UNK d   1      20.317  33.067  72.250  0.00  0.00    -0.211 N 
ATOM     12  C   UNK d   1      20.775  31.953  73.056  0.00  0.00     0.161 C 
ATOM     13  C   UNK d   1      19.592  31.126  73.499  0.00  0.00     0.138 C 
BRANCH  11  14
ATOM     14  C   UNK d   1      21.012  33.313  71.020  0.00  0.00     0.724 A 
ATOM     15  N   UNK d   1      20.583  34.255  70.154  0.00  0.00    -0.075 NA
ATOM     16  C   UNK d   1      21.251  34.492  69.008  0.00  0.00     0.138 A 
ATOM     17  C   UNK d   1      22.399  33.782  68.676  0.00  0.00     0.040 A 
ATOM     18  C   UNK d   1      22.834  32.818  69.569  0.00  0.00     0.138 A 
ATOM     19  N   UNK d   1      22.124  32.629  70.695  0.00  0.00    -0.075 NA
ENDBRANCH  11  14
ENDBRANCH   4   8
BRANCH   1  20
ATOM     20  C   UNK d   1      15.245  33.536  70.767  0.00  0.00     0.046 A 
ATOM     21  C   UNK d   1      15.828  34.785  70.816  0.00  0.00     0.049 A 
ATOM     22  C   UNK d   1      15.171  35.905  70.315  0.00  0.00     0.013 A 
ATOM     23 Br   UNK d   1      15.966  37.633  70.378  0.00  0.00    -0.051 Br
ATOM     24  C   UNK d   1      13.917  35.792  69.755  0.00  0.00     0.019 A 
ATOM     25  C   UNK d   1      13.318  34.557  69.697  0.00  0.00     0.004 A 
ATOM     26  C   UNK d   1      13.980  33.468  70.194  0.00  0.00     0.030 A 
ENDBRANCH   1  20
TORSDOF 3
ENDMDL
