MODEL 1
REMARK VINA RESULT:    -9.158      0.000      0.000
REMARK INTER + INTRA:         -11.378
REMARK INTER:                 -11.300
REMARK INTRA:                  -0.078
REMARK UNBOUND:                -0.078
REMARK  4 active torsions:
REMARK  status: ('A' for Active; 'I' for Inactive)
REMARK    1  A    between atoms: C_6  and  C_8 
REMARK    2  A    between atoms: N_11  and  C_13 
REMARK    3  A    between atoms: C_14  and  C_16 
REMARK    4  A    between atoms: C_18  and  N_22 
ROOT
ATOM      1  C   UNK d   1      16.332  34.640  70.847  0.00  0.00     0.061 A 
ATOM      2  N   UNK d   1      15.017  34.758  70.528  0.00  0.00    -0.335 N 
ATOM      3  C   UNK d   1      14.819  35.911  69.882  0.00  0.00     0.086 A 
ATOM      4  N   UNK d   1      16.003  36.585  69.756  0.00  0.00    -0.338 N 
ATOM      5  C   UNK d   1      16.915  35.797  70.350  0.00  0.00     0.123 A 
ATOM      6  C   UNK d   1      13.392  36.082  69.526  0.00  0.00     0.078 C 
ATOM      7  C   UNK d   1      12.900  34.662  69.558  0.00  0.00     0.028 C 
ATOM      8  C   UNK d   1      13.746  34.041  70.645  0.00  0.00     0.131 C 
ENDROOT
BRANCH   4   9
ATOM      9  C   UNK d   1      16.199  37.877  69.165  0.00  0.00     0.198 C 
ATOM     10  C   UNK d   1      17.438  38.265  68.547  0.00  0.00     0.113 C 
ATOM     11  O   UNK d   1      17.408  39.498  68.050  0.00  0.00    -0.194 OA
BRANCH  10  12
ATOM     12  C   UNK d   1      18.707  37.613  68.346  0.00  0.00     0.000 A 
ATOM     13  C   UNK d   1      19.402  37.076  69.453  0.00  0.00     0.050 A 
ATOM     14  C   UNK d   1      20.611  36.438  69.362  0.00  0.00     0.103 A 
ATOM     15  C   UNK d   1      21.159  36.329  68.100  0.00  0.00     0.036 A 
ATOM     16  C   UNK d   1      20.501  36.844  67.005  0.00  0.00     0.003 A 
ATOM     17  C   UNK d   1      19.269  37.493  67.104  0.00  0.00     0.014 A 
BRANCH  14  18
ATOM     18  N   UNK d   1      21.291  35.908  70.484  0.00  0.00    -0.116 N 
ATOM     19  O   UNK d   1      21.133  36.434  71.591  0.00  0.00    -0.532 OA
ATOM     20  O   UNK d   1      22.119  34.828  70.380  0.00  0.00    -0.532 OA
ENDBRANCH  14  18
ENDBRANCH  10  12
ENDBRANCH   4   9
BRANCH   1  21
ATOM     21  C   UNK d   1      17.044  33.572  71.548  0.00  0.00    -0.006 A 
ATOM     22  C   UNK d   1      18.168  33.897  72.274  0.00  0.00     0.015 A 
ATOM     23  C   UNK d   1      18.886  32.929  72.980  0.00  0.00     0.026 A 
ATOM     24  C   UNK d   1      18.457  31.622  72.948  0.00  0.00     0.055 A 
ATOM     25  C   UNK d   1      17.344  31.293  72.231  0.00  0.00     0.056 A 
ATOM     26 Cl   UNK d   1      19.377  30.415  73.847  0.00  0.00    -0.083 Cl
ATOM     27 Cl   UNK d   1      16.827  29.621  72.211  0.00  0.00    -0.083 Cl
ATOM     28  C   UNK d   1      16.640  32.269  71.532  0.00  0.00     0.039 A 
ENDBRANCH   1  21
TORSDOF 4
ENDMDL
