MODEL 1
REMARK VINA RESULT:    -8.971      0.000      0.000
REMARK INTER + INTRA:         -11.331
REMARK INTER:                 -10.544
REMARK INTRA:                  -0.787
REMARK UNBOUND:                -0.787
REMARK  3 active torsions:
REMARK  status: ('A' for Active; 'I' for Inactive)
REMARK    1  A    between atoms: S_1  and  N_4 
REMARK    2  A    between atoms: S_1  and  C_19 
REMARK    3  A    between atoms: C_7  and  C_10 
REMARK       I    between atoms: C_10  and  N_12 
ROOT
ATOM      1  S   UNK d   1      21.219  36.864  69.437  0.00  0.00     0.262 S 
ATOM      2  O   UNK d   1      20.809  37.979  68.469  0.00  0.00    -0.200 OA
ATOM      3  O   UNK d   1      21.929  37.624  70.560  0.00  0.00    -0.200 OA
ENDROOT
BRANCH   1   4
ATOM      4  N   UNK d   1      22.297  35.876  68.666  0.00  0.00    -0.307 N 
ATOM      5  C   UNK d   1      23.675  35.924  68.842  0.00  0.00     0.136 C 
ATOM      6  C   UNK d   1      24.444  36.787  67.896  0.00  0.00     0.034 C 
ATOM      7  C   UNK d   1      23.626  36.980  66.621  0.00  0.00     0.081 C 
ATOM      8  C   UNK d   1      23.041  35.583  66.355  0.00  0.00     0.034 C 
ATOM      9  C   UNK d   1      21.886  35.447  67.334  0.00  0.00     0.136 C 
BRANCH   7  10
ATOM     10  C   UNK d   1      24.437  37.450  65.511  0.00  0.00     0.224 C 
ATOM     11  O   UNK d   1      25.229  36.656  64.940  0.00  0.00    -0.273 OA
ATOM     12  N   UNK d   1      24.359  38.769  65.053  0.00  0.00    -0.348 N 
ATOM     13  C   UNK d   1      25.134  39.266  63.910  0.00  0.00     0.156 C 
ATOM     14  C   UNK d   1      23.518  39.735  65.702  0.00  0.00     0.156 C 
ATOM     15  C   UNK d   1      24.927  40.765  63.874  0.00  0.00     0.291 C 
ATOM     16  N   UNK d   1      23.528  41.076  63.652  0.00  0.00     0.087 N 
ATOM     17  C   UNK d   1      22.691  40.525  64.703  0.00  0.00     0.291 C 
ATOM     18  C   UNK d   1      23.325  42.504  63.531  0.00  0.00     0.310 C 
ENDBRANCH   7  10
ENDBRANCH   1   4
BRANCH   1  19
ATOM     19  C   UNK d   1      19.729  36.186  70.023  0.00  0.00     0.104 A 
ATOM     20  C   UNK d   1      18.513  36.793  69.667  0.00  0.00     0.066 A 
ATOM     21  C   UNK d   1      17.302  36.347  70.130  0.00  0.00     0.097 A 
ATOM     22  C   UNK d   1      17.255  35.275  70.967  0.00  0.00     0.070 A 
ATOM     23  O   UNK d   1      16.110  36.979  69.752  0.00  0.00    -0.340 OA
ATOM     24  C   UNK d   1      18.409  34.641  71.348  0.00  0.00     0.058 A 
ATOM     25  N   UNK d   1      15.976  34.825  71.446  0.00  0.00    -0.323 N 
ATOM     26  C   UNK d   1      19.630  35.114  70.861  0.00  0.00     0.059 A 
ATOM     27 Cl   UNK d   1      21.068  34.217  71.319  0.00  0.00    -0.083 Cl
ATOM     28  C   UNK d   1      14.800  35.502  71.039  0.00  0.00     0.246 C 
ATOM     29  H   UNK d   1      15.930  34.006  72.085  0.00  0.00     0.169 HD
ATOM     30  O   UNK d   1      13.676  34.960  71.099  0.00  0.00    -0.271 OA
ATOM     31  C   UNK d   1      14.949  36.893  70.535  0.00  0.00     0.278 C 
ENDBRANCH   1  19
TORSDOF 3
ENDMDL
