/Users/jonathanwahrer/Desktop/Msc/3_Semester/Drug_Design_Praktikum/waehrer_HTS_screening/HTS_experiment/out/docking_results/vina_output/4x21/1536_docked.pdbqt
 OpenBabel03212202293D

 31 34  0  0  1  0  0  0  0  0999 V2000
   21.2190   36.8640   69.4370 S   0  0  0  0  0  0  0  0  0  0  0  0
   20.8090   37.9790   68.4690 O   0  0  0  0  0  0  0  0  0  0  0  0
   21.9290   37.6240   70.5600 O   0  0  0  0  0  0  0  0  0  0  0  0
   22.2970   35.8760   68.6660 N   0  0  0  0  0  0  0  0  0  0  0  0
   23.6750   35.9240   68.8420 C   0  0  0  0  0  2  0  0  0  0  0  0
   24.4440   36.7870   67.8960 C   0  0  0  0  0  2  0  0  0  0  0  0
   23.6260   36.9800   66.6210 C   0  0  2  0  0  3  0  0  0  0  0  0
   23.0410   35.5830   66.3550 C   0  0  0  0  0  2  0  0  0  0  0  0
   21.8860   35.4470   67.3340 C   0  0  0  0  0  2  0  0  0  0  0  0
   24.4370   37.4500   65.5110 C   0  0  0  0  0  0  0  0  0  0  0  0
   25.2290   36.6560   64.9400 O   0  0  0  0  0  0  0  0  0  0  0  0
   24.3590   38.7690   65.0530 N   0  0  0  0  0  0  0  0  0  0  0  0
   25.1340   39.2660   63.9100 C   0  0  0  0  0  2  0  0  0  0  0  0
   23.5180   39.7350   65.7020 C   0  0  0  0  0  2  0  0  0  0  0  0
   24.9270   40.7650   63.8740 C   0  0  0  0  0  2  0  0  0  0  0  0
   23.5280   41.0760   63.6520 N   0  0  0  0  0  0  0  0  0  0  0  0
   22.6910   40.5250   64.7030 C   0  0  0  0  0  2  0  0  0  0  0  0
   23.3250   42.5040   63.5310 C   0  0  0  0  0  1  0  0  0  0  0  0
   19.7290   36.1860   70.0230 C   0  0  0  0  0  0  0  0  0  0  0  0
   18.5130   36.7930   69.6670 C   0  0  0  0  0  3  0  0  0  0  0  0
   17.3020   36.3470   70.1300 C   0  0  0  0  0  0  0  0  0  0  0  0
   17.2550   35.2750   70.9670 C   0  0  0  0  0  0  0  0  0  0  0  0
   16.1100   36.9790   69.7520 O   0  0  0  0  0  0  0  0  0  0  0  0
   18.4090   34.6410   71.3480 C   0  0  0  0  0  3  0  0  0  0  0  0
   15.9760   34.8250   71.4460 N   0  0  0  0  0  0  0  0  0  0  0  0
   19.6300   35.1140   70.8610 C   0  0  0  0  0  0  0  0  0  0  0  0
   21.0680   34.2170   71.3190 Cl  0  0  0  0  0  0  0  0  0  0  0  0
   14.8000   35.5020   71.0390 C   0  0  0  0  0  0  0  0  0  0  0  0
   15.9300   34.0060   72.0850 H   0  0  0  0  0  0  0  0  0  0  0  0
   13.6760   34.9600   71.0990 O   0  0  0  0  0  0  0  0  0  0  0  0
   14.9490   36.8930   70.5350 C   0  0  0  0  0  2  0  0  0  0  0  0
  1 19  1  0  0  0  0
  1  3  2  0  0  0  0
  2  1  2  0  0  0  0
  4  5  1  0  0  0  0
  4  1  1  0  0  0  0
  6  5  1  0  0  0  0
  7 10  1  6  0  0  0
  7  6  1  0  0  0  0
  8  7  1  0  0  0  0
  8  9  1  0  0  0  0
  9  4  1  0  0  0  0
 11 10  2  0  0  0  0
 12 10  1  0  0  0  0
 12 14  1  0  0  0  0
 13 12  1  0  0  0  0
 15 13  1  0  0  0  0
 16 15  1  0  0  0  0
 16 17  1  0  0  0  0
 17 14  1  0  0  0  0
 18 16  1  0  0  0  0
 19 26  1  0  0  0  0
 20 19  2  0  0  0  0
 20 21  1  0  0  0  0
 21 22  2  0  0  0  0
 22 24  1  0  0  0  0
 22 25  1  0  0  0  0
 23 21  1  0  0  0  0
 23 31  1  0  0  0  0
 25 29  1  0  0  0  0
 26 27  1  0  0  0  0
 26 24  2  0  0  0  0
 28 30  2  0  0  0  0
 28 25  1  0  0  0  0
 31 28  1  0  0  0  0
M  END
>  <Pose>
1

>  <Score>
-8.971

$$$$
