MODEL 1
REMARK VINA RESULT:    -7.914      0.000      0.000
REMARK INTER + INTRA:         -11.498
REMARK INTER:                 -10.689
REMARK INTRA:                  -0.808
REMARK UNBOUND:                -0.808
REMARK  6 active torsions:
REMARK  status: ('A' for Active; 'I' for Inactive)
REMARK    1  A    between atoms: C_5  and  C_8 
REMARK    2  A    between atoms: N_9  and  C_26 
REMARK    3  A    between atoms: C_15  and  C_17 
REMARK    4  A    between atoms: C_20  and  O_23 
REMARK    5  A    between atoms: C_26  and  C_27 
REMARK    6  A    between atoms: C_27  and  N_28 
ROOT
ATOM      1  C   UNK d   1      23.766  36.730  68.871  0.00  0.00     0.161 C 
ATOM      2  N   UNK d   1      24.241  35.370  68.585  0.00  0.00    -0.331 N 
ATOM      3  C   UNK d   1      23.227  34.792  67.775  0.00  0.00     0.295 C 
ATOM      4  O   UNK d   1      23.372  33.892  66.931  0.00  0.00    -0.264 OA
ATOM      5  C   UNK d   1      21.984  35.466  68.134  0.00  0.00     0.250 C 
ATOM      6  O   UNK d   1      20.807  35.309  67.692  0.00  0.00    -0.282 OA
ATOM      7  C   UNK d   1      22.334  36.443  69.175  0.00  0.00     0.062 C 
ATOM      8  C   UNK d   1      21.532  36.930  70.101  0.00  0.00     0.130 C 
ATOM      9  O   UNK d   1      22.039  37.888  70.983  0.00  0.00    -0.190 OA
ENDROOT
BRANCH   1  10
ATOM     10  C   UNK d   1      23.897  37.481  67.599  0.00  0.00    -0.030 A 
ATOM     11  C   UNK d   1      25.101  37.572  66.934  0.00  0.00     0.011 A 
ATOM     12  C   UNK d   1      25.251  38.264  65.751  0.00  0.00     0.024 A 
ATOM     13  C   UNK d   1      24.171  38.907  65.172  0.00  0.00     0.034 A 
ATOM     14 Cl   UNK d   1      24.341  39.796  63.660  0.00  0.00    -0.084 Cl
ATOM     15  C   UNK d   1      22.962  38.830  65.818  0.00  0.00     0.024 A 
ATOM     16  C   UNK d   1      22.816  38.139  66.999  0.00  0.00     0.011 A 
ENDBRANCH   1  10
BRANCH   8  17
ATOM     17  C   UNK d   1      20.145  36.512  70.248  0.00  0.00     0.002 A 
ATOM     18  C   UNK d   1      19.092  37.256  69.742  0.00  0.00     0.024 A 
ATOM     19  C   UNK d   1      17.778  36.869  69.907  0.00  0.00    -0.028 A 
ATOM     20  C   UNK d   1      17.462  35.706  70.595  0.00  0.00     0.074 A 
ATOM     21  C   UNK d   1      16.685  37.696  69.348  0.00  0.00     0.051 C 
ATOM     22  C   UNK d   1      18.499  34.959  71.103  0.00  0.00     0.038 A 
ATOM     23  C   UNK d   1      19.827  35.361  70.930  0.00  0.00     0.017 A 
BRANCH  20  24
ATOM     24  O   UNK d   1      16.141  35.302  70.769  0.00  0.00    -0.355 OA
ATOM     25  C   UNK d   1      15.734  34.066  70.251  0.00  0.00     0.210 C 
ENDBRANCH  20  24
ENDBRANCH   8  17
BRANCH   2  26
ATOM     26  C   UNK d   1      25.490  34.758  69.038  0.00  0.00     0.155 C 
BRANCH  26  27
ATOM     27  C   UNK d   1      25.116  33.760  70.110  0.00  0.00     0.255 C 
BRANCH  27  28
ATOM     28  N   UNK d   1      24.637  32.518  69.566  0.00  0.00    -0.066 N 
ATOM     29  C   UNK d   1      23.484  32.061  70.271  0.00  0.00     0.261 C 
ATOM     30  C   UNK d   1      23.729  31.059  71.349  0.00  0.00     0.195 C 
ATOM     31  O   UNK d   1      24.777  30.206  71.129  0.00  0.00    -0.388 OA
ATOM     32  C   UNK d   1      25.962  30.861  70.821  0.00  0.00     0.195 C 
ATOM     33  C   UNK d   1      25.731  31.588  69.522  0.00  0.00     0.261 C 
ATOM     34  H   UNK d   1      24.334  32.741  68.575  0.00  0.00     0.280 HD
ENDBRANCH  27  28
ENDBRANCH  26  27
ENDBRANCH   2  26
TORSDOF 6
ENDMDL
