MODEL 1
REMARK VINA RESULT:    -8.702      0.000      0.000
REMARK INTER + INTRA:          -9.399
REMARK INTER:                  -9.211
REMARK INTRA:                  -0.189
REMARK UNBOUND:                -0.189
REMARK  1 active torsions:
REMARK  status: ('A' for Active; 'I' for Inactive)
REMARK       I    between atoms: N_10  and  C_13 
REMARK    1  A    between atoms: C_13  and  C_15 
ROOT
ATOM      1 Cl   UNK d   1      14.394  35.231  71.345  0.00  0.00    -0.083 Cl
ATOM      2  C   UNK d   1      15.888  35.900  70.707  0.00  0.00     0.050 A 
ATOM      3  C   UNK d   1      17.104  35.274  70.878  0.00  0.00     0.125 A 
ATOM      4  N   UNK d   1      18.264  35.797  70.382  0.00  0.00    -0.271 N 
ATOM      5  C   UNK d   1      18.275  36.955  69.697  0.00  0.00     0.137 A 
ATOM      6  N   UNK d   1      19.426  37.476  69.203  0.00  0.00    -0.234 NA
ATOM      7  C   UNK d   1      20.613  36.857  69.374  0.00  0.00     0.051 A 
ATOM      8  C   UNK d   1      20.639  35.680  70.064  0.00  0.00     0.053 A 
ATOM      9  C   UNK d   1      21.929  34.950  70.283  0.00  0.00     0.172 C 
ATOM     10  N   UNK d   1      22.780  35.339  69.144  0.00  0.00    -0.342 N 
ATOM     11  C   UNK d   1      23.065  36.744  69.084  0.00  0.00     0.132 C 
ATOM     12  C   UNK d   1      21.800  37.530  68.784  0.00  0.00     0.080 C 
ATOM     13  C   UNK d   1      23.201  34.335  68.277  0.00  0.00     0.274 C 
ATOM     14  O   UNK d   1      22.838  33.131  68.513  0.00  0.00    -0.266 OA
ATOM     15  C   UNK d   1      19.443  35.174  70.556  0.00  0.00     0.263 A 
ATOM     16  O   UNK d   1      19.456  34.099  71.188  0.00  0.00    -0.267 OA
ATOM     17  C   UNK d   1      17.056  37.591  69.521  0.00  0.00     0.053 A 
ATOM     18  C   UNK d   1      15.869  37.088  70.010  0.00  0.00     0.029 A 
ENDROOT
BRANCH  13  19
ATOM     19  C   UNK d   1      24.042  34.524  67.089  0.00  0.00     0.141 A 
ATOM     20  N   UNK d   1      25.309  34.104  67.035  0.00  0.00    -0.253 NA
ATOM     21  C   UNK d   1      26.067  34.280  65.949  0.00  0.00     0.136 A 
ATOM     22  C   UNK d   1      25.584  34.908  64.819  0.00  0.00     0.135 A 
ATOM     23  N   UNK d   1      24.308  35.324  64.892  0.00  0.00    -0.269 NA
ATOM     24  C   UNK d   1      23.531  35.160  65.963  0.00  0.00     0.153 A 
ENDBRANCH  13  19
TORSDOF 1
ENDMDL
