MODEL 1
REMARK VINA RESULT:    -8.516      0.000      0.000
REMARK INTER + INTRA:         -10.575
REMARK INTER:                  -9.761
REMARK INTRA:                  -0.814
REMARK UNBOUND:                -0.814
REMARK  3 active torsions:
REMARK  status: ('A' for Active; 'I' for Inactive)
REMARK    1  A    between atoms: C_3  and  O_25 
REMARK    2  A    between atoms: C_4  and  C_9 
REMARK    3  A    between atoms: C_11  and  C_22 
ROOT
ATOM      1  C   UNK d   1      14.551  30.175  72.265  0.00  0.00     0.272 C 
ATOM      2  N   UNK d   1      15.686  29.342  72.135  0.00  0.00    -0.047 N 
ATOM      3  C   UNK d   1      15.837  28.294  73.102  0.00  0.00     0.291 C 
ATOM      4  C   UNK d   1      15.782  28.905  74.513  0.00  0.00     0.086 C 
ATOM      5  C   UNK d   1      14.410  29.436  74.613  0.00  0.00    -0.018 A 
ATOM      6  C   UNK d   1      13.503  29.446  75.661  0.00  0.00    -0.001 A 
ATOM      7  C   UNK d   1      12.368  30.067  75.188  0.00  0.00     0.043 A 
ATOM      8  N   UNK d   1      12.554  30.428  73.909  0.00  0.00    -0.356 N 
ATOM      9  C   UNK d   1      13.820  30.039  73.546  0.00  0.00     0.052 A 
ATOM     10  C   UNK d   1      11.298  30.203  76.054  0.00  0.00     0.030 A 
ATOM     11  C   UNK d   1      11.413  29.719  77.333  0.00  0.00     0.002 A 
ATOM     12  C   UNK d   1      12.549  29.098  77.803  0.00  0.00     0.001 A 
ATOM     13  C   UNK d   1      13.634  28.955  76.942  0.00  0.00     0.014 A 
ATOM     14  H   UNK d   1      15.631  28.870  71.176  0.00  0.00     0.279 HD
ATOM     15  H   UNK d   1      16.601  29.858  72.113  0.00  0.00     0.279 HD
ATOM     16  H   UNK d   1      11.892  30.921  73.255  0.00  0.00     0.166 HD
ENDROOT
BRANCH   1  17
ATOM     17  C   UNK d   1      14.983  31.617  72.167  0.00  0.00     0.014 A 
ATOM     18  C   UNK d   1      14.177  32.583  71.591  0.00  0.00     0.091 A 
ATOM     19  C   UNK d   1      14.598  33.915  71.520  0.00  0.00     0.046 A 
ATOM     20 Br   UNK d   1      13.473  35.237  70.716  0.00  0.00    -0.048 Br
ATOM     21  C   UNK d   1      15.815  34.297  72.015  0.00  0.00     0.041 A 
ATOM     22  C   UNK d   1      16.618  33.339  72.589  0.00  0.00     0.013 A 
ATOM     23  C   UNK d   1      16.208  32.015  72.664  0.00  0.00     0.031 A 
ATOM     24 Br   UNK d   1      18.339  33.837  73.295  0.00  0.00    -0.051 Br
BRANCH  18  25
ATOM     25  O   UNK d   1      12.943  32.310  71.063  0.00  0.00    -0.359 OA
ATOM     26  H   UNK d   1      12.298  32.960  70.704  0.00  0.00     0.217 HD
ENDBRANCH  18  25
ENDBRANCH   1  17
BRANCH   3  27
ATOM     27  C   UNK d   1      17.117  27.591  72.884  0.00  0.00     0.205 C 
ATOM     28  O   UNK d   1      18.183  28.128  73.282  0.00  0.00    -0.646 OA
ATOM     29  O   UNK d   1      17.121  26.361  72.248  0.00  0.00    -0.646 OA
ENDBRANCH   3  27
TORSDOF 3
ENDMDL
