MODEL 1
REMARK VINA RESULT:    -9.132      0.000      0.000
REMARK INTER + INTRA:         -12.179
REMARK INTER:                 -11.267
REMARK INTRA:                  -0.911
REMARK UNBOUND:                -0.911
REMARK  4 active torsions:
REMARK  status: ('A' for Active; 'I' for Inactive)
REMARK    1  A    between atoms: C_3  and  N_8 
REMARK       I    between atoms: N_11  and  C_14 
REMARK    2  A    between atoms: C_14  and  C_16 
REMARK    3  A    between atoms: C_16  and  N_17 
REMARK    4  A    between atoms: C_19  and  C_23 
REMARK       I    between atoms: C_23  and  N_25 
ROOT
ATOM      1  N   UNK d   1      16.092  33.670  71.123  0.00  0.00    -0.376 N 
ATOM      2  C   UNK d   1      16.713  32.573  70.413  0.00  0.00     0.143 C 
ATOM      3  C   UNK d   1      17.971  32.156  71.171  0.00  0.00     0.145 C 
ATOM      4  N   UNK d   1      18.665  33.344  71.642  0.00  0.00    -0.348 N 
ATOM      5  C   UNK d   1      17.951  34.267  72.492  0.00  0.00     0.145 C 
ATOM      6  C   UNK d   1      16.502  33.846  72.525  0.00  0.00     0.143 C 
ATOM      7  C   UNK d   1      20.017  33.609  71.287  0.00  0.00     0.239 C 
ATOM      8  O   UNK d   1      20.617  32.773  70.542  0.00  0.00    -0.271 OA
ENDROOT
BRANCH   7   9
ATOM      9  C   UNK d   1      20.767  34.790  71.729  0.00  0.00     0.254 C 
BRANCH   9  10
ATOM     10  N   UNK d   1      21.432  35.500  70.638  0.00  0.00    -0.265 N 
ATOM     11  N   UNK d   1      22.680  35.417  70.225  0.00  0.00    -0.167 NA
ATOM     12  C   UNK d   1      22.940  36.219  69.190  0.00  0.00     0.146 A 
ATOM     13  C   UNK d   1      21.757  36.879  68.907  0.00  0.00     0.065 A 
ATOM     14  C   UNK d   1      20.839  36.414  69.821  0.00  0.00     0.029 A 
ATOM     15  C   UNK d   1      19.428  36.848  69.894  0.00  0.00     0.070 C 
BRANCH  12  16
ATOM     16  C   UNK d   1      24.227  36.369  68.487  0.00  0.00     0.274 C 
ATOM     17  O   UNK d   1      24.998  37.304  68.784  0.00  0.00    -0.266 OA
ATOM     18  N   UNK d   1      24.568  35.438  67.481  0.00  0.00    -0.343 N 
ATOM     19  C   UNK d   1      23.732  34.339  67.089  0.00  0.00     0.152 C 
ATOM     20  C   UNK d   1      25.846  35.576  66.776  0.00  0.00     0.152 C 
ATOM     21  C   UNK d   1      24.415  33.689  65.879  0.00  0.00     0.187 C 
ATOM     22  O   UNK d   1      24.684  34.620  64.900  0.00  0.00    -0.388 OA
ATOM     23  C   UNK d   1      25.546  35.616  65.293  0.00  0.00     0.187 C 
ENDBRANCH  12  16
ENDBRANCH   9  10
ENDBRANCH   7   9
BRANCH   1  24
ATOM     24  C   UNK d   1      15.155  34.561  70.596  0.00  0.00     0.052 A 
ATOM     25  C   UNK d   1      13.836  34.252  70.344  0.00  0.00     0.060 A 
ATOM     26 Cl   UNK d   1      13.273  32.658  70.693  0.00  0.00    -0.082 Cl
ATOM     27  C   UNK d   1      12.939  35.165  69.823  0.00  0.00     0.026 A 
ATOM     28  C   UNK d   1      13.351  36.428  69.536  0.00  0.00     0.002 A 
ATOM     29  C   UNK d   1      14.654  36.781  69.769  0.00  0.00     0.002 A 
ATOM     30  C   UNK d   1      15.545  35.863  70.290  0.00  0.00     0.031 A 
ENDBRANCH   1  24
TORSDOF 4
ENDMDL
