MODEL 1
REMARK VINA RESULT:    -8.014      0.000      0.000
REMARK INTER + INTRA:         -10.623
REMARK INTER:                 -10.123
REMARK INTRA:                  -0.500
REMARK UNBOUND:                -0.500
REMARK  5 active torsions:
REMARK  status: ('A' for Active; 'I' for Inactive)
REMARK    1  A    between atoms: C_7  and  C_11 
REMARK    2  A    between atoms: C_11  and  N_12 
REMARK    3  A    between atoms: C_17  and  C_21 
REMARK    4  A    between atoms: C_21  and  O_22 
REMARK    5  A    between atoms: C_21  and  C_23 
ROOT
ATOM      1  N   UNK d   1      20.768  33.510  71.150  0.00  0.00    -0.400 N 
ATOM      2  C   UNK d   1      21.240  32.701  72.195  0.00  0.00     0.139 C 
ATOM      3  C   UNK d   1      20.205  31.918  72.931  0.00  0.00     0.170 C 
ATOM      4  N   UNK d   1      19.054  31.607  72.095  0.00  0.00    -0.270 N 
ATOM      5  N   UNK d   1      18.002  30.870  72.449  0.00  0.00    -0.174 NA
ATOM      6  C   UNK d   1      17.147  30.803  71.425  0.00  0.00     0.085 A 
ATOM      7  C   UNK d   1      17.695  31.528  70.397  0.00  0.00     0.060 A 
ATOM      8  C   UNK d   1      18.920  32.042  70.833  0.00  0.00     0.050 A 
ATOM      9  C   UNK d   1      19.946  32.888  70.174  0.00  0.00     0.176 C 
ENDROOT
BRANCH   1  10
ATOM     10  C   UNK d   1      20.551  34.873  71.400  0.00  0.00     0.177 C 
BRANCH  10  11
ATOM     11  C   UNK d   1      19.259  35.422  70.966  0.00  0.00     0.059 A 
ATOM     12  N   UNK d   1      18.064  34.960  71.376  0.00  0.00    -0.233 NA
ATOM     13  C   UNK d   1      16.900  35.487  70.955  0.00  0.00     0.137 A 
ATOM     14  N   UNK d   1      16.842  36.515  70.093  0.00  0.00    -0.272 N 
ATOM     15  C   UNK d   1      15.727  34.915  71.458  0.00  0.00     0.053 A 
ATOM     16  C   UNK d   1      15.663  37.041  69.674  0.00  0.00     0.125 A 
ATOM     17  C   UNK d   1      18.009  37.020  69.647  0.00  0.00     0.255 A 
ATOM     18  C   UNK d   1      14.506  36.481  70.166  0.00  0.00     0.050 A 
ATOM     19 Cl   UNK d   1      12.977  37.160  69.626  0.00  0.00    -0.083 Cl
ATOM     20  C   UNK d   1      14.519  35.425  71.053  0.00  0.00     0.029 A 
ATOM     21  C   UNK d   1      19.201  36.481  70.077  0.00  0.00     0.103 A 
ATOM     22  O   UNK d   1      18.003  37.993  68.830  0.00  0.00    -0.268 OA
ENDBRANCH  10  11
ENDBRANCH   1  10
BRANCH   6  23
ATOM     23  C   UNK d   1      15.842  30.072  71.411  0.00  0.00     0.171 C 
BRANCH  23  24
ATOM     24  O   UNK d   1      16.005  28.893  72.157  0.00  0.00    -0.389 OA
ATOM     25  H   UNK d   1      15.855  29.069  73.131  0.00  0.00     0.210 HD
ENDBRANCH  23  24
BRANCH  23  26
ATOM     26  C   UNK d   1      14.781  30.885  72.149  0.00  0.00     0.034 C 
ATOM     27  C   UNK d   1      13.977  31.666  71.121  0.00  0.00     0.008 C 
ENDBRANCH  23  26
ENDBRANCH   6  23
TORSDOF 5
ENDMDL
