/Users/jonathanwahrer/Desktop/Msc/3_Semester/Drug_Design_Praktikum/waehrer_HTS_screening/HTS_experiment/out/docking_results/vina_output/4x21/1581_docked.pdbqt
 OpenBabel03212202313D

 27 30  0  0  1  0  0  0  0  0999 V2000
   20.7680   33.5100   71.1500 N   0  0  0  0  0  0  0  0  0  0  0  0
   21.2400   32.7010   72.1950 C   0  0  0  0  0  2  0  0  0  0  0  0
   20.2050   31.9180   72.9310 C   0  0  0  0  0  2  0  0  0  0  0  0
   19.0540   31.6070   72.0950 N   0  0  0  0  0  0  0  0  0  0  0  0
   18.0020   30.8700   72.4490 N   0  0  0  0  0  0  0  0  0  0  0  0
   17.1470   30.8030   71.4250 C   0  0  0  0  0  0  0  0  0  0  0  0
   17.6950   31.5280   70.3970 C   0  0  0  0  0  3  0  0  0  0  0  0
   18.9200   32.0420   70.8330 C   0  0  0  0  0  0  0  0  0  0  0  0
   19.9460   32.8880   70.1740 C   0  0  0  0  0  2  0  0  0  0  0  0
   20.5510   34.8730   71.4000 C   0  0  0  0  0  2  0  0  0  0  0  0
   19.2590   35.4220   70.9660 C   0  0  0  0  0  0  0  0  0  0  0  0
   18.0640   34.9600   71.3760 N   0  0  0  0  0  0  0  0  0  0  0  0
   16.9000   35.4870   70.9550 C   0  0  0  0  0  0  0  0  0  0  0  0
   16.8420   36.5150   70.0930 N   0  0  0  0  0  0  0  0  0  0  0  0
   15.7270   34.9150   71.4580 C   0  0  0  0  0  3  0  0  0  0  0  0
   15.6630   37.0410   69.6740 C   0  0  0  0  0  3  0  0  0  0  0  0
   18.0090   37.0200   69.6470 C   0  0  0  0  0  0  0  0  0  0  0  0
   14.5060   36.4810   70.1660 C   0  0  0  0  0  0  0  0  0  0  0  0
   12.9770   37.1600   69.6260 Cl  0  0  0  0  0  0  0  0  0  0  0  0
   14.5190   35.4250   71.0530 C   0  0  0  0  0  3  0  0  0  0  0  0
   19.2010   36.4810   70.0770 C   0  0  0  0  0  3  0  0  0  0  0  0
   18.0030   37.9930   68.8300 O   0  0  0  0  0  0  0  0  0  0  0  0
   15.8420   30.0720   71.4110 C   0  0  1  0  0  3  0  0  0  0  0  0
   16.0050   28.8930   72.1570 O   0  0  0  0  0  0  0  0  0  0  0  0
   15.8550   29.0690   73.1310 H   0  0  0  0  0  0  0  0  0  0  0  0
   14.7810   30.8850   72.1490 C   0  0  0  0  0  2  0  0  0  0  0  0
   13.9770   31.6660   71.1210 C   0  0  0  0  0  1  0  0  0  0  0  0
  1 10  1  0  0  0  0
  1  2  1  0  0  0  0
  2  3  1  0  0  0  0
  4  5  1  0  0  0  0
  4  3  1  0  0  0  0
  6  5  2  0  0  0  0
  7  8  2  0  0  0  0
  7  6  1  0  0  0  0
  8  4  1  0  0  0  0
  9  8  1  0  0  0  0
  9  1  1  0  0  0  0
 11 12  1  0  0  0  0
 11 10  1  0  0  0  0
 13 12  2  0  0  0  0
 13 15  1  0  0  0  0
 14 13  1  0  0  0  0
 16 14  1  0  0  0  0
 16 18  2  0  0  0  0
 17 21  1  0  0  0  0
 17 14  1  0  0  0  0
 18 20  1  0  0  0  0
 19 18  1  0  0  0  0
 20 15  2  0  0  0  0
 21 11  2  0  0  0  0
 22 17  2  0  0  0  0
 23  6  1  0  0  0  0
 23 26  1  1  0  0  0
 23 24  1  0  0  0  0
 24 25  1  0  0  0  0
 27 26  1  0  0  0  0
M  END
>  <Pose>
1

>  <Score>
-8.014

$$$$
