MODEL 1
REMARK VINA RESULT:    -8.199      0.000      0.000
REMARK INTER + INTRA:         -10.003
REMARK INTER:                  -9.637
REMARK INTRA:                  -0.367
REMARK UNBOUND:                -0.367
REMARK  3 active torsions:
REMARK  status: ('A' for Active; 'I' for Inactive)
REMARK    1  A    between atoms: C_3  and  N_15 
REMARK    2  A    between atoms: N_6  and  C_9 
REMARK    3  A    between atoms: N_18  and  C_21 
ROOT
ATOM      1 Cl   UNK d   1      16.886  37.595  70.324  0.00  0.00    -0.076 Cl
ATOM      2  C   UNK d   1      17.453  35.972  70.646  0.00  0.00     0.131 A 
ATOM      3  C   UNK d   1      18.774  35.660  70.494  0.00  0.00     0.077 A 
ATOM      4  C   UNK d   1      19.109  34.331  70.765  0.00  0.00     0.170 A 
ATOM      5  N   UNK d   1      18.171  33.450  71.148  0.00  0.00    -0.174 NA
ATOM      6  N   UNK d   1      16.896  33.729  71.301  0.00  0.00    -0.197 N 
ATOM      7  C   UNK d   1      16.529  34.993  71.051  0.00  0.00     0.292 A 
ATOM      8  O   UNK d   1      15.332  35.358  71.170  0.00  0.00    -0.264 OA
ENDROOT
BRANCH   3   9
ATOM      9  N   UNK d   1      19.759  36.601  70.111  0.00  0.00    -0.375 N 
ATOM     10  C   UNK d   1      19.898  37.088  68.749  0.00  0.00     0.143 C 
ATOM     11  C   UNK d   1      21.227  36.703  68.152  0.00  0.00     0.146 C 
ATOM     12  N   UNK d   1      22.214  36.874  69.190  0.00  0.00    -0.341 N 
ATOM     13  C   UNK d   1      21.911  37.779  70.267  0.00  0.00     0.146 C 
ATOM     14  C   UNK d   1      20.739  37.143  71.047  0.00  0.00     0.143 C 
BRANCH  12  15
ATOM     15  C   UNK d   1      23.445  36.176  69.154  0.00  0.00     0.270 A 
ATOM     16  N   UNK d   1      24.700  36.711  69.141  0.00  0.00    -0.103 NA
ATOM     17  N   UNK d   1      25.588  35.738  69.107  0.00  0.00    -0.126 NA
ATOM     18  C   UNK d   1      24.928  34.587  69.097  0.00  0.00     0.167 A 
ATOM     19  O   UNK d   1      23.653  34.873  69.125  0.00  0.00    -0.260 OA
ATOM     20  C   UNK d   1      25.472  33.191  69.061  0.00  0.00     0.102 C 
ENDBRANCH  12  15
ENDBRANCH   3   9
BRANCH   6  21
ATOM     21  C   UNK d   1      15.965  32.732  71.711  0.00  0.00     0.062 A 
ATOM     22  C   UNK d   1      14.910  32.326  70.919  0.00  0.00     0.032 A 
ATOM     23  C   UNK d   1      14.015  31.360  71.326  0.00  0.00     0.002 A 
ATOM     24  C   UNK d   1      14.145  30.757  72.561  0.00  0.00     0.000 A 
ATOM     25  C   UNK d   1      15.197  31.158  73.357  0.00  0.00     0.002 A 
ATOM     26  C   UNK d   1      16.092  32.127  72.945  0.00  0.00     0.032 A 
ENDBRANCH   6  21
TORSDOF 3
ENDMDL
