MODEL 1
REMARK VINA RESULT:    -8.345      0.000      0.000
REMARK INTER + INTRA:         -10.154
REMARK INTER:                 -10.052
REMARK INTRA:                  -0.102
REMARK UNBOUND:                -0.102
REMARK  4 active torsions:
REMARK  status: ('A' for Active; 'I' for Inactive)
REMARK    1  A    between atoms: C_7  and  C_9 
REMARK       I    between atoms: C_9  and  N_11 
REMARK    2  A    between atoms: N_17  and  C_20 
REMARK    3  A    between atoms: C_20  and  C_21 
REMARK    4  A    between atoms: C_21  and  O_22 
ROOT
ATOM      1  C   UNK d   1      20.342  34.146  69.991  0.00  0.00     0.274 C 
ATOM      2  O   UNK d   1      20.313  32.905  70.324  0.00  0.00    -0.266 OA
ATOM      3  N   UNK d   1      19.522  34.997  70.707  0.00  0.00    -0.341 N 
ATOM      4  C   UNK d   1      19.434  36.418  70.473  0.00  0.00     0.131 C 
ATOM      5  C   UNK d   1      18.088  36.789  69.888  0.00  0.00     0.066 C 
ATOM      6  C   UNK d   1      17.022  35.934  70.512  0.00  0.00     0.039 A 
ATOM      7  C   UNK d   1      17.256  34.899  71.375  0.00  0.00     0.056 A 
ATOM      8  N   UNK d   1      16.031  34.407  71.691  0.00  0.00    -0.297 N 
ATOM      9  N   UNK d   1      15.083  35.077  71.076  0.00  0.00    -0.255 N 
ATOM     10  C   UNK d   1      15.634  36.040  70.326  0.00  0.00     0.270 A 
ATOM     11  O   UNK d   1      15.051  36.895  69.586  0.00  0.00    -0.266 OA
ATOM     12  C   UNK d   1      18.635  34.511  71.792  0.00  0.00     0.185 C 
ATOM     13  H   UNK d   1      15.912  33.596  72.346  0.00  0.00     0.187 HD
ENDROOT
BRANCH   1  14
ATOM     14  C   UNK d   1      21.230  34.515  68.902  0.00  0.00     0.142 A 
ATOM     15  N   UNK d   1      21.115  35.520  68.035  0.00  0.00    -0.224 NA
ATOM     16  C   UNK d   1      22.159  35.499  67.191  0.00  0.00     0.134 A 
ATOM     17  N   UNK d   1      22.953  34.473  67.515  0.00  0.00    -0.313 N 
ATOM     18  C   UNK d   1      22.445  36.367  66.123  0.00  0.00     0.052 A 
ATOM     19  C   UNK d   1      24.085  34.247  66.793  0.00  0.00     0.122 A 
ATOM     20  C   UNK d   1      22.415  33.840  68.566  0.00  0.00     0.135 A 
ATOM     21  C   UNK d   1      24.389  35.081  65.741  0.00  0.00     0.050 A 
ATOM     22 Cl   UNK d   1      25.837  34.829  64.784  0.00  0.00    -0.083 Cl
ATOM     23  C   UNK d   1      23.575  36.146  65.398  0.00  0.00     0.029 A 
ENDBRANCH   1  14
BRANCH   9  24
ATOM     24  C   UNK d   1      13.631  34.858  71.151  0.00  0.00     0.178 C 
BRANCH  24  25
ATOM     25  C   UNK d   1      13.287  33.426  70.815  0.00  0.00     0.186 C 
BRANCH  25  26
ATOM     26  O   UNK d   1      12.536  32.816  71.813  0.00  0.00    -0.399 OA
ATOM     27  H   UNK d   1      11.617  32.570  71.496  0.00  0.00     0.209 HD
ENDBRANCH  25  26
ENDBRANCH  24  25
ENDBRANCH   9  24
TORSDOF 4
ENDMDL
