MODEL 1
REMARK VINA RESULT:    -8.982      0.000      0.000
REMARK INTER + INTRA:         -11.288
REMARK INTER:                 -10.557
REMARK INTRA:                  -0.731
REMARK UNBOUND:                -0.731
REMARK  3 active torsions:
REMARK  status: ('A' for Active; 'I' for Inactive)
REMARK    1  A    between atoms: C_4  and  C_8 
REMARK       I    between atoms: C_8  and  N_10 
REMARK    2  A    between atoms: N_10  and  C_11 
REMARK    3  A    between atoms: C_11  and  C_12 
REMARK       I    between atoms: C_12  and  N_14 
ROOT
ATOM      1  C   UNK d   1      20.589  35.431  70.915  0.00  0.00     0.237 C 
ATOM      2  O   UNK d   1      20.861  36.247  71.865  0.00  0.00    -0.272 OA
ATOM      3  N   UNK d   1      21.518  35.149  69.906  0.00  0.00    -0.351 N 
ATOM      4  C   UNK d   1      21.249  34.248  68.831  0.00  0.00     0.129 C 
ATOM      5  C   UNK d   1      21.874  34.686  67.536  0.00  0.00     0.068 C 
ATOM      6  C   UNK d   1      22.201  36.161  67.455  0.00  0.00     0.204 C 
ATOM      7  N   UNK d   1      23.041  36.264  66.270  0.00  0.00     0.099 N 
ATOM      8  C   UNK d   1      23.332  37.572  65.824  0.00  0.00     0.277 C 
ATOM      9  C   UNK d   1      22.471  38.680  66.310  0.00  0.00     0.091 C 
ATOM     10  C   UNK d   1      21.093  38.204  66.647  0.00  0.00     0.062 A 
ATOM     11  N   UNK d   1      19.897  38.772  66.506  0.00  0.00    -0.246 NA
ATOM     12  C   UNK d   1      19.006  37.878  66.983  0.00  0.00     0.207 A 
ATOM     13  N   UNK d   1      19.643  36.768  67.416  0.00  0.00    -0.350 N 
ATOM     14  C   UNK d   1      20.979  36.958  67.210  0.00  0.00     0.074 A 
ATOM     15  C   UNK d   1      22.929  36.692  68.663  0.00  0.00     0.068 C 
ATOM     16  C   UNK d   1      22.831  35.783  69.875  0.00  0.00     0.129 C 
ATOM     17  H   UNK d   1      23.922  35.736  66.537  0.00  0.00     0.317 HD
ATOM     18  H   UNK d   1      19.191  35.934  67.828  0.00  0.00     0.166 HD
ENDROOT
BRANCH   1  19
ATOM     19  C   UNK d   1      19.212  34.823  70.990  0.00  0.00     0.225 C 
BRANCH  19  20
ATOM     20  N   UNK d   1      18.230  35.744  70.662  0.00  0.00    -0.348 N 
ATOM     21  C   UNK d   1      17.293  36.624  70.348  0.00  0.00     0.252 C 
ATOM     22  O   UNK d   1      17.421  37.874  70.100  0.00  0.00    -0.268 OA
ATOM     23  H   UNK d   1      19.197  36.731  70.596  0.00  0.00     0.163 HD
BRANCH  21  24
ATOM     24  C   UNK d   1      15.868  36.144  70.259  0.00  0.00     0.033 A 
ATOM     25  C   UNK d   1      15.514  34.879  70.644  0.00  0.00     0.036 A 
ATOM     26  C   UNK d   1      14.205  34.437  70.526  0.00  0.00     0.011 A 
ATOM     27 Br   UNK d   1      13.761  32.688  71.075  0.00  0.00    -0.051 Br
ATOM     28  C   UNK d   1      13.283  35.313  70.009  0.00  0.00     0.019 A 
ATOM     29  C   UNK d   1      13.645  36.590  69.622  0.00  0.00     0.002 A 
ATOM     30  C   UNK d   1      14.967  37.028  69.745  0.00  0.00     0.017 A 
ENDBRANCH  21  24
ENDBRANCH  19  20
ENDBRANCH   1  19
TORSDOF 3
ENDMDL
