/Users/jonathanwahrer/Desktop/Msc/3_Semester/Drug_Design_Praktikum/waehrer_HTS_screening/HTS_experiment/out/docking_results/vina_output/4x21/1609_docked.pdbqt
 OpenBabel03212202313D

 26 29  0  0  1  0  0  0  0  0999 V2000
   17.4760   32.7630   72.1760 N   0  0  0  0  0  0  0  0  0  0  0  0
   18.4920   32.2300   71.3080 C   0  0  2  0  0  3  0  0  0  0  0  0
   19.6360   32.0150   72.2800 C   0  0  2  0  0  3  0  0  0  0  0  0
   19.5710   33.2190   73.0330 O   0  0  0  0  0  0  0  0  0  0  0  0
   18.1870   33.4170   73.2200 C   0  0  0  0  0  0  0  0  0  0  0  0
   17.7060   34.0850   74.1890 O   0  0  0  0  0  0  0  0  0  0  0  0
   20.7670   31.9510   71.3200 C   0  0  0  0  0  2  0  0  0  0  0  0
   20.5330   33.1800   70.5270 N   0  0  0  0  0  0  0  0  0  0  0  0
   19.1150   33.3410   70.4440 C   0  0  0  0  0  2  0  0  0  0  0  0
   21.6070   33.9250   70.0310 C   0  0  0  0  0  0  0  0  0  0  0  0
   22.8240   33.5410   70.2720 O   0  0  0  0  0  0  0  0  0  0  0  0
   16.0340   32.7090   72.1000 C   0  0  0  0  0  2  0  0  0  0  0  0
   15.5020   32.7340   70.6930 C   0  0  0  0  0  2  0  0  0  0  0  0
   14.9270   34.0520   70.3340 C   0  0  0  0  0  0  0  0  0  0  0  0
   15.6370   35.2290   70.5740 C   0  0  0  0  0  3  0  0  0  0  0  0
   15.1170   36.4570   70.2450 C   0  0  0  0  0  0  0  0  0  0  0  0
   16.0530   37.9200   70.5680 Cl  0  0  0  0  0  0  0  0  0  0  0  0
   13.8740   36.5920   69.6640 C   0  0  0  0  0  3  0  0  0  0  0  0
   13.1690   35.4320   69.4250 C   0  0  0  0  0  3  0  0  0  0  0  0
   13.6840   34.1910   69.7520 C   0  0  0  0  0  3  0  0  0  0  0  0
   21.5190   35.1380   69.2400 C   0  0  0  0  0  0  0  0  0  0  0  0
   21.2880   36.3980   69.6970 N   0  0  0  0  0  0  0  0  0  0  0  0
   21.2870   37.2330   68.6600 C   0  0  0  0  0  3  0  0  0  0  0  0
   21.0800   36.7470   71.0780 C   0  0  0  0  0  1  0  0  0  0  0  0
   21.5130   36.5370   67.5440 N   0  0  0  0  0  0  0  0  0  0  0  0
   21.6600   35.2380   67.8870 C   0  0  0  0  0  3  0  0  0  0  0  0
  1  5  1  0  0  0  0
  2  9  1  6  0  0  0
  2  1  1  0  0  0  0
  2  3  1  0  0  0  0
  3  7  1  6  0  0  0
  3  4  1  0  0  0  0
  4  5  1  0  0  0  0
  5  6  2  0  0  0  0
  8  7  1  0  0  0  0
  9  8  1  0  0  0  0
 10 11  2  0  0  0  0
 10  8  1  0  0  0  0
 12  1  1  0  0  0  0
 13 12  1  0  0  0  0
 14 15  1  0  0  0  0
 14 13  1  0  0  0  0
 16 17  1  0  0  0  0
 16 15  2  0  0  0  0
 18 16  1  0  0  0  0
 19 18  2  0  0  0  0
 19 20  1  0  0  0  0
 20 14  2  0  0  0  0
 21 22  1  0  0  0  0
 21 10  1  0  0  0  0
 22 24  1  0  0  0  0
 23 22  1  0  0  0  0
 25 26  1  0  0  0  0
 25 23  2  0  0  0  0
 26 21  2  0  0  0  0
M  END
>  <Pose>
1

>  <Score>
-8.290

$$$$
