MODEL 1
REMARK VINA RESULT:    -8.192      0.000      0.000
REMARK INTER + INTRA:          -9.833
REMARK INTER:                  -9.150
REMARK INTRA:                  -0.683
REMARK UNBOUND:                -0.683
REMARK  2 active torsions:
REMARK  status: ('A' for Active; 'I' for Inactive)
REMARK    1  A    between atoms: C_3  and  C_13 
REMARK    2  A    between atoms: C_5  and  N_8 
REMARK       I    between atoms: C_13  and  N_15 
ROOT
ATOM      1  C   UNK d   1      19.817  33.984  72.076  0.00  0.00     0.255 C 
ATOM      2  O   UNK d   1      20.068  34.926  72.871  0.00  0.00    -0.267 OA
ATOM      3  N   UNK d   1      18.603  33.248  72.129  0.00  0.00    -0.348 N 
ATOM      4  C   UNK d   1      17.622  33.597  73.133  0.00  0.00     0.129 C 
ATOM      5  C   UNK d   1      16.267  33.186  72.588  0.00  0.00     0.061 C 
ATOM      6  C   UNK d   1      16.177  33.380  71.090  0.00  0.00     0.119 C 
ATOM      7  N   UNK d   1      14.797  33.175  70.716  0.00  0.00    -0.324 N 
ATOM      8  C   UNK d   1      14.107  34.407  70.863  0.00  0.00     0.325 C 
ATOM      9  O   UNK d   1      12.855  34.594  70.977  0.00  0.00    -0.247 OA
ATOM     10  N   UNK d   1      15.114  35.422  70.858  0.00  0.00    -0.272 N 
ATOM     11  C   UNK d   1      16.391  34.799  70.709  0.00  0.00     0.256 C 
ATOM     12  O   UNK d   1      17.449  35.372  70.332  0.00  0.00    -0.270 OA
ATOM     13  C   UNK d   1      14.923  36.870  70.980  0.00  0.00     0.164 C 
ATOM     14  C   UNK d   1      17.117  32.480  70.343  0.00  0.00     0.061 C 
ATOM     15  C   UNK d   1      18.278  32.160  71.235  0.00  0.00     0.129 C 
ATOM     16  H   UNK d   1      14.401  32.270  70.398  0.00  0.00     0.165 HD
ENDROOT
BRANCH   1  17
ATOM     17  C   UNK d   1      20.855  33.685  71.085  0.00  0.00     0.056 A 
ATOM     18  C   UNK d   1      21.701  32.611  71.261  0.00  0.00     0.050 A 
ATOM     19 Cl   UNK d   1      21.507  31.607  72.705  0.00  0.00    -0.083 Cl
ATOM     20  C   UNK d   1      22.688  32.306  70.346  0.00  0.00     0.027 A 
ATOM     21  C   UNK d   1      22.795  33.118  69.242  0.00  0.00     0.033 A 
ATOM     22  C   UNK d   1      21.967  34.207  69.023  0.00  0.00     0.059 A 
ATOM     23  C   UNK d   1      20.996  34.475  69.965  0.00  0.00     0.050 A 
BRANCH  22  24
ATOM     24  N   UNK d   1      22.132  35.011  67.855  0.00  0.00    -0.245 N 
ATOM     25  N   UNK d   1      23.202  35.168  67.115  0.00  0.00    -0.180 NA
ATOM     26  C   UNK d   1      22.928  36.026  66.090  0.00  0.00     0.140 A 
ATOM     27  C   UNK d   1      21.613  36.420  66.204  0.00  0.00     0.040 A 
ATOM     28  C   UNK d   1      21.139  35.755  67.338  0.00  0.00     0.120 A 
ENDBRANCH  22  24
ENDBRANCH   1  17
TORSDOF 2
ENDMDL
