/Users/jonathanwahrer/Desktop/Msc/3_Semester/Drug_Design_Praktikum/waehrer_HTS_screening/HTS_experiment/out/docking_results/vina_output/4x21/1624_docked.pdbqt
 OpenBabel03212202323D

 32 35  0  0  1  0  0  0  0  0999 V2000
   23.3940   37.0660   66.1400 C   0  0  1  0  0  3  0  0  0  0  0  0
   24.7310   36.7960   66.7010 N   0  0  0  0  0  0  0  0  0  0  0  0
   24.6920   37.0740   68.0950 C   0  0  0  0  0  0  0  0  0  0  0  0
   25.6470   37.3150   68.8360 O   0  0  0  0  0  0  0  0  0  0  0  0
   23.2770   37.0210   68.5120 C   0  0  0  0  0  0  0  0  0  0  0  0
   22.7970   37.2140   69.6750 O   0  0  0  0  0  0  0  0  0  0  0  0
   22.5270   36.7020   67.3080 C   0  0  0  0  0  0  0  0  0  0  0  0
   21.3090   36.2190   67.3070 C   0  0  0  0  0  0  0  0  0  0  0  0
   20.6940   36.0030   66.0770 O   0  0  0  0  0  1  0  0  0  0  0  0
   25.8110   36.3210   65.8740 C   0  0  0  0  0  2  0  0  0  0  0  0
   25.5500   35.0700   65.1250 C   0  0  0  0  0  2  0  0  0  0  0  0
   25.5280   33.8420   65.8290 N   0  0  0  0  0  4  0  0  0  0  0  0
   24.2590   33.5480   66.4620 C   0  0  0  0  0  2  0  0  0  0  0  0
   24.3670   33.2900   67.9460 C   0  0  0  0  0  2  0  0  0  0  0  0
   25.3480   32.4040   68.3070 O   0  0  0  0  0  0  0  0  0  0  0  0
   26.5660   32.6460   67.6990 C   0  0  0  0  0  2  0  0  0  0  0  0
   26.4950   33.9380   66.9430 C   0  0  0  0  0  2  0  0  0  0  0  0
   25.8710   33.0400   65.2750 H   0  0  0  0  0  0  0  0  0  0  0  0
   23.2910   38.4710   65.7690 C   0  0  0  0  0  0  0  0  0  0  0  0
   22.2280   39.2490   66.1000 C   0  0  0  0  0  3  0  0  0  0  0  0
   22.1290   40.5890   65.7560 C   0  0  0  0  0  3  0  0  0  0  0  0
   23.1380   41.1730   65.0480 C   0  0  0  0  0  0  0  0  0  0  0  0
   23.0760   42.8510   64.5860 Cl  0  0  0  0  0  0  0  0  0  0  0  0
   24.2450   40.3990   64.6920 C   0  0  0  0  0  3  0  0  0  0  0  0
   24.3210   39.0710   65.0450 C   0  0  0  0  0  3  0  0  0  0  0  0
   20.5220   35.8760   68.4870 C   0  0  0  0  0  0  0  0  0  0  0  0
   20.7580   34.6220   69.0380 C   0  0  0  0  0  3  0  0  0  0  0  0
   20.0760   34.2430   70.1590 C   0  0  0  0  0  3  0  0  0  0  0  0
   19.1560   35.0830   70.7570 C   0  0  0  0  0  0  0  0  0  0  0  0
   18.9270   36.3260   70.2080 C   0  0  0  0  0  3  0  0  0  0  0  0
   18.3150   34.5580   72.1790 Cl  0  0  0  0  0  0  0  0  0  0  0  0
   19.6220   36.6970   69.0750 C   0  0  0  0  0  3  0  0  0  0  0  0
  1 19  1  1  0  0  0
  1  2  1  0  0  0  0
  1  7  1  0  0  0  0
  2  3  1  0  0  0  0
  3  5  1  0  0  0  0
  3  4  2  0  0  0  0
  5  6  2  0  0  0  0
  7  5  1  0  0  0  0
  8  7  2  0  0  0  0
  8 26  1  0  0  0  0
  9  8  1  0  0  0  0
 10  2  1  0  0  0  0
 11 12  1  0  0  0  0
 11 10  1  0  0  0  0
 12 13  1  0  0  0  0
 12 17  1  0  0  0  0
 13 14  1  0  0  0  0
 14 15  1  0  0  0  0
 16 15  1  0  0  0  0
 17 16  1  0  0  0  0
 18 12  1  0  0  0  0
 19 20  1  0  0  0  0
 21 20  2  0  0  0  0
 22 21  1  0  0  0  0
 23 22  1  0  0  0  0
 24 25  1  0  0  0  0
 24 22  2  0  0  0  0
 25 19  2  0  0  0  0
 26 27  2  0  0  0  0
 26 32  1  0  0  0  0
 27 28  1  0  0  0  0
 28 29  2  0  0  0  0
 29 31  1  0  0  0  0
 30 29  1  0  0  0  0
 32 30  2  0  0  0  0
M  END
>  <Pose>
1

>  <Score>
-8.669

$$$$
