/Users/jonathanwahrer/Desktop/Msc/3_Semester/Drug_Design_Praktikum/waehrer_HTS_screening/HTS_experiment/out/docking_results/vina_output/4x21/1630_docked.pdbqt
 OpenBabel03212202323D

 39 43  0  0  1  0  0  0  0  0999 V2000
    8.4680   30.2300   77.3000 Cl  0  0  0  0  0  0  0  0  0  0  0  0
   10.0980   29.7560   76.7990 C   0  0  0  0  0  0  0  0  0  0  0  0
   11.1230   29.7450   77.7140 C   0  0  0  0  0  0  0  0  0  0  0  0
   12.4030   29.3730   77.3230 C   0  0  0  0  0  0  0  0  0  0  0  0
   12.7200   29.0050   76.0440 C   0  0  0  0  0  0  0  0  0  0  0  0
   11.6540   29.0260   75.1310 C   0  0  0  0  0  3  0  0  0  0  0  0
   10.3810   29.3930   75.5080 C   0  0  0  0  0  3  0  0  0  0  0  0
   14.1350   28.6800   75.9690 C   0  0  1  0  0  0  0  0  0  0  0  0
   14.2510   27.2710   75.6020 N   0  0  0  0  0  0  0  0  0  0  0  0
   14.6220   27.3260   74.2150 C   0  0  1  0  0  3  0  0  0  0  0  0
   15.6650   28.4200   74.2120 C   0  0  2  0  0  3  0  0  0  0  0  0
   14.9440   29.4840   75.0120 C   0  0  1  0  0  3  0  0  0  0  0  0
   14.2270   30.2620   74.0220 C   0  0  0  0  0  0  0  0  0  0  0  0
   13.2900   31.0630   74.2330 O   0  0  0  0  0  0  0  0  0  0  0  0
   14.7570   29.9770   72.7340 N   0  0  0  0  0  0  0  0  0  0  0  0
   15.8160   29.0280   72.8650 C   0  0  0  0  0  0  0  0  0  0  0  0
   16.7210   28.7200   72.0540 O   0  0  0  0  0  0  0  0  0  0  0  0
   14.6490   28.8790   77.3450 C   0  0  0  0  0  0  0  0  0  0  0  0
   15.8320   28.7100   77.7640 O   0  0  0  0  0  0  0  0  0  0  0  0
   13.5650   29.3050   78.1400 N   0  0  0  0  0  0  0  0  0  0  0  0
   10.8280   30.1370   79.1200 C   0  0  0  0  0  1  0  0  0  0  0  0
   13.3500   26.7840   75.7930 H   0  0  0  0  0  0  0  0  0  0  0  0
   13.6260   29.5310   79.1700 H   0  0  0  0  0  0  0  0  0  0  0  0
   15.1830   26.0040   73.7390 C   0  0  0  0  0  2  0  0  0  0  0  0
   16.5300   25.8360   74.4100 C   0  0  0  0  0  2  0  0  0  0  0  0
   17.5310   25.2370   73.4920 C   0  0  0  0  0  0  0  0  0  0  0  0
   18.1610   24.2020   73.8510 O   0  0  0  0  0  0  0  0  0  0  0  0
   17.7280   25.8740   72.2370 N   0  0  0  0  0  0  0  0  0  0  0  0
   16.9040   26.2760   71.7580 H   0  0  0  0  0  0  0  0  0  0  0  0
   18.7100   25.8970   71.8620 H   0  0  0  0  0  0  0  0  0  0  0  0
   14.3560   30.5140   71.4470 C   0  0  0  0  0  2  0  0  0  0  0  0
   14.4140   31.9860   71.4150 C   0  0  0  0  0  0  0  0  0  0  0  0
   15.6570   32.5820   71.3680 C   0  0  0  0  0  0  0  0  0  0  0  0
   15.7050   33.9690   71.3380 C   0  0  0  0  0  3  0  0  0  0  0  0
   14.5670   34.7240   71.3550 C   0  0  0  0  0  3  0  0  0  0  0  0
   13.3460   34.0930   71.4010 C   0  0  0  0  0  3  0  0  0  0  0  0
   13.2320   32.7210   71.4330 C   0  0  0  0  0  3  0  0  0  0  0  0
   16.7910   31.7980   71.3520 O   0  0  0  0  0  0  0  0  0  0  0  0
   17.7590   31.8150   70.3490 C   0  0  0  0  0  1  0  0  0  0  0  0
  2  1  1  0  0  0  0
  2  3  1  0  0  0  0
  3 21  1  0  0  0  0
  4  3  2  0  0  0  0
  4 20  1  0  0  0  0
  5  4  1  0  0  0  0
  6  7  1  0  0  0  0
  6  5  2  0  0  0  0
  7  2  2  0  0  0  0
  8  5  1  6  0  0  0
  8 18  1  0  0  0  0
  9 22  1  0  0  0  0
  9  8  1  0  0  0  0
 10 24  1  1  0  0  0
 10  9  1  0  0  0  0
 11 16  1  6  0  0  0
 11 10  1  0  0  0  0
 11 12  1  0  0  0  0
 12 13  1  6  0  0  0
 12  8  1  0  0  0  0
 13 14  2  0  0  0  0
 15 16  1  0  0  0  0
 15 13  1  0  0  0  0
 17 16  2  0  0  0  0
 18 19  2  0  0  0  0
 18 20  1  0  0  0  0
 20 23  1  0  0  0  0
 24 25  1  0  0  0  0
 26 27  2  0  0  0  0
 26 25  1  0  0  0  0
 28 26  1  0  0  0  0
 29 28  1  0  0  0  0
 30 28  1  0  0  0  0
 31 15  1  0  0  0  0
 32 37  1  0  0  0  0
 32 31  1  0  0  0  0
 33 32  2  0  0  0  0
 34 35  2  0  0  0  0
 34 33  1  0  0  0  0
 35 36  1  0  0  0  0
 36 37  2  0  0  0  0
 38 33  1  0  0  0  0
 39 38  1  0  0  0  0
M  END
>  <Pose>
1

>  <Score>
-8.141

$$$$
