MODEL 1
REMARK VINA RESULT:    -8.141      0.000      0.000
REMARK INTER + INTRA:         -12.179
REMARK INTER:                 -10.996
REMARK INTRA:                  -1.182
REMARK UNBOUND:                -1.182
REMARK  6 active torsions:
REMARK  status: ('A' for Active; 'I' for Inactive)
REMARK    1  A    between atoms: C_10  and  C_27 
REMARK    2  A    between atoms: N_15  and  C_18 
REMARK    3  A    between atoms: C_18  and  C_19 
REMARK    4  A    between atoms: C_20  and  O_25 
REMARK    5  A    between atoms: C_27  and  C_28 
REMARK    6  A    between atoms: C_28  and  C_29 
REMARK       I    between atoms: C_29  and  N_31 
ROOT
ATOM      1 Cl   UNK d   1       8.468  30.230  77.300  0.00  0.00    -0.084 Cl
ATOM      2  C   UNK d   1      10.098  29.756  76.799  0.00  0.00     0.042 A 
ATOM      3  C   UNK d   1      11.123  29.745  77.714  0.00  0.00    -0.013 A 
ATOM      4  C   UNK d   1      12.403  29.373  77.323  0.00  0.00     0.051 A 
ATOM      5  C   UNK d   1      12.720  29.005  76.044  0.00  0.00     0.018 A 
ATOM      6  C   UNK d   1      11.654  29.026  75.131  0.00  0.00     0.014 A 
ATOM      7  C   UNK d   1      10.381  29.393  75.508  0.00  0.00     0.025 A 
ATOM      8  C   UNK d   1      14.135  28.680  75.969  0.00  0.00     0.279 A 
ATOM      9  N   UNK d   1      14.251  27.271  75.602  0.00  0.00     0.113 N 
ATOM     10  C   UNK d   1      14.622  27.326  74.215  0.00  0.00     0.237 C 
ATOM     11  C   UNK d   1      15.665  28.420  74.212  0.00  0.00     0.128 C 
ATOM     12  C   UNK d   1      14.944  29.484  75.012  0.00  0.00     0.147 C 
ATOM     13  C   UNK d   1      14.227  30.262  74.022  0.00  0.00     0.235 C 
ATOM     14  O   UNK d   1      13.290  31.063  74.233  0.00  0.00    -0.272 OA
ATOM     15  N   UNK d   1      14.757  29.977  72.734  0.00  0.00    -0.283 N 
ATOM     16  C   UNK d   1      15.816  29.028  72.865  0.00  0.00     0.234 C 
ATOM     17  O   UNK d   1      16.721  28.720  72.054  0.00  0.00    -0.272 OA
ATOM     18  C   UNK d   1      14.649  28.879  77.345  0.00  0.00     0.267 A 
ATOM     19  O   UNK d   1      15.832  28.710  77.764  0.00  0.00    -0.270 OA
ATOM     20  N   UNK d   1      13.565  29.305  78.140  0.00  0.00    -0.323 N 
ATOM     21  C   UNK d   1      10.828  30.137  79.120  0.00  0.00     0.052 C 
ATOM     22  H   UNK d   1      13.350  26.784  75.793  0.00  0.00     0.318 HD
ATOM     23  H   UNK d   1      13.626  29.531  79.170  0.00  0.00     0.169 HD
ENDROOT
BRANCH  10  24
ATOM     24  C   UNK d   1      15.183  26.004  73.739  0.00  0.00     0.045 C 
BRANCH  24  25
ATOM     25  C   UNK d   1      16.530  25.836  74.410  0.00  0.00     0.105 C 
BRANCH  25  26
ATOM     26  C   UNK d   1      17.531  25.237  73.492  0.00  0.00     0.215 C 
ATOM     27  O   UNK d   1      18.161  24.202  73.851  0.00  0.00    -0.274 OA
ATOM     28  N   UNK d   1      17.728  25.874  72.237  0.00  0.00    -0.370 N 
ATOM     29  H   UNK d   1      16.904  26.276  71.758  0.00  0.00     0.159 HD
ATOM     30  H   UNK d   1      18.710  25.897  71.862  0.00  0.00     0.159 HD
ENDBRANCH  25  26
ENDBRANCH  24  25
ENDBRANCH  10  24
BRANCH  15  31
ATOM     31  C   UNK d   1      14.356  30.514  71.447  0.00  0.00     0.176 C 
BRANCH  31  32
ATOM     32  C   UNK d   1      14.414  31.986  71.415  0.00  0.00    -0.006 A 
ATOM     33  C   UNK d   1      15.657  32.582  71.368  0.00  0.00     0.076 A 
ATOM     34  C   UNK d   1      15.705  33.969  71.338  0.00  0.00     0.037 A 
ATOM     35  C   UNK d   1      14.567  34.724  71.355  0.00  0.00     0.003 A 
ATOM     36  C   UNK d   1      13.346  34.093  71.401  0.00  0.00     0.001 A 
ATOM     37  C   UNK d   1      13.232  32.721  71.433  0.00  0.00     0.011 A 
BRANCH  33  38
ATOM     38  O   UNK d   1      16.791  31.798  71.352  0.00  0.00    -0.355 OA
ATOM     39  C   UNK d   1      17.759  31.815  70.349  0.00  0.00     0.210 C 
ENDBRANCH  33  38
ENDBRANCH  31  32
ENDBRANCH  15  31
TORSDOF 6
ENDMDL
