MODEL 1
REMARK VINA RESULT:    -9.097      0.000      0.000
REMARK INTER + INTRA:         -11.148
REMARK INTER:                 -10.692
REMARK INTRA:                  -0.455
REMARK UNBOUND:                -0.455
REMARK  3 active torsions:
REMARK  status: ('A' for Active; 'I' for Inactive)
REMARK    1  A    between atoms: C_4  and  C_8 
REMARK    2  A    between atoms: N_9  and  C_23 
REMARK    3  A    between atoms: C_15  and  C_17 
ROOT
ATOM      1  C   UNK d   1      16.232  32.857  72.333  0.00  0.00     0.185 C 
ATOM      2  N   UNK d   1      15.913  31.464  72.465  0.00  0.00    -0.128 N 
ATOM      3  C   UNK d   1      16.648  30.690  71.523  0.00  0.00     0.314 C 
ATOM      4  O   UNK d   1      16.425  29.496  71.169  0.00  0.00    -0.263 OA
ATOM      5  C   UNK d   1      17.748  31.535  71.012  0.00  0.00     0.251 C 
ATOM      6  O   UNK d   1      18.594  31.178  70.162  0.00  0.00    -0.282 OA
ATOM      7  C   UNK d   1      17.598  32.808  71.705  0.00  0.00     0.063 C 
ATOM      8  C   UNK d   1      18.519  33.747  71.721  0.00  0.00     0.130 C 
ATOM      9  O   UNK d   1      18.200  34.944  72.394  0.00  0.00    -0.190 OA
ENDROOT
BRANCH   1  10
ATOM     10  C   UNK d   1      15.268  33.617  71.498  0.00  0.00    -0.028 A 
ATOM     11  C   UNK d   1      15.262  35.005  71.471  0.00  0.00     0.033 A 
ATOM     12  C   UNK d   1      14.388  35.746  70.711  0.00  0.00     0.034 A 
ATOM     13 Cl   UNK d   1      14.412  37.496  70.700  0.00  0.00    -0.084 Cl
ATOM     14  C   UNK d   1      13.472  35.067  69.938  0.00  0.00     0.024 A 
ATOM     15  C   UNK d   1      13.440  33.688  69.932  0.00  0.00     0.002 A 
ATOM     16  C   UNK d   1      14.327  32.971  70.703  0.00  0.00     0.010 A 
ENDBRANCH   1  10
BRANCH   8  17
ATOM     17  C   UNK d   1      19.830  33.626  71.099  0.00  0.00     0.001 A 
ATOM     18  C   UNK d   1      20.063  34.227  69.854  0.00  0.00     0.014 A 
ATOM     19  C   UNK d   1      21.301  34.154  69.255  0.00  0.00     0.001 A 
ATOM     20  C   UNK d   1      22.364  33.497  69.838  0.00  0.00     0.000 A 
ATOM     21  C   UNK d   1      22.157  32.900  71.062  0.00  0.00     0.001 A 
ATOM     22  C   UNK d   1      20.901  32.975  71.666  0.00  0.00     0.014 A 
ENDBRANCH   8  17
BRANCH   2  23
ATOM     23  C   UNK d   1      14.997  30.919  73.391  0.00  0.00     0.710 A 
ATOM     24  N   UNK d   1      15.499  29.991  74.248  0.00  0.00    -0.200 N 
ATOM     25  C   UNK d   1      14.737  29.403  75.169  0.00  0.00     0.107 A 
ATOM     26  H   UNK d   1      16.517  29.712  74.203  0.00  0.00     0.183 HD
ATOM     27  C   UNK d   1      13.410  29.762  75.239  0.00  0.00     0.037 A 
ATOM     28  C   UNK d   1      12.924  30.707  74.361  0.00  0.00     0.138 A 
ATOM     29  N   UNK d   1      13.699  31.294  73.433  0.00  0.00    -0.077 NA
ENDBRANCH   2  23
TORSDOF 3
ENDMDL
