/Users/jonathanwahrer/Desktop/Msc/3_Semester/Drug_Design_Praktikum/waehrer_HTS_screening/HTS_experiment/out/docking_results/vina_output/4x21/1637_docked.pdbqt
 OpenBabel03212202333D

 29 32  0  0  0  0  0  0  0  0999 V2000
   22.9130   33.5840   69.1490 C   0  0  0  0  0  0  0  0  0  0  0  0
   22.2350   34.4690   69.8880 N   0  0  0  0  0  0  0  0  0  0  0  0
   21.5600   34.1650   70.9920 C   0  0  0  0  0  0  0  0  0  0  0  0
   21.5610   32.8180   71.3900 C   0  0  0  0  0  0  0  0  0  0  0  0
   22.2460   31.9290   70.6410 C   0  0  0  0  0  0  0  0  0  0  0  0
   22.9230   32.3180   69.5240 N   0  0  0  0  0  0  0  0  0  0  0  0
   20.6900   32.5100   72.5280 C   0  0  0  0  0  2  0  0  0  0  0  0
   19.4210   33.0880   72.2080 N   0  0  0  0  0  0  0  0  0  0  0  0
   19.6290   34.5630   72.5580 C   0  0  0  0  0  2  0  0  0  0  0  0
   20.7870   35.1320   71.8150 C   0  0  0  0  0  2  0  0  0  0  0  0
   19.0770   33.2180   70.7460 C   0  0  0  0  0  2  0  0  0  0  0  0
   17.5500   33.1920   70.8560 C   0  0  0  0  0  0  0  0  0  0  0  0
   16.7360   34.2500   70.7320 C   0  0  0  0  0  0  0  0  0  0  0  0
   15.3210   34.1780   70.8400 C   0  0  0  0  0  0  0  0  0  0  0  0
   17.4410   35.7860   70.3610 Cl  0  0  0  0  0  0  0  0  0  0  0  0
   14.8250   32.8940   71.0840 C   0  0  0  0  0  0  0  0  0  0  0  0
   14.4610   35.2170   70.7240 C   0  0  0  0  0  3  0  0  0  0  0  0
   13.4720   32.7630   71.1970 C   0  0  0  0  0  3  0  0  0  0  0  0
   15.5990   31.8700   71.1930 O   0  0  0  0  0  0  0  0  0  0  0  0
   12.5560   33.8330   71.0840 C   0  0  0  0  0  3  0  0  0  0  0  0
   13.1030   35.1040   70.8330 C   0  0  0  0  0  3  0  0  0  0  0  0
   16.9330   31.9660   71.0910 C   0  0  0  0  0  0  0  0  0  0  0  0
   17.6960   30.9320   71.2150 O   0  0  0  0  0  0  0  0  0  0  0  0
   22.2590   30.6010   71.0400 O   0  0  0  0  0  0  0  0  0  0  0  0
   22.6290   29.8360   70.4660 H   0  0  0  0  0  0  0  0  0  0  0  0
   23.6740   34.1470   67.6490 S   0  0  0  0  0  0  0  0  0  0  0  0
   23.8040   33.0930   66.6670 O   0  0  0  0  0  0  0  0  0  0  0  0
   25.0040   34.7210   68.0370 O   0  0  0  0  0  0  0  0  0  0  0  0
   22.6440   35.5210   67.0770 C   0  0  0  0  0  1  0  0  0  0  0  0
  1  6  1  0  0  0  0
  1  2  2  0  0  0  0
  2  3  1  0  0  0  0
  3  4  2  0  0  0  0
  3 10  1  0  0  0  0
  4  7  1  0  0  0  0
  5 24  1  0  0  0  0
  5  4  1  0  0  0  0
  6  5  2  0  0  0  0
  8  7  1  0  0  0  0
  8  9  1  0  0  0  0
 10  9  1  0  0  0  0
 11 12  1  0  0  0  0
 11  8  1  0  0  0  0
 12 22  1  0  0  0  0
 13 14  1  0  0  0  0
 13 12  2  0  0  0  0
 14 16  1  0  0  0  0
 15 13  1  0  0  0  0
 16 19  1  0  0  0  0
 16 18  2  0  0  0  0
 17 21  1  0  0  0  0
 17 14  2  0  0  0  0
 20 18  1  0  0  0  0
 21 20  2  0  0  0  0
 22 19  1  0  0  0  0
 22 23  2  0  0  0  0
 25 24  1  0  0  0  0
 26 28  2  0  0  0  0
 26  1  1  0  0  0  0
 27 26  2  0  0  0  0
 29 26  1  0  0  0  0
M  END
>  <Pose>
1

>  <Score>
-8.607

$$$$
