MODEL 1
REMARK VINA RESULT:    -8.607      0.000      0.000
REMARK INTER + INTRA:         -10.829
REMARK INTER:                 -10.368
REMARK INTRA:                  -0.462
REMARK UNBOUND:                -0.462
REMARK  4 active torsions:
REMARK  status: ('A' for Active; 'I' for Inactive)
REMARK    1  A    between atoms: S_1  and  C_5 
REMARK    2  A    between atoms: C_9  and  O_11 
REMARK    3  A    between atoms: N_13  and  C_16 
REMARK    4  A    between atoms: C_16  and  C_17 
ROOT
ATOM      1  C   UNK d   1      22.913  33.584  69.149  0.00  0.00     0.249 A 
ATOM      2  N   UNK d   1      22.235  34.469  69.888  0.00  0.00    -0.223 NA
ATOM      3  C   UNK d   1      21.560  34.165  70.992  0.00  0.00     0.051 A 
ATOM      4  C   UNK d   1      21.561  32.818  71.390  0.00  0.00     0.048 A 
ATOM      5  C   UNK d   1      22.246  31.929  70.641  0.00  0.00     0.175 A 
ATOM      6  N   UNK d   1      22.923  32.318  69.524  0.00  0.00    -0.194 NA
ATOM      7  C   UNK d   1      20.690  32.510  72.528  0.00  0.00     0.318 C 
ATOM      8  N   UNK d   1      19.421  33.088  72.208  0.00  0.00     0.097 N 
ATOM      9  C   UNK d   1      19.629  34.563  72.558  0.00  0.00     0.279 C 
ATOM     10  C   UNK d   1      20.787  35.132  71.815  0.00  0.00     0.090 C 
ENDROOT
BRANCH   8  11
ATOM     11  C   UNK d   1      19.077  33.218  70.746  0.00  0.00     0.319 C 
BRANCH  11  12
ATOM     12  C   UNK d   1      17.550  33.192  70.856  0.00  0.00     0.068 A 
ATOM     13  C   UNK d   1      16.736  34.250  70.732  0.00  0.00     0.061 A 
ATOM     14  C   UNK d   1      15.321  34.178  70.840  0.00  0.00     0.020 A 
ATOM     15 Cl   UNK d   1      17.441  35.786  70.361  0.00  0.00    -0.083 Cl
ATOM     16  C   UNK d   1      14.825  32.894  71.084  0.00  0.00     0.091 A 
ATOM     17  C   UNK d   1      14.461  35.217  70.724  0.00  0.00     0.016 A 
ATOM     18  C   UNK d   1      13.472  32.763  71.197  0.00  0.00     0.038 A 
ATOM     19  O   UNK d   1      15.599  31.870  71.193  0.00  0.00    -0.274 OA
ATOM     20  C   UNK d   1      12.556  33.833  71.084  0.00  0.00     0.003 A 
ATOM     21  C   UNK d   1      13.103  35.104  70.833  0.00  0.00     0.001 A 
ATOM     22  C   UNK d   1      16.933  31.966  71.091  0.00  0.00     0.298 A 
ATOM     23  O   UNK d   1      17.696  30.932  71.215  0.00  0.00    -0.259 OA
ENDBRANCH  11  12
ENDBRANCH   8  11
BRANCH   5  24
ATOM     24  O   UNK d   1      22.259  30.601  71.040  0.00  0.00    -0.344 OA
ATOM     25  H   UNK d   1      22.629  29.836  70.466  0.00  0.00     0.219 HD
ENDBRANCH   5  24
BRANCH   1  26
ATOM     26  S   UNK d   1      23.674  34.147  67.649  0.00  0.00     0.207 S 
ATOM     27  O   UNK d   1      23.804  33.093  66.667  0.00  0.00    -0.220 OA
ATOM     28  O   UNK d   1      25.004  34.721  68.037  0.00  0.00    -0.220 OA
ATOM     29  C   UNK d   1      22.644  35.521  67.077  0.00  0.00     0.170 C 
ENDBRANCH   1  26
TORSDOF 4
ENDMDL
