MODEL 1
REMARK VINA RESULT:    -7.607      0.000      0.000
REMARK INTER + INTRA:          -7.607
REMARK INTER:                  -7.607
REMARK INTRA:                   0.000
REMARK UNBOUND:                 0.000
REMARK  0 active torsions:
REMARK  status: ('A' for Active; 'I' for Inactive)
ROOT
ATOM      1 Cl   UNK d   1      13.527  30.274  73.220  0.00  0.00    -0.084 Cl
ATOM      2  C   UNK d   1      14.171  31.760  72.516  0.00  0.00     0.034 A 
ATOM      3  C   UNK d   1      15.518  32.026  72.498  0.00  0.00     0.034 A 
ATOM      4  C   UNK d   1      16.005  33.215  71.933  0.00  0.00    -0.006 A 
ATOM      5  C   UNK d   1      15.163  34.140  71.385  0.00  0.00     0.044 A 
ATOM      6  C   UNK d   1      13.781  33.875  71.399  0.00  0.00     0.032 A 
ATOM      7  C   UNK d   1      13.339  32.703  71.961  0.00  0.00     0.026 A 
ATOM      8  N   UNK d   1      15.861  35.263  70.871  0.00  0.00    -0.321 N 
ATOM      9  C   UNK d   1      17.236  35.025  71.114  0.00  0.00     0.242 A 
ATOM     10  O   UNK d   1      18.159  35.826  70.785  0.00  0.00    -0.271 OA
ATOM     11  C   UNK d   1      17.392  33.720  71.795  0.00  0.00     0.111 A 
ATOM     12  C   UNK d   1      18.016  34.005  73.145  0.00  0.00     0.132 C 
ATOM     13  C   UNK d   1      19.435  34.395  72.845  0.00  0.00     0.225 C 
ATOM     14  O   UNK d   1      19.951  35.454  73.248  0.00  0.00    -0.273 OA
ATOM     15  N   UNK d   1      20.190  33.472  72.051  0.00  0.00    -0.311 N 
ATOM     16  C   UNK d   1      19.516  32.646  71.110  0.00  0.00     0.133 A 
ATOM     17  N   UNK d   1      19.946  31.692  70.241  0.00  0.00    -0.262 N 
ATOM     18  N   UNK d   1      18.904  31.224  69.598  0.00  0.00    -0.185 NA
ATOM     19  C   UNK d   1      17.776  31.829  70.002  0.00  0.00     0.151 A 
ATOM     20  C   UNK d   1      18.155  32.756  70.982  0.00  0.00     0.030 A 
ATOM     21  C   UNK d   1      15.258  36.430  70.220  0.00  0.00     0.159 C 
ATOM     22  H   UNK d   1      21.225  33.395  72.153  0.00  0.00     0.170 HD
ATOM     23  H   UNK d   1      20.952  31.420  70.146  0.00  0.00     0.191 HD
ENDROOT
TORSDOF 0
ENDMDL
