/Users/jonathanwahrer/Desktop/Msc/3_Semester/Drug_Design_Praktikum/waehrer_HTS_screening/HTS_experiment/out/docking_results/vina_output/4x21/1651_docked.pdbqt
 OpenBabel03212202333D

 23 26  0  0  1  0  0  0  0  0999 V2000
   13.5270   30.2740   73.2200 Cl  0  0  0  0  0  0  0  0  0  0  0  0
   14.1710   31.7600   72.5160 C   0  0  0  0  0  0  0  0  0  0  0  0
   15.5180   32.0260   72.4980 C   0  0  0  0  0  3  0  0  0  0  0  0
   16.0050   33.2150   71.9330 C   0  0  0  0  0  0  0  0  0  0  0  0
   15.1630   34.1400   71.3850 C   0  0  0  0  0  0  0  0  0  0  0  0
   13.7810   33.8750   71.3990 C   0  0  0  0  0  3  0  0  0  0  0  0
   13.3390   32.7030   71.9610 C   0  0  0  0  0  3  0  0  0  0  0  0
   15.8610   35.2630   70.8710 N   0  0  0  0  0  0  0  0  0  0  0  0
   17.2360   35.0250   71.1140 C   0  0  0  0  0  0  0  0  0  0  0  0
   18.1590   35.8260   70.7850 O   0  0  0  0  0  0  0  0  0  0  0  0
   17.3920   33.7200   71.7950 C   0  0  1  0  0  0  0  0  0  0  0  0
   18.0160   34.0050   73.1450 C   0  0  0  0  0  2  0  0  0  0  0  0
   19.4350   34.3950   72.8450 C   0  0  0  0  0  0  0  0  0  0  0  0
   19.9510   35.4540   73.2480 O   0  0  0  0  0  0  0  0  0  0  0  0
   20.1900   33.4720   72.0510 N   0  0  0  0  0  0  0  0  0  0  0  0
   19.5160   32.6460   71.1100 C   0  0  0  0  0  0  0  0  0  0  0  0
   19.9460   31.6920   70.2410 N   0  0  0  0  0  0  0  0  0  0  0  0
   18.9040   31.2240   69.5980 N   0  0  0  0  0  0  0  0  0  0  0  0
   17.7760   31.8290   70.0020 C   0  0  0  0  0  3  0  0  0  0  0  0
   18.1550   32.7560   70.9820 C   0  0  0  0  0  0  0  0  0  0  0  0
   15.2580   36.4300   70.2200 C   0  0  0  0  0  1  0  0  0  0  0  0
   21.2250   33.3950   72.1530 H   0  0  0  0  0  0  0  0  0  0  0  0
   20.9520   31.4200   70.1460 H   0  0  0  0  0  0  0  0  0  0  0  0
  2  1  1  0  0  0  0
  3  2  1  0  0  0  0
  4  3  2  0  0  0  0
  5  6  2  0  0  0  0
  5  4  1  0  0  0  0
  6  7  1  0  0  0  0
  7  2  2  0  0  0  0
  8  9  1  0  0  0  0
  8  5  1  0  0  0  0
  9 11  1  0  0  0  0
 10  9  2  0  0  0  0
 11  4  1  0  0  0  0
 11 12  1  1  0  0  0
 13 12  1  0  0  0  0
 13 14  2  0  0  0  0
 15 22  1  0  0  0  0
 15 13  1  0  0  0  0
 16 15  1  0  0  0  0
 17 16  1  0  0  0  0
 18 19  2  0  0  0  0
 18 17  1  0  0  0  0
 19 20  1  0  0  0  0
 20 16  2  0  0  0  0
 20 11  1  0  0  0  0
 21  8  1  0  0  0  0
 23 17  1  0  0  0  0
M  END
>  <Pose>
1

>  <Score>
-7.607

$$$$
