MODEL 1
REMARK VINA RESULT:    -9.671      0.000      0.000
REMARK INTER + INTRA:         -11.206
REMARK INTER:                 -10.802
REMARK INTRA:                  -0.404
REMARK UNBOUND:                -0.404
REMARK  2 active torsions:
REMARK  status: ('A' for Active; 'I' for Inactive)
REMARK    1  A    between atoms: N_15  and  C_20 
REMARK       I    between atoms: C_21  and  N_23 
REMARK    2  A    between atoms: N_26  and  C_29 
ROOT
ATOM      1 Cl   UNK d   1      16.114  37.083  69.590  0.00  0.00    -0.084 Cl
ATOM      2  C   UNK d   1      15.949  35.619  70.567  0.00  0.00     0.035 A 
ATOM      3  C   UNK d   1      14.717  35.020  70.716  0.00  0.00     0.043 A 
ATOM      4  C   UNK d   1      14.594  33.895  71.465  0.00  0.00     0.060 A 
ATOM      5  C   UNK d   1      15.715  33.336  72.094  0.00  0.00     0.045 A 
ATOM      6  C   UNK d   1      16.933  33.951  71.933  0.00  0.00     0.032 A 
ATOM      7  C   UNK d   1      17.077  35.102  71.169  0.00  0.00     0.026 A 
ATOM      8  N   UNK d   1      15.594  32.156  72.881  0.00  0.00    -0.363 N 
ATOM      9  C   UNK d   1      14.513  31.225  72.593  0.00  0.00     0.108 C 
ATOM     10  N   UNK d   1      13.311  32.018  72.486  0.00  0.00    -0.330 N 
ATOM     11  C   UNK d   1      13.335  33.187  71.683  0.00  0.00     0.255 C 
ATOM     12  O   UNK d   1      12.309  33.664  71.132  0.00  0.00    -0.268 OA
ATOM     13  C   UNK d   1      14.399  30.266  73.730  0.00  0.00     0.074 C 
ATOM     14  C   UNK d   1      15.310  29.066  73.597  0.00  0.00     0.130 C 
ATOM     15  N   UNK d   1      16.662  29.448  73.248  0.00  0.00    -0.344 N 
ATOM     16  C   UNK d   1      16.995  30.146  72.022  0.00  0.00     0.220 C 
ATOM     17  O   UNK d   1      18.183  30.529  71.933  0.00  0.00    -0.273 OA
ATOM     18  C   UNK d   1      16.151  30.477  70.862  0.00  0.00     0.107 C 
ATOM     19  C   UNK d   1      14.703  30.562  71.243  0.00  0.00     0.063 C 
ATOM     20  H   UNK d   1      16.298  32.016  73.636  0.00  0.00     0.162 HD
ATOM     21  H   UNK d   1      12.424  31.775  72.968  0.00  0.00     0.165 HD
ENDROOT
BRANCH  15  22
ATOM     22  C   UNK d   1      17.739  29.175  74.110  0.00  0.00     0.212 C 
ATOM     23  C   UNK d   1      18.396  27.888  74.142  0.00  0.00     0.171 C 
ATOM     24  O   UNK d   1      19.406  27.886  75.013  0.00  0.00    -0.175 OA
ATOM     25  N   UNK d   1      18.145  26.725  73.448  0.00  0.00    -0.359 N 
ATOM     26  C   UNK d   1      19.013  25.546  73.703  0.00  0.00     0.144 C 
ATOM     27  C   UNK d   1      17.122  26.493  72.507  0.00  0.00     0.144 C 
ATOM     28  C   UNK d   1      18.023  24.378  73.833  0.00  0.00     0.137 C 
ATOM     29  N   UNK d   1      16.716  24.837  74.167  0.00  0.00    -0.406 N 
ATOM     30  C   UNK d   1      16.037  25.583  73.151  0.00  0.00     0.137 C 
BRANCH  29  31
ATOM     31  C   UNK d   1      15.895  23.923  74.886  0.00  0.00     0.071 C 
ATOM     32  C   UNK d   1      14.494  23.790  74.325  0.00  0.00     0.031 C 
ATOM     33  C   UNK d   1      16.501  22.554  75.031  0.00  0.00     0.031 C 
ENDBRANCH  29  31
ENDBRANCH  15  22
TORSDOF 2
ENDMDL
