/Users/jonathanwahrer/Desktop/Msc/3_Semester/Drug_Design_Praktikum/waehrer_HTS_screening/HTS_experiment/out/docking_results/vina_output/4x21/1666_docked.pdbqt
 OpenBabel03212202343D

 30 34  0  0  1  0  0  0  0  0999 V2000
   17.2000   30.9760   71.5890 N   0  0  0  0  0  0  0  0  0  0  0  0
   17.8150   31.5900   70.4420 C   0  0  0  0  0  2  0  0  0  0  0  0
   19.1450   32.2180   70.7910 C   0  0  0  0  0  2  0  0  0  0  0  0
   18.9770   33.1680   71.9200 N   0  0  0  0  0  0  0  0  0  0  0  0
   18.5660   32.3950   73.0830 C   0  0  0  0  0  2  0  0  0  0  0  0
   18.0640   31.0060   72.7300 C   0  0  0  0  0  2  0  0  0  0  0  0
   20.3110   33.6870   72.1310 C   0  0  0  0  0  2  0  0  0  0  0  0
   20.5660   35.0920   71.7820 C   0  0  0  0  0  2  0  0  0  0  0  0
   20.8920   35.4400   70.4400 N   0  0  0  0  0  0  0  0  0  0  0  0
   21.8510   34.8900   69.5440 C   0  0  0  0  0  0  0  0  0  0  0  0
   22.8850   34.2940   69.8790 O   0  0  0  0  0  0  0  0  0  0  0  0
   21.4080   35.1480   68.1530 C   0  0  1  0  0  3  0  0  0  0  0  0
   20.6280   36.4680   68.3500 C   0  0  2  0  0  3  0  0  0  0  0  0
   22.5490   35.6310   67.3310 C   0  0  2  0  0  3  0  0  0  0  0  0
   21.5630   37.5470   67.9530 C   0  0  1  0  0  3  0  0  0  0  0  0
   20.1760   36.4780   69.7340 C   0  0  0  0  0  0  0  0  0  0  0  0
   22.9330   36.8760   68.1490 C   0  0  0  0  0  2  0  0  0  0  0  0
   21.5840   37.5550   66.4390 C   0  0  0  0  0  2  0  0  0  0  0  0
   21.9580   36.3130   66.1310 C   0  0  0  0  0  2  0  0  0  0  0  0
   19.3140   37.2650   70.1990 O   0  0  0  0  0  0  0  0  0  0  0  0
   15.5690   31.2940   71.8330 S   0  0  0  0  0  0  0  0  0  0  0  0
   14.7770   30.1010   71.3120 O   0  0  0  0  0  0  0  0  0  0  0  0
   15.3130   31.2700   73.3400 O   0  0  0  0  0  0  0  0  0  0  0  0
   14.9540   32.7810   71.2340 C   0  0  0  0  0  0  0  0  0  0  0  0
   15.5030   33.9780   71.6260 C   0  0  0  0  0  3  0  0  0  0  0  0
   14.9880   35.1560   71.1150 C   0  0  0  0  0  3  0  0  0  0  0  0
   13.9340   35.1800   70.2190 C   0  0  0  0  0  0  0  0  0  0  0  0
   13.3870   33.9760   69.8290 C   0  0  0  0  0  3  0  0  0  0  0  0
   13.2220   36.8020   69.5160 Br  0  0  0  0  0  0  0  0  0  0  0  0
   13.9050   32.7920   70.3430 C   0  0  0  0  0  3  0  0  0  0  0  0
  1 21  1  0  0  0  0
  1  6  1  0  0  0  0
  2  3  1  0  0  0  0
  2  1  1  0  0  0  0
  3  4  1  0  0  0  0
  4  7  1  0  0  0  0
  4  5  1  0  0  0  0
  6  5  1  0  0  0  0
  8  7  1  0  0  0  0
  9  8  1  0  0  0  0
 10 11  2  0  0  0  0
 10  9  1  0  0  0  0
 12 13  1  0  0  0  0
 12 10  1  1  0  0  0
 13 16  1  1  0  0  0
 14 19  1  6  0  0  0
 14 17  1  0  0  0  0
 14 12  1  0  0  0  0
 15 18  1  6  0  0  0
 15 17  1  0  0  0  0
 15 13  1  0  0  0  0
 16 20  2  0  0  0  0
 16  9  1  0  0  0  0
 19 18  1  0  0  0  0
 21 23  2  0  0  0  0
 22 21  2  0  0  0  0
 24 25  1  0  0  0  0
 24 21  1  0  0  0  0
 26 25  2  0  0  0  0
 27 26  1  0  0  0  0
 28 27  2  0  0  0  0
 28 30  1  0  0  0  0
 29 27  1  0  0  0  0
 30 24  2  0  0  0  0
M  END
>  <Pose>
1

>  <Score>
-9.126

$$$$
