MODEL 1
REMARK VINA RESULT:    -8.205      0.000      0.000
REMARK INTER + INTRA:         -13.580
REMARK INTER:                 -11.562
REMARK INTRA:                  -2.018
REMARK UNBOUND:                -2.018
REMARK  7 active torsions:
REMARK  status: ('A' for Active; 'I' for Inactive)
REMARK    1  A    between atoms: C_5  and  C_8 
REMARK    2  A    between atoms: C_8  and  C_10 
REMARK    3  A    between atoms: N_12  and  C_17 
REMARK    4  A    between atoms: C_17  and  C_18 
REMARK    5  A    between atoms: C_18  and  N_19 
REMARK    6  A    between atoms: C_27  and  O_32 
REMARK    7  A    between atoms: O_32  and  C_33 
ROOT
ATOM      1  C   UNK d   1      19.229  33.063  72.123  0.00  0.00     0.167 C 
ATOM      2  C   UNK d   1      20.636  33.303  71.643  0.00  0.00     0.140 C 
ATOM      3  N   UNK d   1      21.242  32.055  71.511  0.00  0.00    -0.334 N 
ATOM      4  C   UNK d   1      20.726  31.339  72.703  0.00  0.00     0.291 C 
ATOM      5  O   UNK d   1      21.325  30.462  73.382  0.00  0.00    -0.264 OA
ATOM      6  C   UNK d   1      19.382  31.841  72.943  0.00  0.00     0.230 C 
ATOM      7  O   UNK d   1      18.528  31.317  73.713  0.00  0.00    -0.286 OA
ATOM      8  C   UNK d   1      20.822  34.446  70.785  0.00  0.00    -0.031 A 
ATOM      9  C   UNK d   1      21.056  34.403  69.447  0.00  0.00     0.049 A 
ATOM     10  C   UNK d   1      21.203  35.565  68.705  0.00  0.00     0.105 A 
ATOM     11  C   UNK d   1      21.109  36.806  69.353  0.00  0.00     0.140 A 
ATOM     12  C   UNK d   1      20.874  36.847  70.698  0.00  0.00     0.043 A 
ATOM     13  C   UNK d   1      20.729  35.707  71.424  0.00  0.00     0.012 A 
ATOM     14  O   UNK d   1      21.248  37.993  68.662  0.00  0.00    -0.189 OA
ENDROOT
BRANCH   1  15
ATOM     15  C   UNK d   1      18.241  32.868  71.062  0.00  0.00     0.173 C 
ATOM     16  O   UNK d   1      18.331  31.845  70.298  0.00  0.00    -0.291 OA
BRANCH  15  17
ATOM     17  C   UNK d   1      17.118  33.747  70.769  0.00  0.00     0.011 A 
ATOM     18  C   UNK d   1      15.863  33.257  70.487  0.00  0.00     0.016 A 
ATOM     19  C   UNK d   1      14.852  34.165  70.187  0.00  0.00     0.020 A 
ATOM     20  C   UNK d   1      15.036  35.523  70.158  0.00  0.00     0.011 A 
ATOM     21 Br   UNK d   1      13.587  36.721  69.735  0.00  0.00    -0.051 Br
ATOM     22  C   UNK d   1      16.292  36.019  70.440  0.00  0.00     0.020 A 
ATOM     23  C   UNK d   1      17.292  35.122  70.736  0.00  0.00     0.016 A 
ENDBRANCH  15  17
ENDBRANCH   1  15
BRANCH   3  24
ATOM     24  C   UNK d   1      22.216  31.354  70.734  0.00  0.00     0.154 C 
BRANCH  24  25
ATOM     25  C   UNK d   1      23.634  31.486  71.142  0.00  0.00     0.255 C 
BRANCH  25  26
ATOM     26  N   UNK d   1      24.308  32.714  71.133  0.00  0.00    -0.066 N 
ATOM     27  C   UNK d   1      25.701  32.607  71.587  0.00  0.00     0.261 C 
ATOM     28  C   UNK d   1      26.536  31.756  70.690  0.00  0.00     0.195 C 
ATOM     29  O   UNK d   1      25.826  31.438  69.555  0.00  0.00    -0.388 OA
ATOM     30  C   UNK d   1      25.402  32.641  68.965  0.00  0.00     0.195 C 
ATOM     31  C   UNK d   1      24.292  33.280  69.773  0.00  0.00     0.261 C 
ATOM     32  H   UNK d   1      23.866  33.411  71.728  0.00  0.00     0.280 HD
ENDBRANCH  25  26
ENDBRANCH  24  25
ENDBRANCH   3  24
BRANCH  10  33
ATOM     33  O   UNK d   1      21.434  35.555  67.367  0.00  0.00    -0.349 OA
BRANCH  33  34
ATOM     34  C   UNK d   1      22.688  35.383  66.790  0.00  0.00     0.171 C 
ATOM     35  C   UNK d   1      23.115  36.538  65.901  0.00  0.00     0.034 C 
ENDBRANCH  33  34
ENDBRANCH  10  33
TORSDOF 7
ENDMDL
