MODEL 1
REMARK VINA RESULT:    -8.394      0.000      0.000
REMARK INTER + INTRA:         -11.651
REMARK INTER:                 -10.847
REMARK INTRA:                  -0.804
REMARK UNBOUND:                -0.804
REMARK  5 active torsions:
REMARK  status: ('A' for Active; 'I' for Inactive)
REMARK    1  A    between atoms: N_7  and  C_11 
REMARK    2  A    between atoms: C_11  and  C_12 
REMARK    3  A    between atoms: C_12  and  N_13 
REMARK    4  A    between atoms: C_21  and  C_23 
REMARK    5  A    between atoms: C_23  and  O_25 
ROOT
ATOM      1  N   UNK d   1      18.026  37.377  69.087  0.00  0.00    -0.363 N 
ATOM      2  C   UNK d   1      18.474  36.634  70.124  0.00  0.00     0.110 A 
ATOM      3  C   UNK d   1      19.762  36.147  70.173  0.00  0.00     0.080 A 
ATOM      4  C   UNK d   1      20.682  36.434  69.080  0.00  0.00     0.111 A 
ATOM      5  N   UNK d   1      21.841  35.841  69.398  0.00  0.00    -0.170 NA
ATOM      6  N   UNK d   1      21.734  35.214  70.580  0.00  0.00    -0.242 N 
ATOM      7  C   UNK d   1      20.493  35.387  71.061  0.00  0.00     0.275 A 
ATOM      8  O   UNK d   1      20.090  34.918  72.149  0.00  0.00    -0.266 OA
ATOM      9  C   UNK d   1      20.189  37.197  68.034  0.00  0.00     0.086 A 
ATOM     10  C   UNK d   1      18.892  37.627  68.095  0.00  0.00     0.110 A 
ATOM     11  H   UNK d   1      22.535  34.686  71.011  0.00  0.00     0.192 HD
ENDROOT
BRANCH   1  12
ATOM     12  C   UNK d   1      16.656  37.878  69.067  0.00  0.00     0.148 C 
BRANCH  12  13
ATOM     13  C   UNK d   1      15.999  37.489  70.374  0.00  0.00     0.150 C 
BRANCH  13  14
ATOM     14  N   UNK d   1      14.903  36.566  70.171  0.00  0.00    -0.338 N 
ATOM     15  C   UNK d   1      13.716  36.865  69.602  0.00  0.00     0.210 A 
ATOM     16  N   UNK d   1      12.931  35.774  69.572  0.00  0.00    -0.242 NA
ATOM     17  C   UNK d   1      13.603  34.730  70.128  0.00  0.00     0.086 A 
ATOM     18  C   UNK d   1      13.278  33.406  70.349  0.00  0.00     0.057 A 
ATOM     19  C   UNK d   1      14.825  35.262  70.488  0.00  0.00     0.064 A 
ATOM     20  C   UNK d   1      14.196  32.571  70.950  0.00  0.00     0.036 A 
ATOM     21 Cl   UNK d   1      13.850  30.871  71.263  0.00  0.00    -0.084 Cl
ATOM     22  C   UNK d   1      15.415  33.115  71.306  0.00  0.00     0.026 A 
ATOM     23  C   UNK d   1      15.747  34.437  71.089  0.00  0.00     0.034 A 
ENDBRANCH  13  14
ENDBRANCH  12  13
ENDBRANCH   1  12
BRANCH   9  24
ATOM     24  C   UNK d   1      21.080  37.506  66.922  0.00  0.00     0.296 C 
ATOM     25  O   UNK d   1      21.486  38.686  66.774  0.00  0.00    -0.259 OA
BRANCH  24  26
ATOM     26  O   UNK d   1      21.485  36.544  66.035  0.00  0.00    -0.322 OA
ATOM     27  C   UNK d   1      22.854  36.204  65.880  0.00  0.00     0.213 C 
ENDBRANCH  24  26
ENDBRANCH   9  24
TORSDOF 5
ENDMDL
