MODEL 1
REMARK VINA RESULT:    -9.006      0.000      0.000
REMARK INTER + INTRA:         -12.603
REMARK INTER:                 -11.375
REMARK INTRA:                  -1.228
REMARK UNBOUND:                -1.228
REMARK  5 active torsions:
REMARK  status: ('A' for Active; 'I' for Inactive)
REMARK    1  A    between atoms: C_6  and  C_11 
REMARK    2  A    between atoms: C_11  and  C_12 
REMARK    3  A    between atoms: C_12  and  C_13 
REMARK       I    between atoms: C_13  and  N_15 
REMARK    4  A    between atoms: C_17  and  N_21 
REMARK    5  A    between atoms: C_18  and  O_20 
ROOT
ATOM      1  C   UNK d   1      18.464  37.553  68.659  0.00  0.00     0.220 C 
ATOM      2  O   UNK d   1      17.833  37.861  67.619  0.00  0.00    -0.273 OA
ATOM      3  N   UNK d   1      19.824  37.196  68.539  0.00  0.00    -0.348 N 
ATOM      4  C   UNK d   1      20.787  36.792  69.542  0.00  0.00     0.154 C 
ATOM      5  C   UNK d   1      21.540  35.726  68.881  0.00  0.00     0.142 C 
ATOM      6  C   UNK d   1      21.162  35.757  67.398  0.00  0.00     0.161 C 
ATOM      7  C   UNK d   1      20.558  37.174  67.301  0.00  0.00     0.159 C 
ENDROOT
BRANCH   1   8
ATOM      8  C   UNK d   1      17.744  37.580  69.949  0.00  0.00     0.110 C 
BRANCH   8   9
ATOM      9  C   UNK d   1      16.263  37.616  69.722  0.00  0.00     0.087 C 
BRANCH   9  10
ATOM     10  C   UNK d   1      15.617  36.372  70.180  0.00  0.00     0.105 A 
ATOM     11  N   UNK d   1      16.227  35.160  70.298  0.00  0.00    -0.343 N 
ATOM     12  C   UNK d   1      15.368  34.223  70.730  0.00  0.00     0.064 A 
ATOM     13  H   UNK d   1      17.231  34.931  70.094  0.00  0.00     0.167 HD
ATOM     14  C   UNK d   1      15.463  32.871  71.013  0.00  0.00     0.055 A 
ATOM     15  C   UNK d   1      14.161  34.857  70.895  0.00  0.00     0.085 A 
ATOM     16  C   UNK d   1      14.357  32.160  71.458  0.00  0.00     0.036 A 
ATOM     17 Cl   UNK d   1      14.497  30.453  71.806  0.00  0.00    -0.084 Cl
ATOM     18  C   UNK d   1      13.143  32.791  71.625  0.00  0.00     0.026 A 
ATOM     19  C   UNK d   1      13.066  34.146  71.337  0.00  0.00     0.036 A 
ATOM     20  N   UNK d   1      14.332  36.143  70.560  0.00  0.00    -0.233 NA
ENDBRANCH   9  10
ENDBRANCH   8   9
ENDBRANCH   1   8
BRANCH   5  21
ATOM     21  N   UNK d   1      21.554  34.407  69.383  0.00  0.00    -0.300 N 
ATOM     22  C   UNK d   1      20.432  33.964  70.012  0.00  0.00     0.108 A 
ATOM     23  C   UNK d   1      20.345  32.693  70.533  0.00  0.00     0.022 A 
ATOM     24  C   UNK d   1      21.408  31.826  70.428  0.00  0.00     0.256 A 
ATOM     25  C   UNK d   1      19.101  32.218  71.223  0.00  0.00     0.056 C 
ATOM     26  O   UNK d   1      21.355  30.651  70.899  0.00  0.00    -0.267 OA
ATOM     27  N   UNK d   1      22.514  32.264  69.807  0.00  0.00    -0.275 N 
ATOM     28  C   UNK d   1      22.540  33.507  69.322  0.00  0.00     0.329 A 
ATOM     29  H   UNK d   1      23.354  31.613  69.714  0.00  0.00     0.173 HD
ATOM     30  O   UNK d   1      23.593  33.860  68.753  0.00  0.00    -0.246 OA
ENDBRANCH   5  21
BRANCH   6  31
ATOM     31  O   UNK d   1      22.243  35.626  66.563  0.00  0.00    -0.392 OA
ATOM     32  H   UNK d   1      22.525  36.532  66.280  0.00  0.00     0.210 HD
ENDBRANCH   6  31
TORSDOF 5
ENDMDL
