/Users/jonathanwahrer/Desktop/Msc/3_Semester/Drug_Design_Praktikum/waehrer_HTS_screening/HTS_experiment/out/docking_results/vina_output/4x21/1689_docked.pdbqt
 OpenBabel03212202353D

 32 35  0  0  1  0  0  0  0  0999 V2000
   18.4640   37.5530   68.6590 C   0  0  0  0  0  0  0  0  0  0  0  0
   17.8330   37.8610   67.6190 O   0  0  0  0  0  0  0  0  0  0  0  0
   19.8240   37.1960   68.5390 N   0  0  0  0  0  0  0  0  0  0  0  0
   20.7870   36.7920   69.5420 C   0  0  0  0  0  2  0  0  0  0  0  0
   21.5400   35.7260   68.8810 C   0  0  2  0  0  3  0  0  0  0  0  0
   21.1620   35.7570   67.3980 C   0  0  1  0  0  3  0  0  0  0  0  0
   20.5580   37.1740   67.3010 C   0  0  0  0  0  2  0  0  0  0  0  0
   17.7440   37.5800   69.9490 C   0  0  0  0  0  2  0  0  0  0  0  0
   16.2630   37.6160   69.7220 C   0  0  0  0  0  2  0  0  0  0  0  0
   15.6170   36.3720   70.1800 C   0  0  0  0  0  0  0  0  0  0  0  0
   16.2270   35.1600   70.2980 N   0  0  0  0  0  0  0  0  0  0  0  0
   15.3680   34.2230   70.7300 C   0  0  0  0  0  0  0  0  0  0  0  0
   17.2310   34.9310   70.0940 H   0  0  0  0  0  0  0  0  0  0  0  0
   15.4630   32.8710   71.0130 C   0  0  0  0  0  3  0  0  0  0  0  0
   14.1610   34.8570   70.8950 C   0  0  0  0  0  0  0  0  0  0  0  0
   14.3570   32.1600   71.4580 C   0  0  0  0  0  0  0  0  0  0  0  0
   14.4970   30.4530   71.8060 Cl  0  0  0  0  0  0  0  0  0  0  0  0
   13.1430   32.7910   71.6250 C   0  0  0  0  0  3  0  0  0  0  0  0
   13.0660   34.1460   71.3370 C   0  0  0  0  0  3  0  0  0  0  0  0
   14.3320   36.1430   70.5600 N   0  0  0  0  0  0  0  0  0  0  0  0
   21.5540   34.4070   69.3830 N   0  0  0  0  0  0  0  0  0  0  0  0
   20.4320   33.9640   70.0120 C   0  0  0  0  0  3  0  0  0  0  0  0
   20.3450   32.6930   70.5330 C   0  0  0  0  0  0  0  0  0  0  0  0
   21.4080   31.8260   70.4280 C   0  0  0  0  0  0  0  0  0  0  0  0
   19.1010   32.2180   71.2230 C   0  0  0  0  0  1  0  0  0  0  0  0
   21.3550   30.6510   70.8990 O   0  0  0  0  0  0  0  0  0  0  0  0
   22.5140   32.2640   69.8070 N   0  0  0  0  0  0  0  0  0  0  0  0
   22.5400   33.5070   69.3220 C   0  0  0  0  0  0  0  0  0  0  0  0
   23.3540   31.6130   69.7140 H   0  0  0  0  0  0  0  0  0  0  0  0
   23.5930   33.8600   68.7530 O   0  0  0  0  0  0  0  0  0  0  0  0
   22.2430   35.6260   66.5630 O   0  0  0  0  0  0  0  0  0  0  0  0
   22.5250   36.5320   66.2800 H   0  0  0  0  0  0  0  0  0  0  0  0
  1  8  1  0  0  0  0
  2  1  2  0  0  0  0
  3  1  1  0  0  0  0
  3  4  1  0  0  0  0
  5 21  1  1  0  0  0
  5  4  1  0  0  0  0
  6 31  1  6  0  0  0
  6  5  1  0  0  0  0
  7  6  1  0  0  0  0
  7  3  1  0  0  0  0
  9  8  1  0  0  0  0
  9 10  1  0  0  0  0
 10 11  1  0  0  0  0
 10 20  2  0  0  0  0
 11 12  1  0  0  0  0
 12 15  2  0  0  0  0
 12 14  1  0  0  0  0
 13 11  1  0  0  0  0
 14 16  2  0  0  0  0
 15 19  1  0  0  0  0
 16 18  1  0  0  0  0
 16 17  1  0  0  0  0
 19 18  2  0  0  0  0
 20 15  1  0  0  0  0
 21 22  1  0  0  0  0
 22 23  2  0  0  0  0
 23 25  1  0  0  0  0
 24 23  1  0  0  0  0
 24 26  2  0  0  0  0
 27 24  1  0  0  0  0
 28 21  1  0  0  0  0
 28 27  1  0  0  0  0
 29 27  1  0  0  0  0
 30 28  2  0  0  0  0
 32 31  1  0  0  0  0
M  END
>  <Pose>
1

>  <Score>
-9.006

$$$$
