MODEL 1
REMARK VINA RESULT:    -9.228      0.000      0.000
REMARK INTER + INTRA:         -12.240
REMARK INTER:                 -11.656
REMARK INTRA:                  -0.584
REMARK UNBOUND:                -0.584
REMARK  5 active torsions:
REMARK  status: ('A' for Active; 'I' for Inactive)
REMARK    1  A    between atoms: C_6  and  C_11 
REMARK    2  A    between atoms: C_11  and  C_12 
REMARK    3  A    between atoms: C_12  and  C_13 
REMARK       I    between atoms: C_13  and  N_15 
REMARK    4  A    between atoms: C_17  and  O_30 
REMARK    5  A    between atoms: C_18  and  N_21 
ROOT
ATOM      1  C   UNK d   1      21.176  35.499  70.675  0.00  0.00     0.220 C 
ATOM      2  O   UNK d   1      21.409  36.506  71.391  0.00  0.00    -0.273 OA
ATOM      3  N   UNK d   1      20.471  34.375  71.201  0.00  0.00    -0.349 N 
ATOM      4  C   UNK d   1      20.167  33.184  70.438  0.00  0.00     0.165 C 
ATOM      5  C   UNK d   1      18.782  32.640  70.825  0.00  0.00     0.091 C 
ATOM      6  C   UNK d   1      17.995  33.805  71.320  0.00  0.00     0.131 C 
ATOM      7  C   UNK d   1      18.524  34.224  72.673  0.00  0.00     0.049 C 
ATOM      8  C   UNK d   1      20.024  34.412  72.577  0.00  0.00     0.128 C 
ATOM      9  C   UNK d   1      19.007  31.547  71.822  0.00  0.00     0.050 C 
ENDROOT
BRANCH   1  10
ATOM     10  C   UNK d   1      21.627  35.451  69.274  0.00  0.00     0.110 C 
BRANCH  10  11
ATOM     11  C   UNK d   1      20.656  36.202  68.409  0.00  0.00     0.087 C 
BRANCH  11  12
ATOM     12  C   UNK d   1      21.411  37.125  67.529  0.00  0.00     0.105 A 
ATOM     13  N   UNK d   1      22.606  36.837  66.945  0.00  0.00    -0.343 N 
ATOM     14  C   UNK d   1      23.039  37.876  66.221  0.00  0.00     0.064 A 
ATOM     15  H   UNK d   1      23.096  35.909  67.068  0.00  0.00     0.167 HD
ATOM     16  C   UNK d   1      24.160  38.092  65.455  0.00  0.00     0.055 A 
ATOM     17  C   UNK d   1      22.087  38.858  66.349  0.00  0.00     0.085 A 
ATOM     18  C   UNK d   1      24.375  39.288  64.792  0.00  0.00     0.036 A 
ATOM     19 Cl   UNK d   1      25.796  39.575  63.814  0.00  0.00    -0.084 Cl
ATOM     20  C   UNK d   1      23.412  40.273  64.925  0.00  0.00     0.026 A 
ATOM     21  C   UNK d   1      22.278  40.056  65.698  0.00  0.00     0.036 A 
ATOM     22  N   UNK d   1      21.133  38.361  67.141  0.00  0.00    -0.233 NA
ENDBRANCH  11  12
ENDBRANCH  10  11
ENDBRANCH   1  10
BRANCH   5  23
ATOM     23  O   UNK d   1      18.256  32.103  69.641  0.00  0.00    -0.386 OA
ATOM     24  H   UNK d   1      18.826  31.319  69.357  0.00  0.00     0.210 HD
ENDBRANCH   5  23
BRANCH   6  25
ATOM     25  N   UNK d   1      16.582  33.667  71.283  0.00  0.00    -0.301 N 
ATOM     26  C   UNK d   1      15.914  32.681  71.900  0.00  0.00     0.108 A 
ATOM     27  C   UNK d   1      14.529  32.579  71.841  0.00  0.00     0.022 A 
ATOM     28  C   UNK d   1      13.819  33.517  71.129  0.00  0.00     0.256 A 
ATOM     29  C   UNK d   1      13.836  31.451  72.554  0.00  0.00     0.056 C 
ATOM     30  O   UNK d   1      12.553  33.428  71.073  0.00  0.00    -0.267 OA
ATOM     31  N   UNK d   1      14.490  34.501  70.513  0.00  0.00    -0.275 N 
ATOM     32  C   UNK d   1      15.830  34.557  70.601  0.00  0.00     0.329 A 
ATOM     33  H   UNK d   1      13.964  35.218  69.971  0.00  0.00     0.173 HD
ATOM     34  O   UNK d   1      16.467  35.499  70.011  0.00  0.00    -0.246 OA
ENDBRANCH   6  25
TORSDOF 5
ENDMDL
