/Users/jonathanwahrer/Desktop/Msc/3_Semester/Drug_Design_Praktikum/waehrer_HTS_screening/HTS_experiment/out/docking_results/vina_output/4x21/1690_docked.pdbqt
 OpenBabel03212202363D

 34 37  0  0  1  0  0  0  0  0999 V2000
   21.1760   35.4990   70.6750 C   0  0  0  0  0  0  0  0  0  0  0  0
   21.4090   36.5060   71.3910 O   0  0  0  0  0  0  0  0  0  0  0  0
   20.4710   34.3750   71.2010 N   0  0  0  0  0  0  0  0  0  0  0  0
   20.1670   33.1840   70.4380 C   0  0  0  0  0  2  0  0  0  0  0  0
   18.7820   32.6400   70.8250 C   0  0  2  0  0  0  0  0  0  0  0  0
   17.9950   33.8050   71.3200 C   0  0  2  0  0  3  0  0  0  0  0  0
   18.5240   34.2240   72.6730 C   0  0  0  0  0  2  0  0  0  0  0  0
   20.0240   34.4120   72.5770 C   0  0  0  0  0  2  0  0  0  0  0  0
   19.0070   31.5470   71.8220 C   0  0  0  0  0  1  0  0  0  0  0  0
   21.6270   35.4510   69.2740 C   0  0  0  0  0  2  0  0  0  0  0  0
   20.6560   36.2020   68.4090 C   0  0  0  0  0  2  0  0  0  0  0  0
   21.4110   37.1250   67.5290 C   0  0  0  0  0  0  0  0  0  0  0  0
   22.6060   36.8370   66.9450 N   0  0  0  0  0  0  0  0  0  0  0  0
   23.0390   37.8760   66.2210 C   0  0  0  0  0  0  0  0  0  0  0  0
   23.0960   35.9090   67.0680 H   0  0  0  0  0  0  0  0  0  0  0  0
   24.1600   38.0920   65.4550 C   0  0  0  0  0  3  0  0  0  0  0  0
   22.0870   38.8580   66.3490 C   0  0  0  0  0  0  0  0  0  0  0  0
   24.3750   39.2880   64.7920 C   0  0  0  0  0  0  0  0  0  0  0  0
   25.7960   39.5750   63.8140 Cl  0  0  0  0  0  0  0  0  0  0  0  0
   23.4120   40.2730   64.9250 C   0  0  0  0  0  3  0  0  0  0  0  0
   22.2780   40.0560   65.6980 C   0  0  0  0  0  3  0  0  0  0  0  0
   21.1330   38.3610   67.1410 N   0  0  0  0  0  0  0  0  0  0  0  0
   18.2560   32.1030   69.6410 O   0  0  0  0  0  0  0  0  0  0  0  0
   18.8260   31.3190   69.3570 H   0  0  0  0  0  0  0  0  0  0  0  0
   16.5820   33.6670   71.2830 N   0  0  0  0  0  0  0  0  0  0  0  0
   15.9140   32.6810   71.9000 C   0  0  0  0  0  3  0  0  0  0  0  0
   14.5290   32.5790   71.8410 C   0  0  0  0  0  0  0  0  0  0  0  0
   13.8190   33.5170   71.1290 C   0  0  0  0  0  0  0  0  0  0  0  0
   13.8360   31.4510   72.5540 C   0  0  0  0  0  1  0  0  0  0  0  0
   12.5530   33.4280   71.0730 O   0  0  0  0  0  0  0  0  0  0  0  0
   14.4900   34.5010   70.5130 N   0  0  0  0  0  0  0  0  0  0  0  0
   15.8300   34.5570   70.6010 C   0  0  0  0  0  0  0  0  0  0  0  0
   13.9640   35.2180   69.9710 H   0  0  0  0  0  0  0  0  0  0  0  0
   16.4670   35.4990   70.0110 O   0  0  0  0  0  0  0  0  0  0  0  0
  1  3  1  0  0  0  0
  1  2  2  0  0  0  0
  3  8  1  0  0  0  0
  4  5  1  0  0  0  0
  4  3  1  0  0  0  0
  5  6  1  0  0  0  0
  5  9  1  1  0  0  0
  6 25  1  1  0  0  0
  6  7  1  0  0  0  0
  8  7  1  0  0  0  0
 10  1  1  0  0  0  0
 11 10  1  0  0  0  0
 12 11  1  0  0  0  0
 13 15  1  0  0  0  0
 13 12  1  0  0  0  0
 14 17  1  0  0  0  0
 14 13  1  0  0  0  0
 16 14  2  0  0  0  0
 17 22  1  0  0  0  0
 18 20  2  0  0  0  0
 18 16  1  0  0  0  0
 19 18  1  0  0  0  0
 20 21  1  0  0  0  0
 21 17  2  0  0  0  0
 22 12  2  0  0  0  0
 23  5  1  0  0  0  0
 24 23  1  0  0  0  0
 25 26  1  0  0  0  0
 27 26  2  0  0  0  0
 27 29  1  0  0  0  0
 28 27  1  0  0  0  0
 30 28  2  0  0  0  0
 31 32  1  0  0  0  0
 31 28  1  0  0  0  0
 32 25  1  0  0  0  0
 33 31  1  0  0  0  0
 34 32  2  0  0  0  0
M  END
>  <Pose>
1

>  <Score>
-9.228

$$$$
