MODEL 1
REMARK VINA RESULT:    -9.658      0.000      0.000
REMARK INTER + INTRA:         -12.616
REMARK INTER:                 -12.199
REMARK INTRA:                  -0.418
REMARK UNBOUND:                -0.418
REMARK  5 active torsions:
REMARK  status: ('A' for Active; 'I' for Inactive)
REMARK    1  A    between atoms: C_6  and  C_11 
REMARK    2  A    between atoms: C_11  and  C_12 
REMARK    3  A    between atoms: C_12  and  C_13 
REMARK       I    between atoms: C_13  and  N_15 
REMARK    4  A    between atoms: C_17  and  N_21 
REMARK    5  A    between atoms: C_18  and  O_20 
ROOT
ATOM      1  C   UNK d   1      21.375  36.951  70.476  0.00  0.00     0.220 C 
ATOM      2  O   UNK d   1      21.922  37.919  71.037  0.00  0.00    -0.273 OA
ATOM      3  N   UNK d   1      22.080  36.197  69.524  0.00  0.00    -0.348 N 
ATOM      4  C   UNK d   1      23.406  36.318  69.008  0.00  0.00     0.154 C 
ATOM      5  C   UNK d   1      23.258  36.043  67.492  0.00  0.00     0.140 C 
ATOM      6  C   UNK d   1      22.173  35.025  67.527  0.00  0.00     0.161 C 
ATOM      7  C   UNK d   1      21.512  35.037  68.863  0.00  0.00     0.159 C 
ENDROOT
BRANCH   1   8
ATOM      8  C   UNK d   1      19.986  36.607  70.819  0.00  0.00     0.110 C 
BRANCH   8   9
ATOM      9  C   UNK d   1      19.024  37.269  69.859  0.00  0.00     0.087 C 
BRANCH   9  10
ATOM     10  C   UNK d   1      17.656  36.687  70.061  0.00  0.00     0.105 A 
ATOM     11  N   UNK d   1      17.403  35.544  70.723  0.00  0.00    -0.343 N 
ATOM     12  C   UNK d   1      16.086  35.282  70.741  0.00  0.00     0.064 A 
ATOM     13  H   UNK d   1      18.117  34.916  71.179  0.00  0.00     0.167 HD
ATOM     14  C   UNK d   1      15.322  34.247  71.282  0.00  0.00     0.055 A 
ATOM     15  C   UNK d   1      15.485  36.315  70.054  0.00  0.00     0.085 A 
ATOM     16  C   UNK d   1      13.955  34.252  71.132  0.00  0.00     0.036 A 
ATOM     17 Cl   UNK d   1      12.948  32.971  71.796  0.00  0.00    -0.084 Cl
ATOM     18  C   UNK d   1      13.363  35.279  70.451  0.00  0.00     0.026 A 
ATOM     19  C   UNK d   1      14.115  36.319  69.904  0.00  0.00     0.036 A 
ATOM     20  N   UNK d   1      16.471  37.146  69.659  0.00  0.00    -0.233 NA
ENDBRANCH   9  10
ENDBRANCH   8   9
ENDBRANCH   1   8
BRANCH   5  21
ATOM     21  N   UNK d   1      22.902  37.269  66.836  0.00  0.00    -0.316 N 
ATOM     22  C   UNK d   1      23.626  37.977  65.953  0.00  0.00     0.149 A 
ATOM     23  C   UNK d   1      22.883  39.112  65.569  0.00  0.00     0.170 A 
ATOM     24  N   UNK d   1      24.850  37.780  65.424  0.00  0.00    -0.287 N 
ATOM     25  N   UNK d   1      21.726  39.043  66.247  0.00  0.00    -0.234 NA
ATOM     26  C   UNK d   1      23.385  40.022  64.666  0.00  0.00     0.283 A 
ATOM     27  C   UNK d   1      21.720  37.951  67.007  0.00  0.00     0.212 A 
ATOM     28  O   UNK d   1      22.697  41.027  64.342  0.00  0.00    -0.265 OA
ATOM     29  N   UNK d   1      24.603  39.791  64.163  0.00  0.00    -0.269 N 
ATOM     30  C   UNK d   1      25.299  38.714  64.531  0.00  0.00     0.332 A 
ATOM     31  C   UNK d   1      25.163  40.740  63.199  0.00  0.00     0.164 C 
ATOM     32  O   UNK d   1      26.444  38.512  64.049  0.00  0.00    -0.246 OA
ATOM     33  C   UNK d   1      25.651  36.650  65.774  0.00  0.00     0.163 C 
ENDBRANCH   5  21
BRANCH   6  34
ATOM     34  O   UNK d   1      22.629  33.725  67.311  0.00  0.00    -0.392 OA
ATOM     35  H   UNK d   1      23.472  33.715  66.776  0.00  0.00     0.210 HD
ENDBRANCH   6  34
TORSDOF 5
ENDMDL
