/Users/jonathanwahrer/Desktop/Msc/3_Semester/Drug_Design_Praktikum/waehrer_HTS_screening/HTS_experiment/out/docking_results/vina_output/4x21/1691_docked.pdbqt
 OpenBabel03212202363D

 35 39  0  0  1  0  0  0  0  0999 V2000
   21.3750   36.9510   70.4760 C   0  0  0  0  0  0  0  0  0  0  0  0
   21.9220   37.9190   71.0370 O   0  0  0  0  0  0  0  0  0  0  0  0
   22.0800   36.1970   69.5240 N   0  0  0  0  0  0  0  0  0  0  0  0
   23.4060   36.3180   69.0080 C   0  0  0  0  0  2  0  0  0  0  0  0
   23.2580   36.0430   67.4920 C   0  0  1  0  0  3  0  0  0  0  0  0
   22.1730   35.0250   67.5270 C   0  0  2  0  0  3  0  0  0  0  0  0
   21.5120   35.0370   68.8630 C   0  0  0  0  0  2  0  0  0  0  0  0
   19.9860   36.6070   70.8190 C   0  0  0  0  0  2  0  0  0  0  0  0
   19.0240   37.2690   69.8590 C   0  0  0  0  0  2  0  0  0  0  0  0
   17.6560   36.6870   70.0610 C   0  0  0  0  0  0  0  0  0  0  0  0
   17.4030   35.5440   70.7230 N   0  0  0  0  0  0  0  0  0  0  0  0
   16.0860   35.2820   70.7410 C   0  0  0  0  0  0  0  0  0  0  0  0
   18.1170   34.9160   71.1790 H   0  0  0  0  0  0  0  0  0  0  0  0
   15.3220   34.2470   71.2820 C   0  0  0  0  0  3  0  0  0  0  0  0
   15.4850   36.3150   70.0540 C   0  0  0  0  0  0  0  0  0  0  0  0
   13.9550   34.2520   71.1320 C   0  0  0  0  0  0  0  0  0  0  0  0
   12.9480   32.9710   71.7960 Cl  0  0  0  0  0  0  0  0  0  0  0  0
   13.3630   35.2790   70.4510 C   0  0  0  0  0  3  0  0  0  0  0  0
   14.1150   36.3190   69.9040 C   0  0  0  0  0  3  0  0  0  0  0  0
   16.4710   37.1460   69.6590 N   0  0  0  0  0  0  0  0  0  0  0  0
   22.9020   37.2690   66.8360 N   0  0  0  0  0  0  0  0  0  0  0  0
   23.6260   37.9770   65.9530 C   0  0  0  0  0  0  0  0  0  0  0  0
   22.8830   39.1120   65.5690 C   0  0  0  0  0  0  0  0  0  0  0  0
   24.8500   37.7800   65.4240 N   0  0  0  0  0  0  0  0  0  0  0  0
   21.7260   39.0430   66.2470 N   0  0  0  0  0  0  0  0  0  0  0  0
   23.3850   40.0220   64.6660 C   0  0  0  0  0  0  0  0  0  0  0  0
   21.7200   37.9510   67.0070 C   0  0  0  0  0  3  0  0  0  0  0  0
   22.6970   41.0270   64.3420 O   0  0  0  0  0  0  0  0  0  0  0  0
   24.6030   39.7910   64.1630 N   0  0  0  0  0  0  0  0  0  0  0  0
   25.2990   38.7140   64.5310 C   0  0  0  0  0  0  0  0  0  0  0  0
   25.1630   40.7400   63.1990 C   0  0  0  0  0  1  0  0  0  0  0  0
   26.4440   38.5120   64.0490 O   0  0  0  0  0  0  0  0  0  0  0  0
   25.6510   36.6500   65.7740 C   0  0  0  0  0  1  0  0  0  0  0  0
   22.6290   33.7250   67.3110 O   0  0  0  0  0  0  0  0  0  0  0  0
   23.4720   33.7150   66.7760 H   0  0  0  0  0  0  0  0  0  0  0  0
  1  8  1  0  0  0  0
  1  2  2  0  0  0  0
  3  1  1  0  0  0  0
  4  3  1  0  0  0  0
  5 21  1  6  0  0  0
  5  6  1  0  0  0  0
  5  4  1  0  0  0  0
  6 34  1  1  0  0  0
  6  7  1  0  0  0  0
  7  3  1  0  0  0  0
  9 10  1  0  0  0  0
  9  8  1  0  0  0  0
 10 11  1  0  0  0  0
 11 12  1  0  0  0  0
 11 13  1  0  0  0  0
 12 14  1  0  0  0  0
 15 12  2  0  0  0  0
 16 14  2  0  0  0  0
 16 17  1  0  0  0  0
 18 16  1  0  0  0  0
 19 15  1  0  0  0  0
 19 18  2  0  0  0  0
 20 15  1  0  0  0  0
 20 10  2  0  0  0  0
 21 27  1  0  0  0  0
 22 21  1  0  0  0  0
 23 22  2  0  0  0  0
 23 25  1  0  0  0  0
 24 33  1  0  0  0  0
 24 22  1  0  0  0  0
 25 27  2  0  0  0  0
 26 23  1  0  0  0  0
 28 26  2  0  0  0  0
 29 30  1  0  0  0  0
 29 26  1  0  0  0  0
 30 24  1  0  0  0  0
 31 29  1  0  0  0  0
 32 30  2  0  0  0  0
 35 34  1  0  0  0  0
M  END
>  <Pose>
1

>  <Score>
-9.658

$$$$
