/Users/jonathanwahrer/Desktop/Msc/3_Semester/Drug_Design_Praktikum/waehrer_HTS_screening/HTS_experiment/out/docking_results/vina_output/4x21/1699_docked.pdbqt
 OpenBabel03212202363D

 31 34  0  0  1  0  0  0  0  0999 V2000
   13.5660   34.0190   69.0580 Cl  0  0  0  0  0  0  0  0  0  0  0  0
   14.7460   33.9600   70.3260 C   0  0  0  0  0  0  0  0  0  0  0  0
   16.0790   34.2510   70.0730 C   0  0  0  0  0  3  0  0  0  0  0  0
   17.0300   34.2080   71.0720 C   0  0  0  0  0  0  0  0  0  0  0  0
   16.6230   33.8690   72.3320 C   0  0  0  0  0  0  0  0  0  0  0  0
   15.2890   33.5700   72.6280 C   0  0  0  0  0  3  0  0  0  0  0  0
   14.3660   33.6220   71.6070 C   0  0  0  0  0  3  0  0  0  0  0  0
   17.7390   33.8600   73.2120 N   0  0  0  0  0  0  0  0  0  0  0  0
   18.8940   34.2060   72.4630 C   0  0  0  0  0  0  0  0  0  0  0  0
   20.0470   34.2410   73.0020 O   0  0  0  0  0  0  0  0  0  0  0  0
   18.4660   34.4780   71.0960 C   0  0  2  0  0  0  0  0  0  0  0  0
   18.7700   35.8510   70.6870 N   0  0  0  0  0  0  0  0  0  0  0  0
   20.1940   35.7640   70.4530 C   0  0  1  0  0  3  0  0  0  0  0  0
   20.4310   34.4440   69.7940 C   0  0  2  0  0  3  0  0  0  0  0  0
   19.1510   33.7000   70.0280 C   0  0  1  0  0  3  0  0  0  0  0  0
   19.4960   32.3060   70.3990 C   0  0  0  0  0  0  0  0  0  0  0  0
   18.6080   31.4240   70.5300 O   0  0  0  0  0  0  0  0  0  0  0  0
   20.9050   32.2370   70.5480 N   0  0  0  0  0  0  0  0  0  0  0  0
   21.4000   33.5810   70.5450 C   0  0  0  0  0  0  0  0  0  0  0  0
   22.4400   34.0090   71.0560 O   0  0  0  0  0  0  0  0  0  0  0  0
   17.7200   33.6360   74.2510 H   0  0  0  0  0  0  0  0  0  0  0  0
   18.3040   35.9720   69.7590 H   0  0  0  0  0  0  0  0  0  0  0  0
   20.7190   36.9270   69.6510 C   0  0  2  0  0  3  0  0  0  0  0  0
   20.1690   36.9600   68.2480 C   0  0  0  0  0  1  0  0  0  0  0  0
   22.1040   36.8290   69.6200 O   0  0  0  0  0  0  0  0  0  0  0  0
   22.4620   36.7590   68.6980 H   0  0  0  0  0  0  0  0  0  0  0  0
   21.6860   31.0650   70.6710 C   0  0  0  0  0  2  0  0  0  0  0  0
   22.2200   30.6880   71.9960 C   0  0  0  0  0  2  0  0  0  0  0  0
   21.2600   30.5420   73.1140 C   0  0  0  0  0  2  0  0  0  0  0  0
   20.2210   29.6460   72.9120 O   0  0  0  0  0  0  0  0  0  0  0  0
   19.1280   30.0850   73.6980 C   0  0  0  0  0  1  0  0  0  0  0  0
  1  2  1  0  0  0  0
  2  7  1  0  0  0  0
  3  2  2  0  0  0  0
  3  4  1  0  0  0  0
  4  5  2  0  0  0  0
  5  6  1  0  0  0  0
  5  8  1  0  0  0  0
  7  6  2  0  0  0  0
  8 21  1  0  0  0  0
  9 10  2  0  0  0  0
  9  8  1  0  0  0  0
 11  4  1  6  0  0  0
 11  9  1  0  0  0  0
 12 11  1  0  0  0  0
 13 23  1  6  0  0  0
 13 12  1  0  0  0  0
 14 15  1  0  0  0  0
 14 13  1  0  0  0  0
 14 19  1  1  0  0  0
 15 16  1  1  0  0  0
 15 11  1  0  0  0  0
 16 17  2  0  0  0  0
 16 18  1  0  0  0  0
 18 27  1  0  0  0  0
 19 18  1  0  0  0  0
 19 20  2  0  0  0  0
 22 12  1  0  0  0  0
 23 24  1  6  0  0  0
 25 23  1  0  0  0  0
 26 25  1  0  0  0  0
 27 28  1  0  0  0  0
 28 29  1  0  0  0  0
 30 29  1  0  0  0  0
 30 31  1  0  0  0  0
M  END
>  <Pose>
1

>  <Score>
-7.087

$$$$
