MODEL 1
REMARK VINA RESULT:    -7.087      0.000      0.000
REMARK INTER + INTRA:         -10.471
REMARK INTER:                  -9.366
REMARK INTRA:                  -1.105
REMARK UNBOUND:                -1.105
REMARK  6 active torsions:
REMARK  status: ('A' for Active; 'I' for Inactive)
REMARK    1  A    between atoms: C_13  and  C_26 
REMARK    2  A    between atoms: N_18  and  C_21 
REMARK    3  A    between atoms: C_21  and  C_22 
REMARK    4  A    between atoms: C_22  and  C_23 
REMARK    5  A    between atoms: C_23  and  O_24 
REMARK    6  A    between atoms: C_26  and  O_27 
ROOT
ATOM      1 Cl   UNK d   1      13.566  34.019  69.058  0.00  0.00    -0.084 Cl
ATOM      2  C   UNK d   1      14.746  33.960  70.326  0.00  0.00     0.034 A 
ATOM      3  C   UNK d   1      16.079  34.251  70.073  0.00  0.00     0.036 A 
ATOM      4  C   UNK d   1      17.030  34.208  71.072  0.00  0.00     0.019 A 
ATOM      5  C   UNK d   1      16.623  33.869  72.332  0.00  0.00     0.044 A 
ATOM      6  C   UNK d   1      15.289  33.570  72.628  0.00  0.00     0.032 A 
ATOM      7  C   UNK d   1      14.366  33.622  71.607  0.00  0.00     0.026 A 
ATOM      8  N   UNK d   1      17.739  33.860  73.212  0.00  0.00    -0.324 N 
ATOM      9  C   UNK d   1      18.894  34.206  72.463  0.00  0.00     0.267 A 
ATOM     10  O   UNK d   1      20.047  34.241  73.002  0.00  0.00    -0.270 OA
ATOM     11  C   UNK d   1      18.466  34.478  71.096  0.00  0.00     0.279 A 
ATOM     12  N   UNK d   1      18.770  35.851  70.687  0.00  0.00     0.116 N 
ATOM     13  C   UNK d   1      20.194  35.764  70.453  0.00  0.00     0.264 C 
ATOM     14  C   UNK d   1      20.431  34.444  69.794  0.00  0.00     0.130 C 
ATOM     15  C   UNK d   1      19.151  33.700  70.028  0.00  0.00     0.147 C 
ATOM     16  C   UNK d   1      19.496  32.306  70.399  0.00  0.00     0.234 C 
ATOM     17  O   UNK d   1      18.608  31.424  70.530  0.00  0.00    -0.272 OA
ATOM     18  N   UNK d   1      20.905  32.237  70.548  0.00  0.00    -0.287 N 
ATOM     19  C   UNK d   1      21.400  33.581  70.545  0.00  0.00     0.233 C 
ATOM     20  O   UNK d   1      22.440  34.009  71.056  0.00  0.00    -0.272 OA
ATOM     21  H   UNK d   1      17.720  33.636  74.251  0.00  0.00     0.169 HD
ATOM     22  H   UNK d   1      18.304  35.972  69.759  0.00  0.00     0.318 HD
ENDROOT
BRANCH  13  23
ATOM     23  C   UNK d   1      20.719  36.927  69.651  0.00  0.00     0.148 C 
ATOM     24  C   UNK d   1      20.169  36.960  68.248  0.00  0.00     0.041 C 
BRANCH  23  25
ATOM     25  O   UNK d   1      22.104  36.829  69.620  0.00  0.00    -0.394 OA
ATOM     26  H   UNK d   1      22.462  36.759  68.698  0.00  0.00     0.210 HD
ENDBRANCH  23  25
ENDBRANCH  13  23
BRANCH  18  27
ATOM     27  C   UNK d   1      21.686  31.065  70.671  0.00  0.00     0.137 C 
BRANCH  27  28
ATOM     28  C   UNK d   1      22.220  30.688  71.996  0.00  0.00     0.046 C 
BRANCH  28  29
ATOM     29  C   UNK d   1      21.260  30.542  73.114  0.00  0.00     0.168 C 
BRANCH  29  30
ATOM     30  O   UNK d   1      20.221  29.646  72.912  0.00  0.00    -0.396 OA
ATOM     31  C   UNK d   1      19.128  30.085  73.698  0.00  0.00     0.201 C 
ENDBRANCH  29  30
ENDBRANCH  28  29
ENDBRANCH  27  28
ENDBRANCH  18  27
TORSDOF 6
ENDMDL
