MODEL 1
REMARK VINA RESULT:    -8.041      0.000      0.000
REMARK INTER + INTRA:          -8.041
REMARK INTER:                  -8.041
REMARK INTRA:                   0.000
REMARK UNBOUND:                 0.000
REMARK  0 active torsions:
REMARK  status: ('A' for Active; 'I' for Inactive)
ROOT
ATOM      1  F   UNK d   1      15.378  31.996  73.231  0.00  0.00    -0.202 F 
ATOM      2  C   UNK d   1      16.092  32.861  72.435  0.00  0.00     0.165 A 
ATOM      3  C   UNK d   1      17.491  32.832  72.502  0.00  0.00     0.086 A 
ATOM      4  C   UNK d   1      18.216  33.681  71.722  0.00  0.00     0.030 A 
ATOM      5  C   UNK d   1      17.568  34.576  70.859  0.00  0.00     0.016 A 
ATOM      6  C   UNK d   1      16.202  34.582  70.814  0.00  0.00     0.028 A 
ATOM      7  C   UNK d   1      15.450  33.735  71.593  0.00  0.00     0.074 A 
ATOM      8 Cl   UNK d   1      13.682  33.747  71.530  0.00  0.00    -0.081 Cl
ATOM      9  C   UNK d   1      19.661  33.446  71.983  0.00  0.00     0.222 A 
ATOM     10  N   UNK d   1      20.260  34.658  72.445  0.00  0.00    -0.336 N 
ATOM     11  C   UNK d   1      20.767  35.612  71.539  0.00  0.00     0.141 A 
ATOM     12  N   UNK d   1      21.033  36.891  71.912  0.00  0.00    -0.243 NA
ATOM     13  C   UNK d   1      21.513  37.833  71.093  0.00  0.00     0.119 A 
ATOM     14  C   UNK d   1      21.768  37.510  69.765  0.00  0.00     0.020 A 
ATOM     15  C   UNK d   1      21.527  36.245  69.309  0.00  0.00     0.022 A 
ATOM     16  C   UNK d   1      21.033  35.324  70.207  0.00  0.00     0.077 A 
ATOM     17  C   UNK d   1      20.742  33.941  69.817  0.00  0.00     0.258 C 
ATOM     18  O   UNK d   1      20.971  33.631  68.599  0.00  0.00    -0.267 OA
ATOM     19  N   UNK d   1      20.237  32.996  70.728  0.00  0.00    -0.318 N 
ATOM     20  C   UNK d   1      19.684  32.381  72.991  0.00  0.00     0.277 A 
ATOM     21  O   UNK d   1      20.720  31.843  73.529  0.00  0.00    -0.268 OA
ATOM     22  N   UNK d   1      18.362  32.017  73.296  0.00  0.00    -0.320 N 
ATOM     23  H   UNK d   1      20.341  34.870  73.470  0.00  0.00     0.164 HD
ATOM     24  H   UNK d   1      20.298  31.987  70.458  0.00  0.00     0.166 HD
ATOM     25  H   UNK d   1      18.010  31.289  73.973  0.00  0.00     0.169 HD
ENDROOT
TORSDOF 0
ENDMDL
