/Users/jonathanwahrer/Desktop/Msc/3_Semester/Drug_Design_Praktikum/waehrer_HTS_screening/HTS_experiment/out/docking_results/vina_output/4x21/1706_docked.pdbqt
 OpenBabel03212202363D

 25 28  0  0  1  0  0  0  0  0999 V2000
   15.3780   31.9960   73.2310 F   0  0  0  0  0  0  0  0  0  0  0  0
   16.0920   32.8610   72.4350 C   0  0  0  0  0  0  0  0  0  0  0  0
   17.4910   32.8320   72.5020 C   0  0  0  0  0  0  0  0  0  0  0  0
   18.2160   33.6810   71.7220 C   0  0  0  0  0  0  0  0  0  0  0  0
   17.5680   34.5760   70.8590 C   0  0  0  0  0  3  0  0  0  0  0  0
   16.2020   34.5820   70.8140 C   0  0  0  0  0  3  0  0  0  0  0  0
   15.4500   33.7350   71.5930 C   0  0  0  0  0  0  0  0  0  0  0  0
   13.6820   33.7470   71.5300 Cl  0  0  0  0  0  0  0  0  0  0  0  0
   19.6610   33.4460   71.9830 C   0  0  2  0  0  0  0  0  0  0  0  0
   20.2600   34.6580   72.4450 N   0  0  0  0  0  0  0  0  0  0  0  0
   20.7670   35.6120   71.5390 C   0  0  0  0  0  0  0  0  0  0  0  0
   21.0330   36.8910   71.9120 N   0  0  0  0  0  0  0  0  0  0  0  0
   21.5130   37.8330   71.0930 C   0  0  0  0  0  3  0  0  0  0  0  0
   21.7680   37.5100   69.7650 C   0  0  0  0  0  3  0  0  0  0  0  0
   21.5270   36.2450   69.3090 C   0  0  0  0  0  3  0  0  0  0  0  0
   21.0330   35.3240   70.2070 C   0  0  0  0  0  0  0  0  0  0  0  0
   20.7420   33.9410   69.8170 C   0  0  0  0  0  0  0  0  0  0  0  0
   20.9710   33.6310   68.5990 O   0  0  0  0  0  0  0  0  0  0  0  0
   20.2370   32.9960   70.7280 N   0  0  0  0  0  0  0  0  0  0  0  0
   19.6840   32.3810   72.9910 C   0  0  0  0  0  0  0  0  0  0  0  0
   20.7200   31.8430   73.5290 O   0  0  0  0  0  0  0  0  0  0  0  0
   18.3620   32.0170   73.2960 N   0  0  0  0  0  0  0  0  0  0  0  0
   20.3410   34.8700   73.4700 H   0  0  0  0  0  0  0  0  0  0  0  0
   20.2980   31.9870   70.4580 H   0  0  0  0  0  0  0  0  0  0  0  0
   18.0100   31.2890   73.9730 H   0  0  0  0  0  0  0  0  0  0  0  0
  2  3  1  0  0  0  0
  2  1  1  0  0  0  0
  3 22  1  0  0  0  0
  4  3  2  0  0  0  0
  5  4  1  0  0  0  0
  6  5  2  0  0  0  0
  6  7  1  0  0  0  0
  7  2  2  0  0  0  0
  8  7  1  0  0  0  0
  9  4  1  6  0  0  0
  9 10  1  0  0  0  0
  9 20  1  0  0  0  0
 10 23  1  0  0  0  0
 11 12  1  0  0  0  0
 11 10  1  0  0  0  0
 13 12  2  0  0  0  0
 14 13  1  0  0  0  0
 15 14  2  0  0  0  0
 15 16  1  0  0  0  0
 16 11  2  0  0  0  0
 17 16  1  0  0  0  0
 17 19  1  0  0  0  0
 18 17  2  0  0  0  0
 19  9  1  0  0  0  0
 20 22  1  0  0  0  0
 20 21  2  0  0  0  0
 22 25  1  0  0  0  0
 24 19  1  0  0  0  0
M  END
>  <Pose>
1

>  <Score>
-8.041

$$$$
