MODEL 1
REMARK VINA RESULT:    -9.249      0.000      0.000
REMARK INTER + INTRA:         -11.956
REMARK INTER:                 -11.412
REMARK INTRA:                  -0.544
REMARK UNBOUND:                -0.544
REMARK  4 active torsions:
REMARK  status: ('A' for Active; 'I' for Inactive)
REMARK    1  A    between atoms: S_1  and  N_4 
REMARK    2  A    between atoms: S_1  and  C_24 
REMARK       I    between atoms: N_7  and  C_10 
REMARK    3  A    between atoms: C_10  and  C_12 
REMARK    4  A    between atoms: C_12  and  N_13 
ROOT
ATOM      1  N   UNK d   1      23.146  35.849  66.343  0.00  0.00    -0.304 N 
ATOM      2  C   UNK d   1      23.461  34.598  66.939  0.00  0.00     0.155 C 
ATOM      3  C   UNK d   1      22.384  34.088  67.863  0.00  0.00     0.146 C 
ATOM      4  N   UNK d   1      21.682  35.151  68.533  0.00  0.00    -0.348 N 
ATOM      5  C   UNK d   1      21.166  36.255  67.759  0.00  0.00     0.146 C 
ATOM      6  C   UNK d   1      21.776  36.206  66.392  0.00  0.00     0.155 C 
ATOM      7  C   UNK d   1      21.476  35.156  69.934  0.00  0.00     0.238 C 
ATOM      8  O   UNK d   1      21.917  34.207  70.610  0.00  0.00    -0.272 OA
ENDROOT
BRANCH   7   9
ATOM      9  C   UNK d   1      20.753  36.253  70.616  0.00  0.00     0.238 C 
BRANCH   9  10
ATOM     10  N   UNK d   1      19.352  35.965  70.721  0.00  0.00    -0.271 N 
ATOM     11  C   UNK d   1      18.683  34.964  71.477  0.00  0.00     0.262 A 
ATOM     12  O   UNK d   1      19.263  34.134  72.211  0.00  0.00    -0.267 OA
ATOM     13  C   UNK d   1      17.254  35.090  71.242  0.00  0.00     0.048 A 
ATOM     14  C   UNK d   1      17.032  36.130  70.371  0.00  0.00     0.048 A 
ATOM     15  C   UNK d   1      16.179  34.384  71.719  0.00  0.00     0.018 A 
ATOM     16  C   UNK d   1      15.732  36.439  69.996  0.00  0.00     0.018 A 
ATOM     17  C   UNK d   1      18.332  36.695  70.029  0.00  0.00     0.262 A 
ATOM     18  C   UNK d   1      14.661  35.735  70.472  0.00  0.00     0.001 A 
ATOM     19  C   UNK d   1      14.872  34.677  71.357  0.00  0.00     0.001 A 
ATOM     20  O   UNK d   1      18.459  37.670  69.244  0.00  0.00    -0.267 OA
ENDBRANCH   9  10
ENDBRANCH   7   9
BRANCH   1  21
ATOM     21  S   UNK d   1      24.276  37.078  66.522  0.00  0.00     0.260 S 
ATOM     22  O   UNK d   1      24.443  37.372  68.006  0.00  0.00    -0.200 OA
ATOM     23  O   UNK d   1      25.628  36.557  66.070  0.00  0.00    -0.200 OA
BRANCH  21  24
ATOM     24  C   UNK d   1      23.957  38.525  65.645  0.00  0.00     0.079 A 
ATOM     25  C   UNK d   1      22.843  39.287  65.956  0.00  0.00     0.026 A 
ATOM     26  C   UNK d   1      22.540  40.455  65.286  0.00  0.00     0.020 A 
ATOM     27  C   UNK d   1      23.391  40.860  64.274  0.00  0.00     0.011 A 
ATOM     28  C   UNK d   1      24.497  40.091  63.975  0.00  0.00     0.020 A 
ATOM     29 Br   UNK d   1      23.029  42.481  63.298  0.00  0.00    -0.051 Br
ATOM     30  C   UNK d   1      24.812  38.922  64.636  0.00  0.00     0.026 A 
ENDBRANCH  21  24
ENDBRANCH   1  21
TORSDOF 4
ENDMDL
