MODEL 1
REMARK VINA RESULT:    -9.035      0.000      0.000
REMARK INTER + INTRA:         -12.003
REMARK INTER:                 -11.148
REMARK INTRA:                  -0.855
REMARK UNBOUND:                -0.855
REMARK  4 active torsions:
REMARK  status: ('A' for Active; 'I' for Inactive)
REMARK    1  A    between atoms: C_10  and  C_24 
REMARK    2  A    between atoms: N_15  and  C_18 
REMARK    3  A    between atoms: C_18  and  C_19 
REMARK    4  A    between atoms: C_24  and  C_25 
REMARK       I    between atoms: C_25  and  N_27 
ROOT
ATOM      1 Cl   UNK d   1      16.651  27.119  72.653  0.00  0.00    -0.082 Cl
ATOM      2  C   UNK d   1      15.860  28.569  73.229  0.00  0.00     0.061 A 
ATOM      3  C   UNK d   1      16.150  29.760  72.562  0.00  0.00     0.066 A 
ATOM      4  C   UNK d   1      15.547  30.924  72.986  0.00  0.00     0.019 A 
ATOM      5  C   UNK d   1      14.670  30.851  74.069  0.00  0.00     0.013 A 
ATOM      6  C   UNK d   1      14.390  29.670  74.722  0.00  0.00     0.002 A 
ATOM      7  C   UNK d   1      14.994  28.505  74.297  0.00  0.00     0.026 A 
ATOM      8  C   UNK d   1      15.976  32.058  72.169  0.00  0.00     0.279 A 
ATOM      9  N   UNK d   1      14.869  32.755  71.543  0.00  0.00     0.114 N 
ATOM     10  C   UNK d   1      15.379  34.085  71.236  0.00  0.00     0.245 C 
ATOM     11  C   UNK d   1      16.359  34.422  72.326  0.00  0.00     0.128 C 
ATOM     12  C   UNK d   1      16.732  33.104  72.958  0.00  0.00     0.147 C 
ATOM     13  C   UNK d   1      18.200  32.969  72.781  0.00  0.00     0.235 C 
ATOM     14  O   UNK d   1      18.808  31.906  73.086  0.00  0.00    -0.272 OA
ATOM     15  N   UNK d   1      18.725  34.174  72.249  0.00  0.00    -0.285 N 
ATOM     16  C   UNK d   1      17.637  34.895  71.692  0.00  0.00     0.233 C 
ATOM     17  O   UNK d   1      17.663  35.798  70.808  0.00  0.00    -0.272 OA
ATOM     18  C   UNK d   1      16.904  31.478  71.185  0.00  0.00     0.267 A 
ATOM     19  O   UNK d   1      17.532  32.093  70.247  0.00  0.00    -0.270 OA
ATOM     20  N   UNK d   1      16.983  30.090  71.459  0.00  0.00    -0.323 N 
ATOM     21  H   UNK d   1      14.032  32.801  72.167  0.00  0.00     0.318 HD
ATOM     22  H   UNK d   1      17.572  29.392  70.928  0.00  0.00     0.169 HD
ENDROOT
BRANCH  10  23
ATOM     23  C   UNK d   1      14.229  35.048  71.182  0.00  0.00     0.139 C 
BRANCH  23  24
ATOM     24  C   UNK d   1      13.125  34.373  70.428  0.00  0.00     0.217 C 
ATOM     25  O   UNK d   1      12.201  33.867  71.116  0.00  0.00    -0.274 OA
ATOM     26  N   UNK d   1      13.103  34.295  69.013  0.00  0.00    -0.370 N 
ATOM     27  H   UNK d   1      12.873  35.157  68.480  0.00  0.00     0.159 HD
ATOM     28  H   UNK d   1      13.302  33.431  68.473  0.00  0.00     0.159 HD
ENDBRANCH  23  24
ENDBRANCH  10  23
BRANCH  15  29
ATOM     29  C   UNK d   1      20.082  34.582  72.273  0.00  0.00     0.166 C 
BRANCH  29  30
ATOM     30  C   UNK d   1      20.843  34.486  71.011  0.00  0.00     0.140 C 
ATOM     31  O   UNK d   1      22.056  33.819  71.100  0.00  0.00    -0.384 OA
ATOM     32  C   UNK d   1      22.451  33.805  69.762  0.00  0.00     0.168 C 
ATOM     33  C   UNK d   1      22.182  35.230  69.261  0.00  0.00     0.029 C 
ATOM     34  C   UNK d   1      21.211  35.753  70.332  0.00  0.00     0.035 C 
ENDBRANCH  29  30
ENDBRANCH  15  29
TORSDOF 4
ENDMDL
