MODEL 1
REMARK VINA RESULT:    -7.375      0.000      0.000
REMARK INTER + INTRA:         -10.366
REMARK INTER:                  -9.316
REMARK INTRA:                  -1.051
REMARK UNBOUND:                -1.051
REMARK  5 active torsions:
REMARK  status: ('A' for Active; 'I' for Inactive)
REMARK    1  A    between atoms: C_13  and  C_30 
REMARK    2  A    between atoms: N_18  and  C_21 
REMARK    3  A    between atoms: C_21  and  C_22 
REMARK    4  A    between atoms: C_23  and  O_28 
REMARK    5  A    between atoms: C_30  and  O_31 
ROOT
ATOM      1 Cl   UNK d   1      20.393  30.451  74.341  0.00  0.00    -0.084 Cl
ATOM      2  C   UNK d   1      19.734  28.827  74.090  0.00  0.00     0.034 A 
ATOM      3  C   UNK d   1      18.435  28.534  74.422  0.00  0.00     0.036 A 
ATOM      4  C   UNK d   1      17.933  27.275  74.225  0.00  0.00     0.019 A 
ATOM      5  C   UNK d   1      18.743  26.305  73.692  0.00  0.00     0.044 A 
ATOM      6  C   UNK d   1      20.068  26.572  73.345  0.00  0.00     0.032 A 
ATOM      7  C   UNK d   1      20.542  27.847  73.555  0.00  0.00     0.026 A 
ATOM      8  N   UNK d   1      18.054  25.075  73.566  0.00  0.00    -0.324 N 
ATOM      9  C   UNK d   1      16.738  25.298  74.051  0.00  0.00     0.267 A 
ATOM     10  O   UNK d   1      15.828  24.443  74.106  0.00  0.00    -0.270 OA
ATOM     11  C   UNK d   1      16.594  26.700  74.486  0.00  0.00     0.279 A 
ATOM     12  N   UNK d   1      16.209  26.813  75.871  0.00  0.00     0.116 N 
ATOM     13  C   UNK d   1      15.321  27.927  75.988  0.00  0.00     0.264 C 
ATOM     14  C   UNK d   1      14.543  28.005  74.694  0.00  0.00     0.130 C 
ATOM     15  C   UNK d   1      15.501  27.359  73.726  0.00  0.00     0.147 C 
ATOM     16  C   UNK d   1      15.953  28.430  72.804  0.00  0.00     0.235 C 
ATOM     17  O   UNK d   1      16.978  28.468  72.077  0.00  0.00    -0.272 OA
ATOM     18  N   UNK d   1      14.958  29.470  72.893  0.00  0.00    -0.283 N 
ATOM     19  C   UNK d   1      14.361  29.396  74.204  0.00  0.00     0.234 C 
ATOM     20  O   UNK d   1      13.788  30.321  74.835  0.00  0.00    -0.272 OA
ATOM     21  H   UNK d   1      18.407  24.146  73.191  0.00  0.00     0.169 HD
ATOM     22  H   UNK d   1      17.038  26.905  76.466  0.00  0.00     0.318 HD
ENDROOT
BRANCH  13  23
ATOM     23  C   UNK d   1      14.403  27.794  77.184  0.00  0.00     0.148 C 
ATOM     24  C   UNK d   1      14.691  28.990  78.085  0.00  0.00     0.041 C 
BRANCH  23  25
ATOM     25  O   UNK d   1      13.096  27.950  76.731  0.00  0.00    -0.394 OA
ATOM     26  H   UNK d   1      12.535  27.226  77.090  0.00  0.00     0.210 HD
ENDBRANCH  23  25
ENDBRANCH  13  23
BRANCH  18  27
ATOM     27  C   UNK d   1      14.606  30.426  71.865  0.00  0.00     0.176 C 
BRANCH  27  28
ATOM     28  C   UNK d   1      15.298  31.726  72.116  0.00  0.00    -0.006 A 
ATOM     29  C   UNK d   1      14.811  32.900  71.581  0.00  0.00     0.076 A 
ATOM     30  C   UNK d   1      15.471  34.092  71.828  0.00  0.00     0.037 A 
ATOM     31  C   UNK d   1      16.614  34.148  72.602  0.00  0.00     0.003 A 
ATOM     32  C   UNK d   1      17.108  32.981  73.140  0.00  0.00     0.001 A 
ATOM     33  C   UNK d   1      16.444  31.804  72.888  0.00  0.00     0.011 A 
BRANCH  29  34
ATOM     34  O   UNK d   1      13.654  32.840  70.798  0.00  0.00    -0.355 OA
ATOM     35  C   UNK d   1      13.463  33.842  69.792  0.00  0.00     0.210 C 
ENDBRANCH  29  34
ENDBRANCH  27  28
ENDBRANCH  18  27
TORSDOF 5
ENDMDL
