MODEL 1
REMARK VINA RESULT:    -8.753      0.000      0.000
REMARK INTER + INTRA:         -12.356
REMARK INTER:                 -11.056
REMARK INTRA:                  -1.301
REMARK UNBOUND:                -1.301
REMARK  5 active torsions:
REMARK  status: ('A' for Active; 'I' for Inactive)
REMARK    1  A    between atoms: C_4  and  N_8 
REMARK    2  A    between atoms: C_14  and  C_17 
REMARK    3  A    between atoms: C_19  and  C_22 
REMARK    4  A    between atoms: C_24  and  O_30 
REMARK    5  A    between atoms: C_25  and  O_28 
ROOT
ATOM      1  N   UNK d   1      17.241  32.594  71.515  0.00  0.00    -0.233 N 
ATOM      2  C   UNK d   1      17.471  32.528  72.922  0.00  0.00     0.336 C 
ATOM      3  O   UNK d   1      16.634  32.896  73.782  0.00  0.00    -0.246 OA
ATOM      4  N   UNK d   1      18.721  32.013  73.377  0.00  0.00    -0.277 N 
ATOM      5  C   UNK d   1      19.697  31.583  72.416  0.00  0.00     0.244 C 
ATOM      6  O   UNK d   1      20.682  30.919  72.885  0.00  0.00    -0.272 OA
ATOM      7  C   UNK d   1      19.583  31.883  70.977  0.00  0.00     0.221 C 
ATOM      8  C   UNK d   1      18.191  32.169  70.548  0.00  0.00     0.251 C 
ATOM      9  O   UNK d   1      17.901  32.025  69.335  0.00  0.00    -0.271 OA
ATOM     10  H   UNK d   1      18.957  31.937  74.399  0.00  0.00     0.173 HD
ENDROOT
BRANCH   7  11
ATOM     11  C   UNK d   1      20.484  33.035  70.601  0.00  0.00     0.041 C 
ATOM     12  C   UNK d   1      20.639  34.123  71.334  0.00  0.00     0.026 C 
ATOM     13  C   UNK d   1      21.597  34.964  70.583  0.00  0.00     0.134 C 
ATOM     14  N   UNK d   1      22.371  33.968  69.865  0.00  0.00    -0.228 NA
ATOM     15  N   UNK d   1      21.313  33.124  69.443  0.00  0.00    -0.323 N 
ATOM     16  H   UNK d   1      22.947  34.329  69.099  0.00  0.00     0.147 HD
ATOM     17  H   UNK d   1      21.118  32.658  68.558  0.00  0.00     0.180 HD
BRANCH  13  18
ATOM     18  C   UNK d   1      20.881  35.861  69.634  0.00  0.00    -0.032 A 
ATOM     19  C   UNK d   1      21.325  36.198  68.387  0.00  0.00     0.048 A 
ATOM     20  C   UNK d   1      20.603  37.003  67.529  0.00  0.00     0.099 A 
ATOM     21  C   UNK d   1      19.375  37.509  67.914  0.00  0.00     0.101 A 
ATOM     22  C   UNK d   1      18.924  37.158  69.197  0.00  0.00     0.040 A 
ATOM     23  C   UNK d   1      19.657  36.356  70.039  0.00  0.00     0.012 A 
BRANCH  20  24
ATOM     24  O   UNK d   1      21.106  37.322  66.255  0.00  0.00    -0.358 OA
ATOM     25  H   UNK d   1      21.979  37.837  66.203  0.00  0.00     0.217 HD
ENDBRANCH  20  24
BRANCH  21  26
ATOM     26  O   UNK d   1      18.626  38.309  67.085  0.00  0.00    -0.353 OA
ATOM     27  C   UNK d   1      17.306  38.692  67.411  0.00  0.00     0.210 C 
ENDBRANCH  21  26
ENDBRANCH  13  18
ENDBRANCH   7  11
BRANCH   1  28
ATOM     28  C   UNK d   1      15.994  33.127  71.084  0.00  0.00     0.048 A 
ATOM     29  C   UNK d   1      15.877  34.442  70.669  0.00  0.00     0.054 A 
ATOM     30  C   UNK d   1      14.693  34.984  70.233  0.00  0.00     0.036 A 
ATOM     31 Cl   UNK d   1      14.595  36.648  69.726  0.00  0.00    -0.084 Cl
ATOM     32  C   UNK d   1      13.581  34.161  70.216  0.00  0.00     0.024 A 
ATOM     33  C   UNK d   1      13.655  32.844  70.622  0.00  0.00     0.004 A 
ATOM     34  C   UNK d   1      14.879  32.345  71.056  0.00  0.00     0.030 A 
ENDBRANCH   1  28
TORSDOF 5
ENDMDL
