MODEL 1
REMARK VINA RESULT:    -8.713      0.000      0.000
REMARK INTER + INTRA:         -12.006
REMARK INTER:                 -11.005
REMARK INTRA:                  -1.000
REMARK UNBOUND:                -1.000
REMARK  5 active torsions:
REMARK  status: ('A' for Active; 'I' for Inactive)
REMARK    1  A    between atoms: C_4  and  N_8 
REMARK    2  A    between atoms: C_14  and  C_17 
REMARK    3  A    between atoms: C_19  and  C_22 
REMARK    4  A    between atoms: C_24  and  O_29 
REMARK    5  A    between atoms: C_25  and  O_28 
ROOT
ATOM      1  N   UNK d   1      17.740  33.328  71.769  0.00  0.00    -0.233 N 
ATOM      2  C   UNK d   1      18.394  33.424  73.024  0.00  0.00     0.336 C 
ATOM      3  O   UNK d   1      17.814  33.872  74.023  0.00  0.00    -0.246 OA
ATOM      4  N   UNK d   1      19.758  32.999  73.156  0.00  0.00    -0.277 N 
ATOM      5  C   UNK d   1      20.474  32.474  72.040  0.00  0.00     0.244 C 
ATOM      6  O   UNK d   1      21.457  31.725  72.173  0.00  0.00    -0.272 OA
ATOM      7  C   UNK d   1      20.012  32.850  70.657  0.00  0.00     0.221 C 
ATOM      8  C   UNK d   1      18.535  32.793  70.689  0.00  0.00     0.251 C 
ATOM      9  O   UNK d   1      17.875  32.250  69.732  0.00  0.00    -0.271 OA
ATOM     10  H   UNK d   1      20.213  33.078  74.074  0.00  0.00     0.173 HD
ENDROOT
BRANCH   7  11
ATOM     11  C   UNK d   1      20.540  34.205  70.315  0.00  0.00     0.041 C 
ATOM     12  C   UNK d   1      21.694  34.752  70.638  0.00  0.00     0.026 C 
ATOM     13  C   UNK d   1      21.749  36.122  70.057  0.00  0.00     0.134 C 
ATOM     14  N   UNK d   1      20.301  36.421  69.925  0.00  0.00    -0.228 NA
ATOM     15  N   UNK d   1      19.796  35.168  69.556  0.00  0.00    -0.323 N 
ATOM     16  H   UNK d   1      19.926  36.753  70.836  0.00  0.00     0.147 HD
ATOM     17  H   UNK d   1      19.058  34.956  68.893  0.00  0.00     0.180 HD
BRANCH  13  18
ATOM     18  C   UNK d   1      22.267  36.037  68.665  0.00  0.00    -0.032 A 
ATOM     19  C   UNK d   1      23.026  34.931  68.226  0.00  0.00     0.048 A 
ATOM     20  C   UNK d   1      23.490  34.794  66.955  0.00  0.00     0.101 A 
ATOM     21  C   UNK d   1      23.217  35.776  66.022  0.00  0.00     0.099 A 
ATOM     22  C   UNK d   1      22.480  36.870  66.414  0.00  0.00     0.040 A 
ATOM     23  C   UNK d   1      22.017  36.995  67.705  0.00  0.00     0.012 A 
BRANCH  20  24
ATOM     24  O   UNK d   1      24.244  33.675  66.573  0.00  0.00    -0.353 OA
ATOM     25  C   UNK d   1      25.552  33.516  67.077  0.00  0.00     0.210 C 
ENDBRANCH  20  24
BRANCH  21  26
ATOM     26  O   UNK d   1      23.682  35.651  64.717  0.00  0.00    -0.358 OA
ATOM     27  H   UNK d   1      23.433  34.828  64.184  0.00  0.00     0.217 HD
ENDBRANCH  21  26
ENDBRANCH  13  18
ENDBRANCH   7  11
BRANCH   1  28
ATOM     28  C   UNK d   1      16.385  33.685  71.535  0.00  0.00     0.048 A 
ATOM     29  C   UNK d   1      16.124  34.986  71.088  0.00  0.00     0.054 A 
ATOM     30  C   UNK d   1      14.845  35.435  70.845  0.00  0.00     0.036 A 
ATOM     31 Cl   UNK d   1      14.617  37.073  70.295  0.00  0.00    -0.084 Cl
ATOM     32  C   UNK d   1      13.759  34.621  71.032  0.00  0.00     0.024 A 
ATOM     33  C   UNK d   1      14.009  33.320  71.477  0.00  0.00     0.004 A 
ATOM     34  C   UNK d   1      15.293  32.879  71.718  0.00  0.00     0.030 A 
ENDBRANCH   1  28
TORSDOF 5
ENDMDL
