/Users/jonathanwahrer/Desktop/Msc/3_Semester/Drug_Design_Praktikum/waehrer_HTS_screening/HTS_experiment/out/docking_results/vina_output/4x21/1750_docked.pdbqt
 OpenBabel03212202393D

 27 30  0  0  0  0  0  0  0  0999 V2000
   22.5620   35.8530   67.7090 N   0  0  0  0  0  0  0  0  0  0  0  0
   21.8880   34.5910   67.7160 C   0  0  0  0  0  2  0  0  0  0  0  0
   20.7520   34.5410   68.7190 C   0  0  0  0  0  2  0  0  0  0  0  0
   21.2220   35.0420   69.9830 N   0  0  0  0  0  0  0  0  0  0  0  0
   22.6310   35.3570   70.1100 C   0  0  0  0  0  2  0  0  0  0  0  0
   22.9820   36.3110   68.9900 C   0  0  0  0  0  2  0  0  0  0  0  0
   20.3660   35.2390   71.1040 C   0  0  0  0  0  0  0  0  0  0  0  0
   20.8000   35.6790   72.1940 O   0  0  0  0  0  0  0  0  0  0  0  0
   18.9370   34.9310   71.0130 C   0  0  0  0  0  0  0  0  0  0  0  0
   17.9460   35.7920   70.6510 N   0  0  0  0  0  0  0  0  0  0  0  0
   16.7710   35.1440   70.6860 C   0  0  0  0  0  0  0  0  0  0  0  0
   17.0230   33.8920   71.0670 N   0  0  0  0  0  0  0  0  0  0  0  0
   15.4670   35.5310   70.4180 C   0  0  0  0  0  3  0  0  0  0  0  0
   18.3370   33.7350   71.2730 C   0  0  0  0  0  3  0  0  0  0  0  0
   15.9940   33.0300   71.1800 C   0  0  0  0  0  3  0  0  0  0  0  0
   14.6900   33.3560   70.9280 C   0  0  0  0  0  0  0  0  0  0  0  0
   14.4080   34.6580   70.5300 C   0  0  0  0  0  3  0  0  0  0  0  0
   13.3700   32.2030   71.0870 Cl  0  0  0  0  0  0  0  0  0  0  0  0
   21.8890   37.0360   66.7080 S   0  0  0  0  0  0  0  0  0  0  0  0
   20.8030   36.4400   65.8710 O   0  0  0  0  0  0  0  0  0  0  0  0
   21.2880   38.1100   67.5710 O   0  0  0  0  0  0  0  0  0  0  0  0
   23.0240   37.7930   65.6640 N   0  0  0  0  0  0  0  0  0  0  0  0
   24.3670   37.2710   65.8370 C   0  0  0  0  0  2  0  0  0  0  0  0
   25.3250   38.3330   65.3540 C   0  0  0  0  0  2  0  0  0  0  0  0
   24.7970   39.0580   64.2910 O   0  0  0  0  0  0  0  0  0  0  0  0
   23.7120   39.8470   64.6650 C   0  0  0  0  0  2  0  0  0  0  0  0
   23.1060   39.2220   65.9060 C   0  0  0  0  0  2  0  0  0  0  0  0
  1  2  1  0  0  0  0
  1  6  1  0  0  0  0
  2  3  1  0  0  0  0
  3  4  1  0  0  0  0
  4  5  1  0  0  0  0
  4  7  1  0  0  0  0
  6  5  1  0  0  0  0
  7  8  2  0  0  0  0
  9  7  1  0  0  0  0
  9 14  2  0  0  0  0
 10 11  2  0  0  0  0
 10  9  1  0  0  0  0
 11 12  1  0  0  0  0
 12 15  1  0  0  0  0
 12 14  1  0  0  0  0
 13 17  2  0  0  0  0
 13 11  1  0  0  0  0
 16 18  1  0  0  0  0
 16 15  2  0  0  0  0
 17 16  1  0  0  0  0
 19 21  2  0  0  0  0
 19  1  1  0  0  0  0
 20 19  2  0  0  0  0
 22 23  1  0  0  0  0
 22 27  1  0  0  0  0
 22 19  1  0  0  0  0
 24 23  1  0  0  0  0
 25 26  1  0  0  0  0
 25 24  1  0  0  0  0
 26 27  1  0  0  0  0
M  END
>  <Pose>
1

>  <Score>
-8.009

$$$$
