/Users/jonathanwahrer/Desktop/Msc/3_Semester/Drug_Design_Praktikum/waehrer_HTS_screening/HTS_experiment/out/docking_results/vina_output/4x21/1764_docked.pdbqt
 OpenBabel03212202393D

 34 37  0  0  1  0  0  0  0  0999 V2000
   20.7120   35.2230   69.1320 N   0  0  0  0  0  0  0  0  0  0  0  0
   20.7520   36.5780   69.3980 C   0  0  1  0  0  3  0  0  0  0  0  0
   21.8920   37.1330   68.5330 C   0  0  0  0  0  2  0  0  0  0  0  0
   21.7560   36.2960   67.2790 C   0  0  0  0  0  2  0  0  0  0  0  0
   21.1720   34.9920   67.7660 C   0  0  0  0  0  2  0  0  0  0  0  0
   21.1190   34.0150   70.1970 S   0  0  0  0  0  0  0  0  0  0  0  0
   22.3340   34.3680   71.0530 O   0  0  0  0  0  0  0  0  0  0  0  0
   21.5900   32.8020   69.3920 O   0  0  0  0  0  0  0  0  0  0  0  0
   19.8330   33.4710   71.2320 C   0  0  0  0  0  0  0  0  0  0  0  0
   19.1720   32.2730   70.9160 C   0  0  0  0  0  3  0  0  0  0  0  0
   18.1100   31.7810   71.6210 C   0  0  0  0  0  0  0  0  0  0  0  0
   17.6770   32.5210   72.7060 C   0  0  0  0  0  0  0  0  0  0  0  0
   17.4620   30.5970   71.3040 O   0  0  0  0  0  0  0  0  0  0  0  0
   18.2720   33.6910   73.0700 C   0  0  0  0  0  3  0  0  0  0  0  0
   16.5650   32.0120   73.4600 N   0  0  0  0  0  0  0  0  0  0  0  0
   19.3490   34.1450   72.3180 C   0  0  0  0  0  0  0  0  0  0  0  0
   20.1240   35.5980   72.9100 Cl  0  0  0  0  0  0  0  0  0  0  0  0
   15.9570   30.7830   73.0710 C   0  0  0  0  0  0  0  0  0  0  0  0
   16.2250   32.5630   74.2860 H   0  0  0  0  0  0  0  0  0  0  0  0
   14.7760   30.5450   73.3840 O   0  0  0  0  0  0  0  0  0  0  0  0
   16.7870   29.8280   72.2960 C   0  0  0  0  0  2  0  0  0  0  0  0
   19.4500   37.2000   68.9250 C   0  0  0  0  0  0  0  0  0  0  0  0
   19.5370   37.9430   67.9380 O   0  0  0  0  0  0  0  0  0  0  0  0
   18.2550   36.9100   69.6060 N   0  0  0  0  0  0  0  0  0  0  0  0
   18.2190   36.2920   70.4410 H   0  0  0  0  0  0  0  0  0  0  0  0
   17.0080   37.4850   69.1620 C   0  0  0  0  0  2  0  0  0  0  0  0
   15.8810   37.3910   70.1170 C   0  0  0  0  0  2  0  0  0  0  0  0
   15.0890   36.2140   70.0510 N   0  0  0  0  0  0  0  0  0  0  0  0
   13.6770   36.4130   70.1080 C   0  0  0  0  0  2  0  0  0  0  0  0
   13.0330   35.4400   69.1410 C   0  0  0  0  0  2  0  0  0  0  0  0
   13.5490   34.0460   69.4340 C   0  0  0  0  0  2  0  0  0  0  0  0
   13.4830   33.8200   70.9210 C   0  0  0  0  0  2  0  0  0  0  0  0
   14.5980   34.4270   71.6880 C   0  0  0  0  0  2  0  0  0  0  0  0
   15.5970   35.1860   70.8980 C   0  0  0  0  0  2  0  0  0  0  0  0
  1  2  1  0  0  0  0
  1  6  1  0  0  0  0
  2 22  1  6  0  0  0
  3  2  1  0  0  0  0
  4  5  1  0  0  0  0
  4  3  1  0  0  0  0
  5  1  1  0  0  0  0
  6  7  2  0  0  0  0
  6  9  1  0  0  0  0
  8  6  2  0  0  0  0
  9 16  1  0  0  0  0
 10  9  2  0  0  0  0
 10 11  1  0  0  0  0
 11 12  2  0  0  0  0
 12 14  1  0  0  0  0
 12 15  1  0  0  0  0
 13 11  1  0  0  0  0
 13 21  1  0  0  0  0
 15 19  1  0  0  0  0
 16 17  1  0  0  0  0
 16 14  2  0  0  0  0
 18 20  2  0  0  0  0
 18 15  1  0  0  0  0
 21 18  1  0  0  0  0
 22 24  1  0  0  0  0
 23 22  2  0  0  0  0
 24 25  1  0  0  0  0
 26 24  1  0  0  0  0
 26 27  1  0  0  0  0
 28 29  1  0  0  0  0
 28 27  1  0  0  0  0
 28 34  1  0  0  0  0
 30 31  1  0  0  0  0
 30 29  1  0  0  0  0
 31 32  1  0  0  0  0
 32 33  1  0  0  0  0
 34 33  1  0  0  0  0
M  END
>  <Pose>
1

>  <Score>
-8.810

$$$$
