MODEL 1
REMARK VINA RESULT:    -8.810      0.000      0.000
REMARK INTER + INTRA:         -12.911
REMARK INTER:                 -11.901
REMARK INTRA:                  -1.011
REMARK UNBOUND:                -1.011
REMARK  6 active torsions:
REMARK  status: ('A' for Active; 'I' for Inactive)
REMARK    1  A    between atoms: S_1  and  N_4 
REMARK    2  A    between atoms: S_1  and  C_21 
REMARK    3  A    between atoms: C_5  and  C_9 
REMARK       I    between atoms: C_9  and  N_11 
REMARK    4  A    between atoms: N_11  and  C_12 
REMARK    5  A    between atoms: C_12  and  C_13 
REMARK    6  A    between atoms: C_13  and  N_14 
ROOT
ATOM      1  N   UNK d   1      20.712  35.223  69.132  0.00  0.00    -0.293 N 
ATOM      2  C   UNK d   1      20.752  36.578  69.398  0.00  0.00     0.188 C 
ATOM      3  C   UNK d   1      21.892  37.133  68.533  0.00  0.00     0.037 C 
ATOM      4  C   UNK d   1      21.756  36.296  67.279  0.00  0.00     0.023 C 
ATOM      5  C   UNK d   1      21.172  34.992  67.766  0.00  0.00     0.136 C 
ENDROOT
BRANCH   1   6
ATOM      6  S   UNK d   1      21.119  34.015  70.197  0.00  0.00     0.263 S 
ATOM      7  O   UNK d   1      22.334  34.368  71.053  0.00  0.00    -0.200 OA
ATOM      8  O   UNK d   1      21.590  32.802  69.392  0.00  0.00    -0.200 OA
BRANCH   6   9
ATOM      9  C   UNK d   1      19.833  33.471  71.232  0.00  0.00     0.104 A 
ATOM     10  C   UNK d   1      19.172  32.273  70.916  0.00  0.00     0.066 A 
ATOM     11  C   UNK d   1      18.110  31.781  71.621  0.00  0.00     0.097 A 
ATOM     12  C   UNK d   1      17.677  32.521  72.706  0.00  0.00     0.070 A 
ATOM     13  O   UNK d   1      17.462  30.597  71.304  0.00  0.00    -0.340 OA
ATOM     14  C   UNK d   1      18.272  33.691  73.070  0.00  0.00     0.058 A 
ATOM     15  N   UNK d   1      16.565  32.012  73.460  0.00  0.00    -0.323 N 
ATOM     16  C   UNK d   1      19.349  34.145  72.318  0.00  0.00     0.059 A 
ATOM     17 Cl   UNK d   1      20.124  35.598  72.910  0.00  0.00    -0.083 Cl
ATOM     18  C   UNK d   1      15.957  30.783  73.071  0.00  0.00     0.246 C 
ATOM     19  H   UNK d   1      16.225  32.563  74.286  0.00  0.00     0.169 HD
ATOM     20  O   UNK d   1      14.776  30.545  73.384  0.00  0.00    -0.271 OA
ATOM     21  C   UNK d   1      16.787  29.828  72.296  0.00  0.00     0.278 C 
ENDBRANCH   6   9
ENDBRANCH   1   6
BRANCH   2  22
ATOM     22  C   UNK d   1      19.450  37.200  68.925  0.00  0.00     0.241 C 
ATOM     23  O   UNK d   1      19.537  37.943  67.938  0.00  0.00    -0.271 OA
ATOM     24  N   UNK d   1      18.255  36.910  69.606  0.00  0.00    -0.358 N 
ATOM     25  H   UNK d   1      18.219  36.292  70.441  0.00  0.00     0.162 HD
BRANCH  24  26
ATOM     26  C   UNK d   1      17.008  37.485  69.162  0.00  0.00     0.152 C 
BRANCH  26  27
ATOM     27  C   UNK d   1      15.881  37.391  70.117  0.00  0.00     0.292 C 
BRANCH  27  28
ATOM     28  N   UNK d   1      15.089  36.214  70.051  0.00  0.00     0.090 N 
ATOM     29  C   UNK d   1      13.677  36.413  70.108  0.00  0.00     0.272 C 
ATOM     30  C   UNK d   1      13.033  35.440  69.141  0.00  0.00     0.030 C 
ATOM     31  C   UNK d   1      13.549  34.046  69.434  0.00  0.00     0.002 C 
ATOM     32  C   UNK d   1      13.483  33.820  70.921  0.00  0.00     0.002 C 
ATOM     33  C   UNK d   1      14.598  34.427  71.688  0.00  0.00     0.030 C 
ATOM     34  C   UNK d   1      15.597  35.186  70.898  0.00  0.00     0.272 C 
ENDBRANCH  27  28
ENDBRANCH  26  27
ENDBRANCH  24  26
ENDBRANCH   2  22
TORSDOF 6
ENDMDL
