MODEL 1
REMARK VINA RESULT:    -8.497      0.000      0.000
REMARK INTER + INTRA:          -9.905
REMARK INTER:                  -9.490
REMARK INTRA:                  -0.415
REMARK UNBOUND:                -0.415
REMARK  2 active torsions:
REMARK  status: ('A' for Active; 'I' for Inactive)
REMARK    1  A    between atoms: C_5  and  C_8 
REMARK       I    between atoms: C_8  and  N_10 
REMARK    2  A    between atoms: N_13  and  C_16 
ROOT
ATOM      1  C   UNK d   1      17.421  32.991  71.446  0.00  0.00     0.187 C 
ATOM      2  O   UNK d   1      17.180  31.780  71.010  0.00  0.00    -0.171 OA
ATOM      3  N   UNK d   1      18.549  33.108  72.244  0.00  0.00    -0.356 N 
ATOM      4  C   UNK d   1      19.100  34.222  72.941  0.00  0.00     0.145 C 
ATOM      5  C   UNK d   1      20.261  34.712  72.052  0.00  0.00     0.144 C 
ATOM      6  N   UNK d   1      20.955  33.512  71.549  0.00  0.00    -0.361 N 
ATOM      7  C   UNK d   1      20.857  32.309  72.323  0.00  0.00     0.144 C 
ATOM      8  C   UNK d   1      19.403  31.881  72.384  0.00  0.00     0.145 C 
ENDROOT
BRANCH   1   9
ATOM      9  C   UNK d   1      16.461  33.964  71.006  0.00  0.00     0.018 A 
ATOM     10  C   UNK d   1      15.156  33.560  70.701  0.00  0.00     0.017 A 
ATOM     11  C   UNK d   1      14.186  34.416  70.235  0.00  0.00     0.025 A 
ATOM     12  C   UNK d   1      14.459  35.748  70.040  0.00  0.00     0.034 A 
ATOM     13 Cl   UNK d   1      13.215  36.854  69.442  0.00  0.00    -0.084 Cl
ATOM     14  C   UNK d   1      15.725  36.190  70.325  0.00  0.00     0.025 A 
ATOM     15  C   UNK d   1      16.707  35.303  70.801  0.00  0.00     0.017 A 
ENDBRANCH   1   9
BRANCH   6  16
ATOM     16  C   UNK d   1      21.691  33.589  70.331  0.00  0.00     0.146 A 
ATOM     17  N   UNK d   1      22.947  33.097  70.241  0.00  0.00    -0.147 NA
ATOM     18  N   UNK d   1      23.660  33.153  69.131  0.00  0.00    -0.204 N 
ATOM     19  C   UNK d   1      23.191  33.703  68.002  0.00  0.00     0.174 A 
ATOM     20  C   UNK d   1      24.918  32.729  68.823  0.00  0.00     0.261 A 
ATOM     21  N   UNK d   1      24.122  33.627  67.020  0.00  0.00    -0.129 NA
ATOM     22  C   UNK d   1      21.910  34.229  68.014  0.00  0.00     0.058 A 
ATOM     23  N   UNK d   1      25.178  33.026  67.538  0.00  0.00    -0.141 NA
ATOM     24  C   UNK d   1      21.189  34.159  69.183  0.00  0.00     0.056 A 
ENDBRANCH   6  16
TORSDOF 2
ENDMDL
