MODEL 1
REMARK VINA RESULT:    -9.162      0.000      0.000
REMARK INTER + INTRA:         -12.162
REMARK INTER:                 -11.305
REMARK INTRA:                  -0.857
REMARK UNBOUND:                -0.857
REMARK  4 active torsions:
REMARK  status: ('A' for Active; 'I' for Inactive)
REMARK    1  A    between atoms: C_5  and  N_8 
REMARK    2  A    between atoms: C_10  and  C_24 
REMARK    3  A    between atoms: N_11  and  C_14 
REMARK    4  A    between atoms: C_14  and  C_15 
REMARK       I    between atoms: C_15  and  N_17 
ROOT
ATOM      1  N   UNK d   1      19.319  35.300  70.854  0.00  0.00    -0.181 N 
ATOM      2  N   UNK d   1      18.158  35.511  70.343  0.00  0.00    -0.144 NA
ATOM      3  C   UNK d   1      17.155  34.930  71.103  0.00  0.00     0.165 A 
ATOM      4  N   UNK d   1      17.761  34.343  72.118  0.00  0.00    -0.272 N 
ATOM      5  C   UNK d   1      19.107  34.580  71.958  0.00  0.00     0.352 A 
ATOM      6  O   UNK d   1      19.974  34.161  72.755  0.00  0.00    -0.244 OA
ENDROOT
BRANCH   4   7
ATOM      7  C   UNK d   1      17.215  33.516  73.147  0.00  0.00     0.222 C 
BRANCH   7   8
ATOM      8  C   UNK d   1      17.188  32.071  72.851  0.00  0.00     0.172 C 
ATOM      9  O   UNK d   1      18.374  31.545  72.762  0.00  0.00    -0.175 OA
ATOM     10  N   UNK d   1      16.138  31.201  72.658  0.00  0.00    -0.351 N 
ATOM     11  C   UNK d   1      14.744  31.556  72.665  0.00  0.00     0.145 C 
ATOM     12  C   UNK d   1      16.421  29.773  72.432  0.00  0.00     0.227 C 
ATOM     13  C   UNK d   1      13.834  30.352  72.362  0.00  0.00     0.142 C 
ATOM     14  N   UNK d   1      14.165  29.261  73.284  0.00  0.00    -0.358 N 
ATOM     15  C   UNK d   1      15.585  29.025  73.401  0.00  0.00     0.235 C 
ATOM     16  H   UNK d   1      13.464  28.719  73.797  0.00  0.00     0.162 HD
ATOM     17  O   UNK d   1      16.025  28.240  74.272  0.00  0.00    -0.272 OA
ENDBRANCH   7   8
ENDBRANCH   4   7
BRANCH   3  18
ATOM     18  C   UNK d   1      15.760  35.032  70.678  0.00  0.00     0.012 A 
ATOM     19  C   UNK d   1      15.150  33.889  70.146  0.00  0.00     0.015 A 
ATOM     20  C   UNK d   1      13.873  33.863  69.655  0.00  0.00     0.001 A 
ATOM     21  C   UNK d   1      13.092  35.011  69.662  0.00  0.00     0.000 A 
ATOM     22  C   UNK d   1      13.678  36.133  70.177  0.00  0.00     0.001 A 
ATOM     23  C   UNK d   1      14.984  36.154  70.677  0.00  0.00     0.015 A 
ENDBRANCH   3  18
BRANCH   1  24
ATOM     24  C   UNK d   1      20.557  35.759  70.321  0.00  0.00     0.063 A 
ATOM     25  C   UNK d   1      21.290  34.948  69.477  0.00  0.00     0.033 A 
ATOM     26  C   UNK d   1      22.496  35.376  68.949  0.00  0.00     0.026 A 
ATOM     27  C   UNK d   1      23.026  36.621  69.233  0.00  0.00     0.034 A 
ATOM     28 Cl   UNK d   1      24.554  37.173  68.573  0.00  0.00    -0.084 Cl
ATOM     29  C   UNK d   1      22.289  37.432  70.081  0.00  0.00     0.026 A 
ATOM     30  C   UNK d   1      21.076  37.003  70.612  0.00  0.00     0.033 A 
ENDBRANCH   1  24
TORSDOF 4
ENDMDL
