MODEL 1
REMARK VINA RESULT:    -8.030      0.000      0.000
REMARK INTER + INTRA:         -10.666
REMARK INTER:                  -9.908
REMARK INTRA:                  -0.758
REMARK UNBOUND:                -0.758
REMARK  4 active torsions:
REMARK  status: ('A' for Active; 'I' for Inactive)
REMARK    1  A    between atoms: C_5  and  N_8 
REMARK    2  A    between atoms: N_15  and  C_18 
REMARK    3  A    between atoms: C_20  and  O_26 
REMARK    4  A    between atoms: C_21  and  O_24 
ROOT
ATOM      1  N   UNK d   1      17.646  35.760  70.518  0.00  0.00    -0.234 N 
ATOM      2  N   UNK d   1      17.437  37.049  70.395  0.00  0.00    -0.234 N 
ATOM      3  N   UNK d   1      18.563  37.575  69.922  0.00  0.00    -0.278 N 
ATOM      4  C   UNK d   1      19.497  36.622  69.739  0.00  0.00     0.152 A 
ATOM      5  C   UNK d   1      18.901  35.487  70.119  0.00  0.00     0.160 A 
ATOM      6  C   UNK d   1      19.862  34.502  69.932  0.00  0.00     0.286 A 
ATOM      7  O   UNK d   1      19.675  33.290  70.181  0.00  0.00    -0.265 OA
ATOM      8  N   UNK d   1      21.009  35.007  69.454  0.00  0.00    -0.241 N 
ATOM      9  C   UNK d   1      20.783  36.328  69.333  0.00  0.00     0.286 A 
ATOM     10  O   UNK d   1      21.624  37.176  68.910  0.00  0.00    -0.265 OA
ATOM     11  H   UNK d   1      16.545  37.579  70.628  0.00  0.00     0.209 HD
ATOM     12  H   UNK d   1      18.676  38.598  69.727  0.00  0.00     0.189 HD
ENDROOT
BRANCH   8  13
ATOM     13  C   UNK d   1      22.222  34.334  69.130  0.00  0.00     0.049 A 
ATOM     14  C   UNK d   1      22.612  34.072  67.831  0.00  0.00     0.069 A 
ATOM     15  C   UNK d   1      23.789  33.420  67.526  0.00  0.00     0.103 A 
ATOM     16  C   UNK d   1      24.642  32.993  68.523  0.00  0.00     0.101 A 
ATOM     17  C   UNK d   1      24.266  33.247  69.825  0.00  0.00     0.042 A 
ATOM     18  C   UNK d   1      23.083  33.902  70.121  0.00  0.00     0.033 A 
BRANCH  15  19
ATOM     19  O   UNK d   1      24.182  33.156  66.218  0.00  0.00    -0.353 OA
ATOM     20  C   UNK d   1      24.841  34.193  65.515  0.00  0.00     0.210 C 
ENDBRANCH  15  19
BRANCH  16  21
ATOM     21  O   UNK d   1      25.828  32.336  68.205  0.00  0.00    -0.353 OA
ATOM     22  C   UNK d   1      27.086  32.933  68.272  0.00  0.00     0.210 C 
ENDBRANCH  16  21
ENDBRANCH   8  13
BRANCH   1  23
ATOM     23  C   UNK d   1      16.705  34.820  70.989  0.00  0.00     0.058 A 
ATOM     24  C   UNK d   1      16.942  34.123  72.170  0.00  0.00     0.033 A 
ATOM     25  C   UNK d   1      15.979  33.220  72.569  0.00  0.00     0.026 A 
ATOM     26  C   UNK d   1      14.823  32.974  71.884  0.00  0.00     0.034 A 
ATOM     27 Cl   UNK d   1      13.618  31.808  72.436  0.00  0.00    -0.084 Cl
ATOM     28  C   UNK d   1      14.597  33.667  70.720  0.00  0.00     0.026 A 
ATOM     29  C   UNK d   1      15.521  34.573  70.282  0.00  0.00     0.033 A 
ENDBRANCH   1  23
TORSDOF 4
ENDMDL
