MODEL 1
REMARK VINA RESULT:    -8.259      0.000      0.000
REMARK INTER + INTRA:         -10.641
REMARK INTER:                 -10.191
REMARK INTRA:                  -0.450
REMARK UNBOUND:                -0.450
REMARK  4 active torsions:
REMARK  status: ('A' for Active; 'I' for Inactive)
REMARK    1  A    between atoms: C_5  and  N_8 
REMARK    2  A    between atoms: N_15  and  C_18 
REMARK    3  A    between atoms: C_20  and  O_26 
REMARK    4  A    between atoms: C_22  and  O_24 
ROOT
ATOM      1  N   UNK d   1      18.883  35.357  70.841  0.00  0.00    -0.234 N 
ATOM      2  N   UNK d   1      19.303  34.697  71.902  0.00  0.00    -0.234 N 
ATOM      3  N   UNK d   1      20.607  34.521  71.731  0.00  0.00    -0.278 N 
ATOM      4  C   UNK d   1      21.029  35.059  70.574  0.00  0.00     0.152 A 
ATOM      5  C   UNK d   1      19.925  35.587  70.018  0.00  0.00     0.160 A 
ATOM      6  C   UNK d   1      20.362  36.140  68.828  0.00  0.00     0.286 A 
ATOM      7  O   UNK d   1      19.578  36.733  68.029  0.00  0.00    -0.265 OA
ATOM      8  N   UNK d   1      21.681  35.965  68.649  0.00  0.00    -0.241 N 
ATOM      9  C   UNK d   1      22.098  35.293  69.735  0.00  0.00     0.286 A 
ATOM     10  O   UNK d   1      23.298  34.938  69.934  0.00  0.00    -0.265 OA
ATOM     11  H   UNK d   1      18.707  34.384  72.706  0.00  0.00     0.209 HD
ATOM     12  H   UNK d   1      21.230  34.027  72.407  0.00  0.00     0.189 HD
ENDROOT
BRANCH   8  13
ATOM     13  C   UNK d   1      22.430  36.421  67.523  0.00  0.00     0.051 A 
ATOM     14  C   UNK d   1      23.105  35.554  66.689  0.00  0.00     0.067 A 
ATOM     15  C   UNK d   1      23.835  35.971  65.594  0.00  0.00     0.073 A 
ATOM     16  C   UNK d   1      23.892  37.321  65.322  0.00  0.00     0.073 A 
ATOM     17  C   UNK d   1      23.236  38.234  66.123  0.00  0.00     0.073 A 
ATOM     18  C   UNK d   1      22.514  37.765  67.216  0.00  0.00     0.067 A 
BRANCH  15  19
ATOM     19  O   UNK d   1      24.507  35.045  64.773  0.00  0.00    -0.356 OA
ATOM     20  C   UNK d   1      25.858  34.748  65.041  0.00  0.00     0.210 C 
ENDBRANCH  15  19
BRANCH  17  21
ATOM     21  O   UNK d   1      23.317  39.586  65.817  0.00  0.00    -0.356 OA
ATOM     22  C   UNK d   1      22.178  40.398  65.735  0.00  0.00     0.210 C 
ENDBRANCH  17  21
ENDBRANCH   8  13
BRANCH   1  23
ATOM     23  C   UNK d   1      17.549  35.765  70.593  0.00  0.00     0.058 A 
ATOM     24  C   UNK d   1      17.212  37.083  70.328  0.00  0.00     0.033 A 
ATOM     25  C   UNK d   1      15.911  37.442  70.092  0.00  0.00     0.026 A 
ATOM     26  C   UNK d   1      14.886  36.518  70.108  0.00  0.00     0.034 A 
ATOM     27 Cl   UNK d   1      13.224  37.038  69.798  0.00  0.00    -0.084 Cl
ATOM     28  C   UNK d   1      15.196  35.209  70.369  0.00  0.00     0.026 A 
ATOM     29  C   UNK d   1      16.507  34.852  70.606  0.00  0.00     0.033 A 
ENDBRANCH   1  23
TORSDOF 4
ENDMDL
