MODEL 1
REMARK VINA RESULT:    -8.515      0.000      0.000
REMARK INTER + INTRA:         -10.698
REMARK INTER:                 -10.008
REMARK INTRA:                  -0.689
REMARK UNBOUND:                -0.689
REMARK  3 active torsions:
REMARK  status: ('A' for Active; 'I' for Inactive)
REMARK    1  A    between atoms: N_15  and  C_19 
REMARK    2  A    between atoms: C_19  and  C_20 
REMARK       I    between atoms: C_20  and  N_22 
REMARK    3  A    between atoms: N_22  and  C_23 
ROOT
ATOM      1 Cl   UNK d   1      15.849  29.353  72.236  0.00  0.00    -0.084 Cl
ATOM      2  C   UNK d   1      15.382  30.952  71.658  0.00  0.00     0.036 A 
ATOM      3  C   UNK d   1      16.331  31.948  71.513  0.00  0.00     0.055 A 
ATOM      4  C   UNK d   1      15.982  33.192  71.066  0.00  0.00     0.077 A 
ATOM      5  C   UNK d   1      14.655  33.400  70.771  0.00  0.00     0.038 A 
ATOM      6  C   UNK d   1      13.696  32.431  70.905  0.00  0.00     0.019 A 
ATOM      7  C   UNK d   1      14.063  31.175  71.359  0.00  0.00     0.025 A 
ATOM      8  C   UNK d   1      14.241  34.731  70.286  0.00  0.00     0.153 A 
ATOM      9  N   UNK d   1      13.105  35.223  69.936  0.00  0.00    -0.270 NA
ATOM     10  C   UNK d   1      13.210  36.594  69.528  0.00  0.00     0.172 A 
ATOM     11  C   UNK d   1      14.658  36.927  69.676  0.00  0.00     0.171 A 
ATOM     12  N   UNK d   1      15.261  35.707  70.159  0.00  0.00    -0.160 N 
ATOM     13  C   UNK d   1      16.633  35.437  70.481  0.00  0.00     0.736 A 
ATOM     14  N   UNK d   1      17.742  36.189  70.441  0.00  0.00     0.025 NA
ATOM     15  N   UNK d   1      18.785  35.483  70.841  0.00  0.00    -0.194 N 
ATOM     16  C   UNK d   1      18.304  34.264  71.137  0.00  0.00     0.365 A 
ATOM     17  O   UNK d   1      19.011  33.314  71.554  0.00  0.00    -0.244 OA
ATOM     18  N   UNK d   1      16.962  34.209  70.921  0.00  0.00    -0.090 N 
ENDROOT
BRANCH  15  19
ATOM     19  C   UNK d   1      20.176  35.912  70.950  0.00  0.00     0.259 C 
BRANCH  19  20
ATOM     20  C   UNK d   1      20.516  36.740  69.769  0.00  0.00     0.237 C 
ATOM     21  O   UNK d   1      21.261  37.748  69.929  0.00  0.00    -0.272 OA
ATOM     22  N   UNK d   1      20.040  36.450  68.464  0.00  0.00    -0.356 N 
ATOM     23  H   UNK d   1      19.428  35.617  68.351  0.00  0.00     0.162 HD
BRANCH  22  24
ATOM     24  C   UNK d   1      20.399  37.289  67.343  0.00  0.00     0.076 C 
ATOM     25  C   UNK d   1      20.971  36.444  66.201  0.00  0.00     0.032 C 
ATOM     26  C   UNK d   1      19.101  37.881  66.809  0.00  0.00     0.032 C 
ENDBRANCH  22  24
ENDBRANCH  19  20
ENDBRANCH  15  19
TORSDOF 3
ENDMDL
