MODEL 1
REMARK VINA RESULT:    -8.061      0.000      0.000
REMARK INTER + INTRA:         -10.954
REMARK INTER:                 -10.417
REMARK INTRA:                  -0.537
REMARK UNBOUND:                -0.537
REMARK  5 active torsions:
REMARK  status: ('A' for Active; 'I' for Inactive)
REMARK    1  A    between atoms: N_15  and  C_19 
REMARK    2  A    between atoms: C_19  and  C_20 
REMARK       I    between atoms: C_20  and  N_22 
REMARK    3  A    between atoms: N_22  and  C_23 
REMARK    4  A    between atoms: C_23  and  C_24 
REMARK    5  A    between atoms: C_24  and  O_25 
ROOT
ATOM      1 Cl   UNK d   1      13.692  36.980  69.612  0.00  0.00    -0.084 Cl
ATOM      2  C   UNK d   1      14.851  35.904  70.399  0.00  0.00     0.036 A 
ATOM      3  C   UNK d   1      16.212  36.186  70.262  0.00  0.00     0.055 A 
ATOM      4  C   UNK d   1      17.171  35.392  70.857  0.00  0.00     0.077 A 
ATOM      5  C   UNK d   1      16.715  34.313  71.588  0.00  0.00     0.038 A 
ATOM      6  C   UNK d   1      15.405  34.004  71.746  0.00  0.00     0.019 A 
ATOM      7  C   UNK d   1      14.437  34.818  71.137  0.00  0.00     0.025 A 
ATOM      8  C   UNK d   1      17.761  33.473  72.225  0.00  0.00     0.153 A 
ATOM      9  N   UNK d   1      17.674  32.408  72.963  0.00  0.00    -0.270 NA
ATOM     10  C   UNK d   1      18.989  31.949  73.348  0.00  0.00     0.172 A 
ATOM     11  C   UNK d   1      19.982  32.911  72.744  0.00  0.00     0.171 A 
ATOM     12  N   UNK d   1      19.105  33.832  72.038  0.00  0.00    -0.160 N 
ATOM     13  C   UNK d   1      19.496  34.965  71.265  0.00  0.00     0.736 A 
ATOM     14  N   UNK d   1      20.707  35.482  70.971  0.00  0.00     0.025 NA
ATOM     15  N   UNK d   1      20.545  36.566  70.216  0.00  0.00    -0.194 N 
ATOM     16  C   UNK d   1      19.230  36.695  70.061  0.00  0.00     0.365 A 
ATOM     17  O   UNK d   1      18.665  37.612  69.403  0.00  0.00    -0.244 OA
ATOM     18  N   UNK d   1      18.546  35.708  70.704  0.00  0.00    -0.090 N 
ENDROOT
BRANCH  15  19
ATOM     19  C   UNK d   1      21.607  37.430  69.692  0.00  0.00     0.259 C 
BRANCH  19  20
ATOM     20  C   UNK d   1      21.715  36.974  68.204  0.00  0.00     0.237 C 
ATOM     21  O   UNK d   1      21.620  38.017  67.466  0.00  0.00    -0.272 OA
ATOM     22  N   UNK d   1      21.870  35.680  67.893  0.00  0.00    -0.358 N 
ATOM     23  H   UNK d   1      21.987  36.007  66.581  0.00  0.00     0.162 HD
BRANCH  22  24
ATOM     24  C   UNK d   1      22.030  34.350  67.573  0.00  0.00     0.148 C 
BRANCH  24  25
ATOM     25  C   UNK d   1      23.318  33.756  68.155  0.00  0.00     0.186 C 
BRANCH  25  26
ATOM     26  O   UNK d   1      24.003  33.021  67.217  0.00  0.00    -0.394 OA
ATOM     27  C   UNK d   1      24.481  33.728  66.151  0.00  0.00     0.201 C 
ENDBRANCH  25  26
ENDBRANCH  24  25
ENDBRANCH  22  24
ENDBRANCH  19  20
ENDBRANCH  15  19
TORSDOF 5
ENDMDL
