MODEL 1
REMARK VINA RESULT:    -8.968      0.000      0.000
REMARK INTER + INTRA:         -10.463
REMARK INTER:                 -10.017
REMARK INTRA:                  -0.446
REMARK UNBOUND:                -0.446
REMARK  2 active torsions:
REMARK  status: ('A' for Active; 'I' for Inactive)
REMARK    1  A    between atoms: N_15  and  C_19 
REMARK    2  A    between atoms: C_19  and  C_20 
REMARK       I    between atoms: C_20  and  N_22 
ROOT
ATOM      1 Cl   UNK d   1      12.952  36.844  69.514  0.00  0.00    -0.084 Cl
ATOM      2  C   UNK d   1      13.687  35.358  70.075  0.00  0.00     0.036 A 
ATOM      3  C   UNK d   1      15.046  35.230  70.308  0.00  0.00     0.055 A 
ATOM      4  C   UNK d   1      15.611  34.057  70.750  0.00  0.00     0.077 A 
ATOM      5  C   UNK d   1      14.757  33.000  70.954  0.00  0.00     0.038 A 
ATOM      6  C   UNK d   1      13.401  33.070  70.739  0.00  0.00     0.019 A 
ATOM      7  C   UNK d   1      12.858  34.277  70.290  0.00  0.00     0.025 A 
ATOM      8  C   UNK d   1      15.328  31.724  71.427  0.00  0.00     0.153 A 
ATOM      9  N   UNK d   1      14.781  30.596  71.697  0.00  0.00    -0.270 NA
ATOM     10  C   UNK d   1      15.742  29.619  72.135  0.00  0.00     0.172 A 
ATOM     11  C   UNK d   1      17.050  30.343  72.099  0.00  0.00     0.171 A 
ATOM     12  N   UNK d   1      16.723  31.669  71.643  0.00  0.00    -0.160 N 
ATOM     13  C   UNK d   1      17.571  32.812  71.413  0.00  0.00     0.736 A 
ATOM     14  N   UNK d   1      18.899  32.994  71.545  0.00  0.00     0.025 NA
ATOM     15  N   UNK d   1      19.207  34.235  71.208  0.00  0.00    -0.194 N 
ATOM     16  C   UNK d   1      18.044  34.813  70.864  0.00  0.00     0.365 A 
ATOM     17  O   UNK d   1      17.965  36.016  70.482  0.00  0.00    -0.244 OA
ATOM     18  N   UNK d   1      17.010  33.953  70.981  0.00  0.00    -0.090 N 
ENDROOT
BRANCH  15  19
ATOM     19  C   UNK d   1      20.537  34.861  71.204  0.00  0.00     0.259 C 
BRANCH  19  20
ATOM     20  C   UNK d   1      21.220  34.487  69.937  0.00  0.00     0.239 C 
ATOM     21  O   UNK d   1      21.743  33.344  69.895  0.00  0.00    -0.271 OA
ATOM     22  N   UNK d   1      21.284  35.370  68.826  0.00  0.00    -0.351 N 
ATOM     23  C   UNK d   1      21.936  35.062  67.568  0.00  0.00     0.126 C 
ATOM     24  C   UNK d   1      20.727  36.699  68.742  0.00  0.00     0.126 C 
ATOM     25  C   UNK d   1      21.931  36.335  66.764  0.00  0.00     0.021 C 
ATOM     26  C   UNK d   1      21.761  37.385  67.842  0.00  0.00     0.021 C 
ENDBRANCH  19  20
ENDBRANCH  15  19
TORSDOF 2
ENDMDL
