MODEL 1
REMARK VINA RESULT:    -9.181      0.000      0.000
REMARK INTER + INTRA:         -11.026
REMARK INTER:                 -10.792
REMARK INTRA:                  -0.235
REMARK UNBOUND:                -0.235
REMARK  3 active torsions:
REMARK  status: ('A' for Active; 'I' for Inactive)
REMARK    1  A    between atoms: C_10  and  N_11 
REMARK    2  A    between atoms: N_14  and  C_17 
REMARK    3  A    between atoms: C_22  and  C_23 
REMARK       I    between atoms: C_23  and  N_25 
ROOT
ATOM      1  N   UNK d   1      19.529  34.208  71.020  0.00  0.00    -0.384 N 
ATOM      2  C   UNK d   1      19.378  34.178  72.461  0.00  0.00     0.142 C 
ATOM      3  C   UNK d   1      18.261  33.171  72.779  0.00  0.00     0.144 C 
ATOM      4  N   UNK d   1      17.605  32.711  71.604  0.00  0.00    -0.362 N 
ATOM      5  C   UNK d   1      18.469  31.988  70.673  0.00  0.00     0.144 C 
ATOM      6  C   UNK d   1      19.590  32.937  70.325  0.00  0.00     0.142 C 
ENDROOT
BRANCH   1   7
ATOM      7  C   UNK d   1      19.648  35.411  70.272  0.00  0.00     0.134 C 
ATOM      8  C   UNK d   1      20.482  35.647  69.287  0.00  0.00     0.124 A 
ATOM      9  N   UNK d   1      21.413  34.688  68.823  0.00  0.00    -0.340 N 
ATOM     10  N   UNK d   1      20.464  36.937  68.635  0.00  0.00    -0.308 N 
ATOM     11  C   UNK d   1      22.314  34.990  67.733  0.00  0.00     0.049 A 
ATOM     12  H   UNK d   1      21.458  33.752  69.262  0.00  0.00     0.167 HD
ATOM     13  C   UNK d   1      22.314  36.208  67.102  0.00  0.00     0.060 A 
ATOM     14  C   UNK d   1      23.201  34.032  67.316  0.00  0.00     0.032 A 
ATOM     15  C   UNK d   1      23.189  36.463  66.065  0.00  0.00     0.043 A 
ATOM     16  C   UNK d   1      21.360  37.203  67.571  0.00  0.00     0.259 A 
ATOM     17  C   UNK d   1      24.069  35.510  65.651  0.00  0.00     0.035 A 
ATOM     18 Cl   UNK d   1      25.209  35.778  64.334  0.00  0.00    -0.084 Cl
ATOM     19  C   UNK d   1      24.080  34.284  66.277  0.00  0.00     0.026 A 
ATOM     20  O   UNK d   1      21.363  38.336  66.979  0.00  0.00    -0.267 OA
ATOM     21  H   UNK d   1      19.794  37.665  68.950  0.00  0.00     0.170 HD
ENDBRANCH   1   7
BRANCH   4  22
ATOM     22  C   UNK d   1      16.252  32.873  71.212  0.00  0.00     0.141 A 
ATOM     23  N   UNK d   1      15.918  33.995  70.474  0.00  0.00    -0.242 NA
ATOM     24  C   UNK d   1      14.684  34.270  70.057  0.00  0.00     0.119 A 
ATOM     25  C   UNK d   1      13.685  33.393  70.375  0.00  0.00     0.020 A 
ATOM     26  C   UNK d   1      13.977  32.274  71.102  0.00  0.00     0.022 A 
ATOM     27  C   UNK d   1      15.281  31.977  71.545  0.00  0.00     0.077 A 
BRANCH  27  28
ATOM     28  C   UNK d   1      15.557  30.779  72.279  0.00  0.00     0.253 C 
ATOM     29  O   UNK d   1      15.809  29.680  71.790  0.00  0.00    -0.268 OA
ATOM     30  N   UNK d   1      15.545  30.837  73.700  0.00  0.00    -0.366 N 
ATOM     31  H   UNK d   1      16.279  31.369  74.219  0.00  0.00     0.159 HD
ATOM     32  H   UNK d   1      14.824  30.367  74.291  0.00  0.00     0.159 HD
ENDBRANCH  27  28
ENDBRANCH   4  22
TORSDOF 3
ENDMDL
