/Users/jonathanwahrer/Desktop/Msc/3_Semester/Drug_Design_Praktikum/waehrer_HTS_screening/HTS_experiment/out/docking_results/vina_output/4x21/1806_docked.pdbqt
 OpenBabel03212202413D

 32 35  0  0  0  0  0  0  0  0999 V2000
   19.5290   34.2080   71.0200 N   0  0  0  0  0  0  0  0  0  0  0  0
   19.3780   34.1780   72.4610 C   0  0  0  0  0  2  0  0  0  0  0  0
   18.2610   33.1710   72.7790 C   0  0  0  0  0  2  0  0  0  0  0  0
   17.6050   32.7110   71.6040 N   0  0  0  0  0  0  0  0  0  0  0  0
   18.4690   31.9880   70.6730 C   0  0  0  0  0  2  0  0  0  0  0  0
   19.5900   32.9370   70.3250 C   0  0  0  0  0  2  0  0  0  0  0  0
   19.6480   35.4110   70.2720 C   0  0  0  0  0  3  0  0  0  0  0  0
   20.4820   35.6470   69.2870 C   0  0  0  0  0  0  0  0  0  0  0  0
   21.4130   34.6880   68.8230 N   0  0  0  0  0  0  0  0  0  0  0  0
   20.4640   36.9370   68.6350 N   0  0  0  0  0  0  0  0  0  0  0  0
   22.3140   34.9900   67.7330 C   0  0  0  0  0  0  0  0  0  0  0  0
   21.4580   33.7520   69.2620 H   0  0  0  0  0  0  0  0  0  0  0  0
   22.3140   36.2080   67.1020 C   0  0  0  0  0  0  0  0  0  0  0  0
   23.2010   34.0320   67.3160 C   0  0  0  0  0  3  0  0  0  0  0  0
   23.1890   36.4630   66.0650 C   0  0  0  0  0  3  0  0  0  0  0  0
   21.3600   37.2030   67.5710 C   0  0  0  0  0  0  0  0  0  0  0  0
   24.0690   35.5100   65.6510 C   0  0  0  0  0  0  0  0  0  0  0  0
   25.2090   35.7780   64.3340 Cl  0  0  0  0  0  0  0  0  0  0  0  0
   24.0800   34.2840   66.2770 C   0  0  0  0  0  3  0  0  0  0  0  0
   21.3630   38.3360   66.9790 O   0  0  0  0  0  0  0  0  0  0  0  0
   19.7940   37.6650   68.9500 H   0  0  0  0  0  0  0  0  0  0  0  0
   16.2520   32.8730   71.2120 C   0  0  0  0  0  0  0  0  0  0  0  0
   15.9180   33.9950   70.4740 N   0  0  0  0  0  0  0  0  0  0  0  0
   14.6840   34.2700   70.0570 C   0  0  0  0  0  3  0  0  0  0  0  0
   13.6850   33.3930   70.3750 C   0  0  0  0  0  3  0  0  0  0  0  0
   13.9770   32.2740   71.1020 C   0  0  0  0  0  3  0  0  0  0  0  0
   15.2810   31.9770   71.5450 C   0  0  0  0  0  0  0  0  0  0  0  0
   15.5570   30.7790   72.2790 C   0  0  0  0  0  0  0  0  0  0  0  0
   15.8090   29.6800   71.7900 O   0  0  0  0  0  0  0  0  0  0  0  0
   15.5450   30.8370   73.7000 N   0  0  0  0  0  0  0  0  0  0  0  0
   16.2790   31.3690   74.2190 H   0  0  0  0  0  0  0  0  0  0  0  0
   14.8240   30.3670   74.2910 H   0  0  0  0  0  0  0  0  0  0  0  0
  1  2  1  0  0  0  0
  2  3  1  0  0  0  0
  4  3  1  0  0  0  0
  5  4  1  0  0  0  0
  6  5  1  0  0  0  0
  6  1  1  0  0  0  0
  7  1  1  0  0  0  0
  8  7  2  0  0  0  0
  9 12  1  0  0  0  0
  9  8  1  0  0  0  0
 10 21  1  0  0  0  0
 10  8  1  0  0  0  0
 11  9  1  0  0  0  0
 13 16  1  0  0  0  0
 13 11  2  0  0  0  0
 14 11  1  0  0  0  0
 15 13  1  0  0  0  0
 16 10  1  0  0  0  0
 17 15  2  0  0  0  0
 17 19  1  0  0  0  0
 18 17  1  0  0  0  0
 19 14  2  0  0  0  0
 20 16  2  0  0  0  0
 22 27  1  0  0  0  0
 22  4  1  0  0  0  0
 23 22  2  0  0  0  0
 24 25  2  0  0  0  0
 24 23  1  0  0  0  0
 25 26  1  0  0  0  0
 26 27  2  0  0  0  0
 27 28  1  0  0  0  0
 28 30  1  0  0  0  0
 29 28  2  0  0  0  0
 30 31  1  0  0  0  0
 30 32  1  0  0  0  0
M  END
>  <Pose>
1

>  <Score>
-9.181

$$$$
