MODEL 1
REMARK VINA RESULT:    -8.409      0.000      0.000
REMARK INTER + INTRA:          -9.800
REMARK INTER:                  -9.392
REMARK INTRA:                  -0.408
REMARK UNBOUND:                -0.408
REMARK  2 active torsions:
REMARK  status: ('A' for Active; 'I' for Inactive)
REMARK    1  A    between atoms: C_5  and  N_8 
REMARK    2  A    between atoms: C_12  and  C_20 
ROOT
ATOM      1  N   UNK d   1      19.664  36.509  70.069  0.00  0.00    -0.252 N 
ATOM      2  C   UNK d   1      20.024  37.224  68.897  0.00  0.00     0.239 C 
ATOM      3  O   UNK d   1      19.203  37.798  68.142  0.00  0.00    -0.272 OA
ATOM      4  C   UNK d   1      21.502  37.173  68.731  0.00  0.00     0.138 C 
ATOM      5  C   UNK d   1      21.932  36.055  67.833  0.00  0.00     0.142 C 
ATOM      6  O   UNK d   1      23.187  35.740  68.400  0.00  0.00    -0.360 OA
ATOM      7  C   UNK d   1      22.710  35.409  69.693  0.00  0.00     0.160 C 
ATOM      8  C   UNK d   1      22.025  36.674  70.079  0.00  0.00     0.128 C 
ATOM      9  C   UNK d   1      20.818  36.379  70.898  0.00  0.00     0.239 C 
ATOM     10  O   UNK d   1      20.837  36.075  72.094  0.00  0.00    -0.272 OA
ATOM     11  C   UNK d   1      21.677  34.407  69.321  0.00  0.00     0.005 C 
ATOM     12  C   UNK d   1      21.153  34.858  68.185  0.00  0.00     0.015 C 
ENDROOT
BRANCH   1  13
ATOM     13  C   UNK d   1      18.336  36.027  70.308  0.00  0.00     0.045 A 
ATOM     14  C   UNK d   1      17.239  36.854  70.210  0.00  0.00     0.031 A 
ATOM     15  C   UNK d   1      15.957  36.404  70.439  0.00  0.00     0.021 A 
ATOM     16  C   UNK d   1      15.781  35.084  70.777  0.00  0.00     0.011 A 
ATOM     17 Br   UNK d   1      14.032  34.427  71.102  0.00  0.00    -0.051 Br
ATOM     18  C   UNK d   1      16.859  34.241  70.882  0.00  0.00     0.021 A 
ATOM     19  C   UNK d   1      18.160  34.693  70.650  0.00  0.00     0.031 A 
ENDBRANCH   1  13
BRANCH   5  20
ATOM     20  C   UNK d   1      22.016  36.385  66.404  0.00  0.00     0.298 C 
ATOM     21  O   UNK d   1      23.075  35.806  65.760  0.00  0.00    -0.356 OA
ATOM     22  C   UNK d   1      23.976  36.786  65.426  0.00  0.00     0.197 C 
ATOM     23  C   UNK d   1      23.398  38.075  65.908  0.00  0.00     0.197 C 
ATOM     24  O   UNK d   1      22.076  37.750  66.193  0.00  0.00    -0.356 OA
ENDBRANCH   5  20
TORSDOF 2
ENDMDL
