/Users/jonathanwahrer/Desktop/Msc/3_Semester/Drug_Design_Praktikum/waehrer_HTS_screening/HTS_experiment/out/docking_results/vina_output/4x21/1810_docked.pdbqt
 OpenBabel03212202413D

 32 35  0  0  1  0  0  0  0  0999 V2000
   23.9210   34.9630   68.7630 N   0  0  0  0  0  0  0  0  0  0  0  0
   24.0970   33.5780   69.1210 C   0  0  0  0  0  2  0  0  0  0  0  0
   22.7680   33.0580   69.6180 C   0  0  0  0  0  2  0  0  0  0  0  0
   21.7340   34.0110   69.3040 N   0  0  0  0  0  0  0  0  0  0  0  0
   21.6920   34.6980   68.0180 C   0  0  0  0  0  2  0  0  0  0  0  0
   23.1180   35.0070   67.5570 C   0  0  0  0  0  2  0  0  0  0  0  0
   20.7400   34.3030   70.2550 C   0  0  0  0  0  0  0  0  0  0  0  0
   19.8060   35.1210   69.9440 O   0  0  0  0  0  0  0  0  0  0  0  0
   20.7750   33.6740   71.6030 C   0  0  1  0  0  3  0  0  0  0  0  0
   19.6880   34.1790   72.5080 C   0  0  0  0  0  2  0  0  0  0  0  0
   18.6850   33.1190   72.5430 N   0  0  0  0  0  0  0  0  0  0  0  0
   19.0690   32.0700   71.6740 C   0  0  0  0  0  0  0  0  0  0  0  0
   18.2770   31.2370   71.1710 O   0  0  0  0  0  0  0  0  0  0  0  0
   20.5350   32.1920   71.5210 C   0  0  0  0  0  2  0  0  0  0  0  0
   17.4840   33.1520   73.3450 C   0  0  0  0  0  2  0  0  0  0  0  0
   16.2830   33.4460   72.5280 C   0  0  0  0  0  0  0  0  0  0  0  0
   15.2690   32.5030   72.4510 C   0  0  0  0  0  0  0  0  0  0  0  0
   14.1200   32.7060   71.7070 C   0  0  0  0  0  3  0  0  0  0  0  0
   15.4670   31.0110   73.3290 Cl  0  0  0  0  0  0  0  0  0  0  0  0
   14.0110   33.9030   71.0280 C   0  0  0  0  0  3  0  0  0  0  0  0
   15.0030   34.8670   71.0840 C   0  0  0  0  0  3  0  0  0  0  0  0
   16.1500   34.6350   71.8420 C   0  0  0  0  0  3  0  0  0  0  0  0
   25.4330   35.7550   68.5620 S   0  0  0  0  0  0  0  0  0  0  0  0
   26.4400   35.2910   69.5760 O   0  0  0  0  0  0  0  0  0  0  0  0
   25.1980   37.2220   68.8550 O   0  0  0  0  0  0  0  0  0  0  0  0
   26.0300   35.5970   66.9380 C   0  0  0  0  0  0  0  0  0  0  0  0
   25.9710   36.4620   65.8690 C   0  0  0  0  0  0  0  0  0  0  0  0
   26.5870   35.8510   64.8100 N   0  0  0  0  0  0  0  0  0  0  0  0
   25.3560   37.8020   65.8900 C   0  0  0  0  0  1  0  0  0  0  0  0
   26.9900   34.7030   65.2050 O   0  0  0  0  0  0  0  0  0  0  0  0
   26.6940   34.4820   66.4630 C   0  0  0  0  0  0  0  0  0  0  0  0
   27.0430   33.2350   67.1780 C   0  0  0  0  0  1  0  0  0  0  0  0
  1  2  1  0  0  0  0
  2  3  1  0  0  0  0
  4  3  1  0  0  0  0
  4  7  1  0  0  0  0
  5  4  1  0  0  0  0
  6  5  1  0  0  0  0
  6  1  1  0  0  0  0
  8  7  2  0  0  0  0
  9  7  1  6  0  0  0
  9 10  1  0  0  0  0
 10 11  1  0  0  0  0
 11 15  1  0  0  0  0
 12 11  1  0  0  0  0
 13 12  2  0  0  0  0
 14  9  1  0  0  0  0
 14 12  1  0  0  0  0
 16 15  1  0  0  0  0
 17 16  1  0  0  0  0
 17 19  1  0  0  0  0
 18 17  2  0  0  0  0
 20 21  2  0  0  0  0
 20 18  1  0  0  0  0
 21 22  1  0  0  0  0
 22 16  2  0  0  0  0
 23  1  1  0  0  0  0
 23 25  2  0  0  0  0
 23 24  2  0  0  0  0
 26 23  1  0  0  0  0
 27 29  1  0  0  0  0
 27 26  1  0  0  0  0
 28 30  1  0  0  0  0
 28 27  2  0  0  0  0
 30 31  1  0  0  0  0
 31 26  2  0  0  0  0
 31 32  1  0  0  0  0
M  END
>  <Pose>
1

>  <Score>
-9.200

$$$$
