MODEL 1
REMARK VINA RESULT:    -9.849      0.000      0.000
REMARK INTER + INTRA:         -12.757
REMARK INTER:                 -12.152
REMARK INTRA:                  -0.605
REMARK UNBOUND:                -0.605
REMARK  4 active torsions:
REMARK  status: ('A' for Active; 'I' for Inactive)
REMARK    1  A    between atoms: C_7  and  O_8 
REMARK    2  A    between atoms: C_13  and  C_16 
REMARK    3  A    between atoms: C_16  and  C_17 
REMARK       I    between atoms: C_17  and  N_19 
REMARK       I    between atoms: N_22  and  C_25 
REMARK    4  A    between atoms: C_25  and  C_27 
ROOT
ATOM      1  C   UNK d   1      21.224  36.389  68.251  0.00  0.00     0.224 C 
ATOM      2  O   UNK d   1      20.430  35.789  67.447  0.00  0.00    -0.273 OA
ATOM      3  N   UNK d   1      22.583  36.206  68.066  0.00  0.00    -0.349 N 
ATOM      4  C   UNK d   1      23.133  35.387  67.032  0.00  0.00     0.145 C 
ATOM      5  C   UNK d   1      23.964  34.287  67.696  0.00  0.00     0.145 C 
ATOM      6  N   UNK d   1      24.940  34.880  68.547  0.00  0.00    -0.355 N 
ATOM      7  C   UNK d   1      24.930  36.355  68.637  0.00  0.00     0.145 C 
ATOM      8  C   UNK d   1      23.535  36.857  68.937  0.00  0.00     0.145 C 
ATOM      9  C   UNK d   1      25.901  34.181  69.308  0.00  0.00     0.204 C 
ATOM     10  O   UNK d   1      26.701  34.979  70.008  0.00  0.00    -0.170 OA
ENDROOT
BRANCH   1  11
ATOM     11  C   UNK d   1      20.610  37.231  69.315  0.00  0.00     0.148 C 
BRANCH  11  12
ATOM     12  C   UNK d   1      19.363  36.623  69.832  0.00  0.00     0.033 A 
ATOM     13  C   UNK d   1      19.425  35.605  70.781  0.00  0.00     0.295 A 
ATOM     14  O   UNK d   1      18.354  35.032  71.275  0.00  0.00    -0.274 OA
ATOM     15  O   UNK d   1      20.592  35.249  71.156  0.00  0.00    -0.259 OA
ATOM     16  C   UNK d   1      17.139  35.368  70.916  0.00  0.00     0.093 A 
ATOM     17  C   UNK d   1      16.965  36.365  69.984  0.00  0.00     0.006 A 
ATOM     18  C   UNK d   1      16.013  34.736  71.462  0.00  0.00     0.076 A 
ATOM     19  C   UNK d   1      15.685  36.707  69.619  0.00  0.00     0.041 A 
ATOM     20  C   UNK d   1      18.094  36.990  69.446  0.00  0.00    -0.036 A 
ATOM     21  C   UNK d   1      14.570  36.077  70.162  0.00  0.00     0.068 A 
ATOM     22 Cl   UNK d   1      12.940  36.508  69.698  0.00  0.00    -0.081 Cl
ATOM     23  C   UNK d   1      14.732  35.078  71.095  0.00  0.00     0.092 A 
ATOM     24  C   UNK d   1      17.899  38.048  68.460  0.00  0.00     0.050 C 
BRANCH  23  25
ATOM     25  O   UNK d   1      13.607  34.438  71.648  0.00  0.00    -0.354 OA
ATOM     26  C   UNK d   1      13.264  33.116  71.312  0.00  0.00     0.210 C 
ENDBRANCH  23  25
ENDBRANCH  11  12
ENDBRANCH   1  11
BRANCH   9  27
ATOM     27  C   UNK d   1      26.169  32.783  69.460  0.00  0.00     0.095 A 
ATOM     28  C   UNK d   1      26.254  32.229  70.762  0.00  0.00     0.108 A 
ATOM     29  C   UNK d   1      26.513  30.898  70.951  0.00  0.00     0.253 A 
ATOM     30  O   UNK d   1      26.584  30.432  72.118  0.00  0.00    -0.268 OA
ATOM     31  N   UNK d   1      26.702  30.047  69.933  0.00  0.00    -0.271 N 
ATOM     32  C   UNK d   1      26.622  30.567  68.708  0.00  0.00     0.329 A 
ATOM     33  C   UNK d   1      26.977  28.646  70.153  0.00  0.00     0.164 C 
ATOM     34  O   UNK d   1      26.794  29.799  67.706  0.00  0.00    -0.246 OA
ATOM     35  N   UNK d   1      26.362  31.903  68.484  0.00  0.00    -0.304 N 
ATOM     36  H   UNK d   1      26.316  32.207  67.491  0.00  0.00     0.171 HD
ENDBRANCH   9  27
TORSDOF 4
ENDMDL
