/Users/jonathanwahrer/Desktop/Msc/3_Semester/Drug_Design_Praktikum/waehrer_HTS_screening/HTS_experiment/out/docking_results/vina_output/4x21/1822_docked.pdbqt
 OpenBabel03212202423D

 24 27  0  0  1  0  0  0  0  0999 V2000
   23.9400   36.4900   69.0480 Cl  0  0  0  0  0  0  0  0  0  0  0  0
   22.4030   35.7750   69.5230 C   0  0  0  0  0  0  0  0  0  0  0  0
   22.3940   34.4660   69.9510 C   0  0  0  0  0  0  0  0  0  0  0  0
   21.2170   33.9310   70.3100 N   0  0  0  0  0  0  0  0  0  0  0  0
   20.0510   34.6270   70.2680 C   0  0  0  0  0  0  0  0  0  0  0  0
   20.0470   35.9040   69.8530 N   0  0  0  0  0  0  0  0  0  0  0  0
   18.8010   36.3650   69.8980 N   0  0  0  0  0  0  0  0  0  0  0  0
   17.9670   35.4040   70.3430 C   0  0  0  0  0  0  0  0  0  0  0  0
   18.7720   34.3340   70.5650 N   0  0  0  0  0  0  0  0  0  0  0  0
   21.2180   36.4770   69.4810 C   0  0  0  0  0  0  0  0  0  0  0  0
   21.2180   37.6860   69.0880 O   0  0  0  0  0  0  0  0  0  0  0  0
   23.6750   33.6830   70.0040 C   0  0  0  0  0  1  0  0  0  0  0  0
   21.2040   32.9360   70.6360 H   0  0  0  0  0  0  0  0  0  0  0  0
   16.5570   35.4880   70.5360 N   0  0  0  0  0  0  0  0  0  0  0  0
   15.7120   36.5270   70.0610 C   0  0  0  0  0  0  0  0  0  0  0  0
   15.9350   37.3520   69.1380 O   0  0  0  0  0  0  0  0  0  0  0  0
   14.4330   36.5180   70.8490 C   0  0  2  0  0  3  0  0  0  0  0  0
   14.4360   35.2360   71.6030 C   0  0  1  0  0  3  0  0  0  0  0  0
   13.2670   36.5730   69.8850 C   0  0  0  0  0  2  0  0  0  0  0  0
   13.3290   34.2740   71.2100 C   0  0  0  0  0  2  0  0  0  0  0  0
   15.7040   34.5860   71.2230 C   0  0  0  0  0  0  0  0  0  0  0  0
   13.3600   34.1780   69.7150 C   0  0  0  0  0  3  0  0  0  0  0  0
   13.3300   35.3330   69.0750 C   0  0  0  0  0  3  0  0  0  0  0  0
   16.0110   33.3750   71.4720 O   0  0  0  0  0  0  0  0  0  0  0  0
  1  2  1  0  0  0  0
  2  3  2  0  0  0  0
  3 12  1  0  0  0  0
  3  4  1  0  0  0  0
  4 13  1  0  0  0  0
  5  4  1  0  0  0  0
  5  9  2  0  0  0  0
  6  7  1  0  0  0  0
  6  5  1  0  0  0  0
  7  8  2  0  0  0  0
  8 14  1  0  0  0  0
  8  9  1  0  0  0  0
 10  2  1  0  0  0  0
 10  6  1  0  0  0  0
 11 10  2  0  0  0  0
 14 21  1  0  0  0  0
 15 14  1  0  0  0  0
 15 17  1  0  0  0  0
 16 15  2  0  0  0  0
 17 19  1  6  0  0  0
 17 18  1  0  0  0  0
 18 20  1  6  0  0  0
 21 24  2  0  0  0  0
 21 18  1  0  0  0  0
 22 20  1  0  0  0  0
 23 22  2  0  0  0  0
 23 19  1  0  0  0  0
M  END
>  <Pose>
1

>  <Score>
-8.493

$$$$
