MODEL 1
REMARK VINA RESULT:    -8.493      0.000      0.000
REMARK INTER + INTRA:          -9.026
REMARK INTER:                  -8.989
REMARK INTRA:                  -0.037
REMARK UNBOUND:                -0.037
REMARK  1 active torsions:
REMARK  status: ('A' for Active; 'I' for Inactive)
REMARK    1  A    between atoms: C_8  and  N_10 
ROOT
ATOM      1 Cl   UNK d   1      23.940  36.490  69.048  0.00  0.00    -0.076 Cl
ATOM      2  C   UNK d   1      22.403  35.775  69.523  0.00  0.00     0.127 A 
ATOM      3  C   UNK d   1      22.394  34.466  69.951  0.00  0.00     0.050 A 
ATOM      4  N   UNK d   1      21.217  33.931  70.310  0.00  0.00    -0.190 N 
ATOM      5  C   UNK d   1      20.051  34.627  70.268  0.00  0.00     0.747 A 
ATOM      6  N   UNK d   1      20.047  35.904  69.853  0.00  0.00    -0.005 N 
ATOM      7  N   UNK d   1      18.801  36.365  69.898  0.00  0.00     0.046 NA
ATOM      8  C   UNK d   1      17.967  35.404  70.343  0.00  0.00     0.772 A 
ATOM      9  N   UNK d   1      18.772  34.334  70.565  0.00  0.00     0.133 NA
ATOM     10  C   UNK d   1      21.218  36.477  69.481  0.00  0.00     0.308 A 
ATOM     11  O   UNK d   1      21.218  37.686  69.088  0.00  0.00    -0.264 OA
ATOM     12  C   UNK d   1      23.675  33.683  70.004  0.00  0.00     0.071 C 
ATOM     13  H   UNK d   1      21.204  32.936  70.636  0.00  0.00     0.184 HD
ENDROOT
BRANCH   8  14
ATOM     14  N   UNK d   1      16.557  35.488  70.536  0.00  0.00    -0.076 N 
ATOM     15  C   UNK d   1      15.712  36.527  70.061  0.00  0.00     0.251 C 
ATOM     16  O   UNK d   1      15.935  37.352  69.138  0.00  0.00    -0.272 OA
ATOM     17  C   UNK d   1      14.433  36.518  70.849  0.00  0.00     0.096 C 
ATOM     18  C   UNK d   1      14.436  35.236  71.603  0.00  0.00     0.096 C 
ATOM     19  C   UNK d   1      13.267  36.573  69.885  0.00  0.00     0.042 C 
ATOM     20  C   UNK d   1      13.329  34.274  71.210  0.00  0.00     0.042 C 
ATOM     21  C   UNK d   1      15.704  34.586  71.223  0.00  0.00     0.251 C 
ATOM     22  C   UNK d   1      13.360  34.178  69.715  0.00  0.00    -0.030 C 
ATOM     23  C   UNK d   1      13.330  35.333  69.075  0.00  0.00    -0.030 C 
ATOM     24  O   UNK d   1      16.011  33.375  71.472  0.00  0.00    -0.272 OA
ENDBRANCH   8  14
TORSDOF 1
ENDMDL
