MODEL 1
REMARK VINA RESULT:    -8.730      0.000      0.000
REMARK INTER + INTRA:         -11.820
REMARK INTER:                 -11.281
REMARK INTRA:                  -0.538
REMARK UNBOUND:                -0.538
REMARK  5 active torsions:
REMARK  status: ('A' for Active; 'I' for Inactive)
REMARK    1  A    between atoms: C_3  and  O_29 
REMARK    2  A    between atoms: C_6  and  N_8 
REMARK       I    between atoms: N_8  and  C_9 
REMARK    3  A    between atoms: C_9  and  C_11 
REMARK    4  A    between atoms: C_11  and  N_12 
REMARK    5  A    between atoms: C_17  and  N_23 
ROOT
ATOM      1  N   UNK d   1      17.432  37.820  69.180  0.00  0.00    -0.299 N 
ATOM      2  C   UNK d   1      17.345  38.352  67.941  0.00  0.00     0.215 A 
ATOM      3  N   UNK d   1      18.395  38.291  67.096  0.00  0.00    -0.223 NA
ATOM      4  C   UNK d   1      19.558  37.714  67.422  0.00  0.00     0.186 A 
ATOM      5  N   UNK d   1      20.608  37.647  66.588  0.00  0.00    -0.042 NA
ATOM      6  C   UNK d   1      21.786  37.075  66.890  0.00  0.00     0.726 A 
ATOM      7  N   UNK d   1      21.893  36.532  68.133  0.00  0.00    -0.074 NA
ATOM      8  C   UNK d   1      20.868  36.576  68.998  0.00  0.00     0.157 A 
ATOM      9  C   UNK d   1      19.663  37.167  68.678  0.00  0.00     0.099 A 
ATOM     10  C   UNK d   1      18.598  37.222  69.553  0.00  0.00     0.264 A 
ATOM     11  O   UNK d   1      18.756  36.705  70.686  0.00  0.00    -0.267 OA
ENDROOT
BRANCH   1  12
ATOM     12  C   UNK d   1      16.369  37.843  70.135  0.00  0.00     0.236 C 
BRANCH  12  13
ATOM     13  C   UNK d   1      15.654  36.523  70.231  0.00  0.00     0.240 C 
ATOM     14  N   UNK d   1      16.037  35.557  71.175  0.00  0.00    -0.326 N 
ATOM     15  H   UNK d   1      16.859  35.785  71.830  0.00  0.00     0.169 HD
ATOM     16  O   UNK d   1      14.719  36.351  69.434  0.00  0.00    -0.271 OA
BRANCH  14  17
ATOM     17  C   UNK d   1      15.406  34.301  71.307  0.00  0.00     0.036 A 
ATOM     18  C   UNK d   1      14.063  34.096  71.491  0.00  0.00     0.032 A 
ATOM     19  C   UNK d   1      13.556  32.802  71.623  0.00  0.00     0.041 A 
ATOM     20  C   UNK d   1      14.340  31.675  71.581  0.00  0.00     0.090 A 
ATOM     21  C   UNK d   1      15.687  31.871  71.396  0.00  0.00     0.069 A 
ATOM     22 Cl   UNK d   1      16.777  30.502  71.326  0.00  0.00    -0.081 Cl
ATOM     23  C   UNK d   1      16.197  33.138  71.265  0.00  0.00     0.056 A 
BRANCH  20  24
ATOM     24  O   UNK d   1      13.794  30.392  71.717  0.00  0.00    -0.354 OA
ATOM     25  C   UNK d   1      13.737  29.785  72.988  0.00  0.00     0.210 C 
ENDBRANCH  20  24
ENDBRANCH  14  17
ENDBRANCH  12  13
ENDBRANCH   1  12
BRANCH   6  26
ATOM     26  N   UNK d   1      22.870  37.027  65.982  0.00  0.00    -0.210 N 
ATOM     27  C   UNK d   1      23.475  38.270  65.565  0.00  0.00     0.167 C 
ATOM     28  C   UNK d   1      24.989  38.080  65.490  0.00  0.00     0.188 C 
ATOM     29  O   UNK d   1      25.331  36.933  64.778  0.00  0.00    -0.388 OA
ATOM     30  C   UNK d   1      24.926  35.847  65.554  0.00  0.00     0.188 C 
ATOM     31  C   UNK d   1      23.402  35.793  65.450  0.00  0.00     0.167 C 
ENDBRANCH   6  26
TORSDOF 5
ENDMDL
