/Users/jonathanwahrer/Desktop/Msc/3_Semester/Drug_Design_Praktikum/waehrer_HTS_screening/HTS_experiment/out/docking_results/vina_output/4x21/1846_docked.pdbqt
 OpenBabel03212202433D

 31 34  0  0  1  0  0  0  0  0999 V2000
   17.4320   37.8200   69.1800 N   0  0  0  0  0  0  0  0  0  0  0  0
   17.3450   38.3520   67.9410 C   0  0  0  0  0  2  0  0  0  0  0  0
   18.3950   38.2910   67.0960 N   0  0  0  0  0  0  0  0  0  0  0  0
   19.5580   37.7140   67.4220 C   0  0  0  0  0  0  0  0  0  0  0  0
   20.6080   37.6470   66.5880 N   0  0  0  0  0  0  0  0  0  0  0  0
   21.7860   37.0750   66.8900 C   0  0  0  0  0  0  0  0  0  0  0  0
   21.8930   36.5320   68.1330 N   0  0  0  0  0  0  0  0  0  0  0  0
   20.8680   36.5760   68.9980 C   0  0  0  0  0  3  0  0  0  0  0  0
   19.6630   37.1670   68.6780 C   0  0  2  0  0  3  0  0  0  0  0  0
   18.5980   37.2220   69.5530 C   0  0  0  0  0  0  0  0  0  0  0  0
   18.7560   36.7050   70.6860 O   0  0  0  0  0  0  0  0  0  0  0  0
   16.3690   37.8430   70.1350 C   0  0  0  0  0  2  0  0  0  0  0  0
   15.6540   36.5230   70.2310 C   0  0  0  0  0  0  0  0  0  0  0  0
   16.0370   35.5570   71.1750 N   0  0  0  0  0  0  0  0  0  0  0  0
   16.8590   35.7850   71.8300 H   0  0  0  0  0  0  0  0  0  0  0  0
   14.7190   36.3510   69.4340 O   0  0  0  0  0  0  0  0  0  0  0  0
   15.4060   34.3010   71.3070 C   0  0  0  0  0  0  0  0  0  0  0  0
   14.0630   34.0960   71.4910 C   0  0  0  0  0  3  0  0  0  0  0  0
   13.5560   32.8020   71.6230 C   0  0  0  0  0  3  0  0  0  0  0  0
   14.3400   31.6750   71.5810 C   0  0  0  0  0  0  0  0  0  0  0  0
   15.6870   31.8710   71.3960 C   0  0  0  0  0  0  0  0  0  0  0  0
   16.7770   30.5020   71.3260 Cl  0  0  0  0  0  0  0  0  0  0  0  0
   16.1970   33.1380   71.2650 C   0  0  0  0  0  3  0  0  0  0  0  0
   13.7940   30.3920   71.7170 O   0  0  0  0  0  0  0  0  0  0  0  0
   13.7370   29.7850   72.9880 C   0  0  0  0  0  1  0  0  0  0  0  0
   22.8700   37.0270   65.9820 N   0  0  0  0  0  0  0  0  0  0  0  0
   23.4750   38.2700   65.5650 C   0  0  0  0  0  2  0  0  0  0  0  0
   24.9890   38.0800   65.4900 C   0  0  0  0  0  2  0  0  0  0  0  0
   25.3310   36.9330   64.7780 O   0  0  0  0  0  0  0  0  0  0  0  0
   24.9260   35.8470   65.5540 C   0  0  0  0  0  2  0  0  0  0  0  0
   23.4020   35.7930   65.4500 C   0  0  0  0  0  2  0  0  0  0  0  0
  1 10  1  0  0  0  0
  1 12  1  0  0  0  0
  2  1  1  0  0  0  0
  3  4  2  0  0  0  0
  3  2  1  0  0  0  0
  4  9  1  0  0  0  0
  5  6  2  0  0  0  0
  5  4  1  0  0  0  0
  6  7  1  0  0  0  0
  7  8  2  0  0  0  0
  9  8  1  6  0  0  0
  9 10  1  0  0  0  0
 10 11  2  0  0  0  0
 12 13  1  0  0  0  0
 13 14  1  0  0  0  0
 14 17  1  0  0  0  0
 14 15  1  0  0  0  0
 16 13  2  0  0  0  0
 17 18  1  0  0  0  0
 18 19  2  0  0  0  0
 20 19  1  0  0  0  0
 20 24  1  0  0  0  0
 21 20  2  0  0  0  0
 22 21  1  0  0  0  0
 23 17  2  0  0  0  0
 23 21  1  0  0  0  0
 24 25  1  0  0  0  0
 26  6  1  0  0  0  0
 27 26  1  0  0  0  0
 28 27  1  0  0  0  0
 29 28  1  0  0  0  0
 29 30  1  0  0  0  0
 31 30  1  0  0  0  0
 31 26  1  0  0  0  0
M  END
>  <Pose>
1

>  <Score>
-8.730

$$$$
