/Users/jonathanwahrer/Desktop/Msc/3_Semester/Drug_Design_Praktikum/waehrer_HTS_screening/HTS_experiment/out/docking_results/vina_output/4x21/1852_docked.pdbqt
 OpenBabel03212202433D

 26 29  0  0  1  0  0  0  0  0999 V2000
   20.4410   34.0010   69.9600 N   0  0  0  0  0  0  0  0  0  0  0  0
   19.4700   33.0180   70.3250 C   0  0  0  0  0  2  0  0  0  0  0  0
   20.2210   31.7800   70.7850 C   0  0  1  0  0  3  0  0  0  0  0  0
   21.5180   32.3770   71.2930 C   0  0  0  0  0  2  0  0  0  0  0  0
   21.7410   33.4930   70.2650 C   0  0  0  0  0  2  0  0  0  0  0  0
   20.1300   35.5360   70.6750 S   0  0  0  0  0  0  0  0  0  0  0  0
   21.1110   36.5420   70.1750 O   0  0  0  0  0  0  0  0  0  0  0  0
   20.3050   35.3870   72.1630 O   0  0  0  0  0  0  0  0  0  0  0  0
   18.5020   36.0830   70.3500 C   0  0  0  0  0  0  0  0  0  0  0  0
   17.4180   35.3600   70.8040 C   0  0  0  0  0  3  0  0  0  0  0  0
   16.1090   35.7490   70.5740 C   0  0  0  0  0  0  0  0  0  0  0  0
   15.8520   36.9070   69.8640 C   0  0  0  0  0  0  0  0  0  0  0  0
   15.0210   35.0360   71.0220 O   0  0  0  0  0  0  0  0  0  0  0  0
   16.9340   37.6210   69.4170 C   0  0  0  0  0  3  0  0  0  0  0  0
   14.5280   37.2610   69.6580 O   0  0  0  0  0  0  0  0  0  0  0  0
   18.2380   37.2370   69.6440 C   0  0  0  0  0  3  0  0  0  0  0  0
   13.4620   36.3280   69.6540 C   0  0  0  0  0  2  0  0  0  0  0  0
   13.7110   35.1400   70.5460 C   0  0  0  0  0  2  0  0  0  0  0  0
   19.5190   31.2380   71.8910 O   0  0  0  0  0  0  0  0  0  0  0  0
   18.1500   31.3900   72.0380 C   0  0  0  0  0  0  0  0  0  0  0  0
   17.3740   30.5320   71.3150 N   0  0  0  0  0  0  0  0  0  0  0  0
   16.0420   30.6550   71.4380 C   0  0  0  0  0  3  0  0  0  0  0  0
   15.4570   31.6020   72.2540 C   0  0  0  0  0  0  0  0  0  0  0  0
   16.2920   32.4440   72.9630 C   0  0  0  0  0  2  0  0  0  0  0  0
   13.7180   31.7520   72.4040 Cl  0  0  0  0  0  0  0  0  0  0  0  0
   17.6310   32.3190   72.8390 N   0  0  0  0  0  0  0  0  0  0  0  0
  1  5  1  0  0  0  0
  1  2  1  0  0  0  0
  1  6  1  0  0  0  0
  2  3  1  0  0  0  0
  3  4  1  0  0  0  0
  3 19  1  1  0  0  0
  5  4  1  0  0  0  0
  6  8  2  0  0  0  0
  7  6  2  0  0  0  0
  9  6  1  0  0  0  0
  9 10  1  0  0  0  0
 11 10  2  0  0  0  0
 11 13  1  0  0  0  0
 12 11  1  0  0  0  0
 14 16  1  0  0  0  0
 14 12  2  0  0  0  0
 15 12  1  0  0  0  0
 16  9  2  0  0  0  0
 17 15  1  0  0  0  0
 17 18  1  0  0  0  0
 18 13  1  0  0  0  0
 19 20  1  0  0  0  0
 20 26  2  0  0  0  0
 21 22  1  0  0  0  0
 21 20  2  0  0  0  0
 22 23  2  0  0  0  0
 23 25  1  0  0  0  0
 23 24  1  0  0  0  0
 26 24  1  0  0  0  0
M  END
>  <Pose>
1

>  <Score>
-8.240

$$$$
