MODEL 1
REMARK VINA RESULT:    -8.240      0.000      0.000
REMARK INTER + INTRA:         -10.628
REMARK INTER:                 -10.167
REMARK INTRA:                  -0.461
REMARK UNBOUND:                -0.461
REMARK  4 active torsions:
REMARK  status: ('A' for Active; 'I' for Inactive)
REMARK    1  A    between atoms: S_1  and  N_4 
REMARK    2  A    between atoms: S_1  and  C_17 
REMARK    3  A    between atoms: C_6  and  O_9 
REMARK    4  A    between atoms: O_9  and  C_10 
ROOT
ATOM      1  N   UNK d   1      20.441  34.001  69.960  0.00  0.00    -0.204 NA
ATOM      2  C   UNK d   1      19.470  33.018  70.325  0.00  0.00     0.140 C 
ATOM      3  C   UNK d   1      20.221  31.780  70.785  0.00  0.00     0.147 C 
ATOM      4  C   UNK d   1      21.518  32.377  71.293  0.00  0.00     0.049 C 
ATOM      5  C   UNK d   1      21.741  33.493  70.265  0.00  0.00     0.110 C 
ENDROOT
BRANCH   1   6
ATOM      6  S   UNK d   1      20.130  35.536  70.675  0.00  0.00     0.243 S 
ATOM      7  O   UNK d   1      21.111  36.542  70.175  0.00  0.00    -0.206 OA
ATOM      8  O   UNK d   1      20.305  35.387  72.163  0.00  0.00    -0.206 OA
BRANCH   6   9
ATOM      9  C   UNK d   1      18.502  36.083  70.350  0.00  0.00     0.077 A 
ATOM     10  C   UNK d   1      17.418  35.360  70.804  0.00  0.00     0.064 A 
ATOM     11  C   UNK d   1      16.109  35.749  70.574  0.00  0.00     0.103 A 
ATOM     12  C   UNK d   1      15.852  36.907  69.864  0.00  0.00     0.102 A 
ATOM     13  O   UNK d   1      15.021  35.036  71.022  0.00  0.00    -0.346 OA
ATOM     14  C   UNK d   1      16.934  37.621  69.417  0.00  0.00     0.041 A 
ATOM     15  O   UNK d   1      14.528  37.261  69.658  0.00  0.00    -0.346 OA
ATOM     16  C   UNK d   1      18.238  37.237  69.644  0.00  0.00     0.028 A 
ATOM     17  C   UNK d   1      13.462  36.328  69.654  0.00  0.00     0.202 C 
ATOM     18  C   UNK d   1      13.711  35.140  70.546  0.00  0.00     0.202 C 
ENDBRANCH   6   9
ENDBRANCH   1   6
BRANCH   3  19
ATOM     19  O   UNK d   1      19.519  31.238  71.891  0.00  0.00    -0.312 OA
BRANCH  19  20
ATOM     20  C   UNK d   1      18.150  31.390  72.038  0.00  0.00     0.268 A 
ATOM     21  N   UNK d   1      17.374  30.532  71.315  0.00  0.00    -0.218 NA
ATOM     22  C   UNK d   1      16.042  30.655  71.438  0.00  0.00     0.146 A 
ATOM     23  C   UNK d   1      15.457  31.602  72.254  0.00  0.00     0.069 A 
ATOM     24  C   UNK d   1      16.292  32.444  72.963  0.00  0.00     0.146 A 
ATOM     25 Cl   UNK d   1      13.718  31.752  72.404  0.00  0.00    -0.081 Cl
ATOM     26  N   UNK d   1      17.631  32.319  72.839  0.00  0.00    -0.218 NA
ENDBRANCH  19  20
ENDBRANCH   3  19
TORSDOF 4
ENDMDL
