/Users/jonathanwahrer/Desktop/Msc/3_Semester/Drug_Design_Praktikum/waehrer_HTS_screening/HTS_experiment/out/docking_results/vina_output/4x21/1863_docked.pdbqt
 OpenBabel03212202443D

 33 36  0  0  0  0  0  0  0  0999 V2000
   17.4000   35.5730   70.6900 N   0  0  0  0  0  0  0  0  0  0  0  0
   16.0550   35.4000   70.5750 C   0  0  0  0  0  0  0  0  0  0  0  0
   15.7910   34.0680   70.7610 C   0  0  0  0  0  0  0  0  0  0  0  0
   16.9690   33.4860   70.9810 N   0  0  0  0  0  0  0  0  0  0  0  0
   17.9790   34.3960   70.9400 C   0  0  0  0  0  0  0  0  0  0  0  0
   14.5160   33.6500   70.6770 N   0  0  0  0  0  0  0  0  0  0  0  0
   13.4980   34.5120   70.4110 C   0  0  0  0  0  0  0  0  0  0  0  0
   12.2900   34.1260   70.3290 O   0  0  0  0  0  0  0  0  0  0  0  0
   13.7260   35.8230   70.2220 N   0  0  0  0  0  0  0  0  0  0  0  0
   14.9910   36.2580   70.3030 C   0  0  0  0  0  0  0  0  0  0  0  0
   15.1700   37.4820   70.1200 O   0  0  0  0  0  0  0  0  0  0  0  0
   14.1890   32.2600   70.8610 C   0  0  0  0  0  1  0  0  0  0  0  0
   12.9270   36.4940   70.0140 H   0  0  0  0  0  0  0  0  0  0  0  0
   19.3760   34.0700   71.0970 N   0  0  0  0  0  0  0  0  0  0  0  0
   19.7700   32.7810   70.5790 C   0  0  0  0  0  2  0  0  0  0  0  0
   21.2500   32.5130   70.6830 C   0  0  0  0  0  2  0  0  0  0  0  0
   21.9360   33.6630   70.2200 N   0  0  0  0  0  0  0  0  0  0  0  0
   21.7110   34.7970   71.0530 C   0  0  0  0  0  2  0  0  0  0  0  0
   20.3640   34.8920   71.7060 C   0  0  0  0  0  2  0  0  0  0  0  0
   21.6770   33.8900   68.8320 C   0  0  0  0  0  2  0  0  0  0  0  0
   22.8950   33.8490   67.9720 C   0  0  0  0  0  0  0  0  0  0  0  0
   23.0510   33.0710   67.0180 O   0  0  0  0  0  0  0  0  0  0  0  0
   23.9170   34.7930   68.3230 N   0  0  0  0  0  0  0  0  0  0  0  0
   24.6040   34.6010   69.0860 H   0  0  0  0  0  0  0  0  0  0  0  0
   23.9660   35.6710   67.8100 H   0  0  0  0  0  0  0  0  0  0  0  0
   18.0360   36.8430   70.5810 C   0  0  0  0  0  2  0  0  0  0  0  0
   18.3730   37.2790   69.2010 C   0  0  0  0  0  0  0  0  0  0  0  0
   19.6480   36.9670   68.7040 C   0  0  0  0  0  3  0  0  0  0  0  0
   20.0690   37.3220   67.4540 C   0  0  0  0  0  0  0  0  0  0  0  0
   21.6640   36.9280   66.8190 Cl  0  0  0  0  0  0  0  0  0  0  0  0
   19.2140   38.0230   66.6300 C   0  0  0  0  0  3  0  0  0  0  0  0
   17.9580   38.3340   67.1100 C   0  0  0  0  0  3  0  0  0  0  0  0
   17.5350   37.9700   68.3800 C   0  0  0  0  0  3  0  0  0  0  0  0
  1  5  1  0  0  0  0
  2  1  1  0  0  0  0
  2  3  2  0  0  0  0
  3  4  1  0  0  0  0
  5  4  2  0  0  0  0
  5 14  1  0  0  0  0
  6  3  1  0  0  0  0
  6 12  1  0  0  0  0
  7  6  1  0  0  0  0
  8  7  2  0  0  0  0
  9 10  1  0  0  0  0
  9  7  1  0  0  0  0
 10  2  1  0  0  0  0
 11 10  2  0  0  0  0
 13  9  1  0  0  0  0
 14 19  1  0  0  0  0
 15 16  1  0  0  0  0
 15 14  1  0  0  0  0
 17 16  1  0  0  0  0
 17 18  1  0  0  0  0
 18 19  1  0  0  0  0
 20 17  1  0  0  0  0
 21 23  1  0  0  0  0
 21 20  1  0  0  0  0
 22 21  2  0  0  0  0
 23 24  1  0  0  0  0
 25 23  1  0  0  0  0
 26  1  1  0  0  0  0
 27 26  1  0  0  0  0
 28 27  1  0  0  0  0
 29 28  2  0  0  0  0
 30 29  1  0  0  0  0
 31 32  2  0  0  0  0
 31 29  1  0  0  0  0
 32 33  1  0  0  0  0
 33 27  2  0  0  0  0
M  END
>  <Pose>
1

>  <Score>
-8.817

$$$$
