MODEL 1
REMARK VINA RESULT:    -8.817      0.000      0.000
REMARK INTER + INTRA:         -12.084
REMARK INTER:                 -11.394
REMARK INTRA:                  -0.690
REMARK UNBOUND:                -0.690
REMARK  5 active torsions:
REMARK  status: ('A' for Active; 'I' for Inactive)
REMARK    1  A    between atoms: C_4  and  C_8 
REMARK    2  A    between atoms: C_8  and  N_9 
REMARK    3  A    between atoms: C_13  and  N_14 
REMARK    4  A    between atoms: N_17  and  C_20 
REMARK    5  A    between atoms: C_20  and  C_21 
REMARK       I    between atoms: C_21  and  N_23 
ROOT
ATOM      1  N   UNK d   1      17.400  35.573  70.690  0.00  0.00    -0.168 N 
ATOM      2  C   UNK d   1      16.055  35.400  70.575  0.00  0.00     0.167 A 
ATOM      3  C   UNK d   1      15.791  34.068  70.761  0.00  0.00     0.185 A 
ATOM      4  N   UNK d   1      16.969  33.486  70.981  0.00  0.00    -0.044 NA
ATOM      5  C   UNK d   1      17.979  34.396  70.940  0.00  0.00     0.707 A 
ATOM      6  N   UNK d   1      14.516  33.650  70.677  0.00  0.00    -0.286 N 
ATOM      7  C   UNK d   1      13.498  34.512  70.411  0.00  0.00     0.330 A 
ATOM      8  O   UNK d   1      12.290  34.126  70.329  0.00  0.00    -0.246 OA
ATOM      9  N   UNK d   1      13.726  35.823  70.222  0.00  0.00    -0.273 N 
ATOM     10  C   UNK d   1      14.991  36.258  70.303  0.00  0.00     0.280 A 
ATOM     11  O   UNK d   1      15.170  37.482  70.120  0.00  0.00    -0.265 OA
ATOM     12  C   UNK d   1      14.189  32.260  70.861  0.00  0.00     0.163 C 
ATOM     13  H   UNK d   1      12.927  36.494  70.014  0.00  0.00     0.173 HD
ENDROOT
BRANCH   5  14
ATOM     14  N   UNK d   1      19.376  34.070  71.097  0.00  0.00    -0.212 N 
ATOM     15  C   UNK d   1      19.770  32.781  70.579  0.00  0.00     0.171 C 
ATOM     16  C   UNK d   1      21.250  32.513  70.683  0.00  0.00     0.293 C 
ATOM     17  N   UNK d   1      21.936  33.663  70.220  0.00  0.00     0.100 N 
ATOM     18  C   UNK d   1      21.711  34.797  71.053  0.00  0.00     0.293 C 
ATOM     19  C   UNK d   1      20.364  34.892  71.706  0.00  0.00     0.171 C 
BRANCH  17  20
ATOM     20  C   UNK d   1      21.677  33.890  68.832  0.00  0.00     0.374 C 
BRANCH  20  21
ATOM     21  C   UNK d   1      22.895  33.849  67.972  0.00  0.00     0.243 C 
ATOM     22  O   UNK d   1      23.051  33.071  67.018  0.00  0.00    -0.272 OA
ATOM     23  N   UNK d   1      23.917  34.793  68.323  0.00  0.00    -0.369 N 
ATOM     24  H   UNK d   1      24.604  34.601  69.086  0.00  0.00     0.159 HD
ATOM     25  H   UNK d   1      23.966  35.671  67.810  0.00  0.00     0.159 HD
ENDBRANCH  20  21
ENDBRANCH  17  20
ENDBRANCH   5  14
BRANCH   1  26
ATOM     26  C   UNK d   1      18.036  36.843  70.581  0.00  0.00     0.186 C 
BRANCH  26  27
ATOM     27  C   UNK d   1      18.373  37.279  69.201  0.00  0.00    -0.038 A 
ATOM     28  C   UNK d   1      19.648  36.967  68.704  0.00  0.00     0.032 A 
ATOM     29  C   UNK d   1      20.069  37.322  67.454  0.00  0.00     0.034 A 
ATOM     30 Cl   UNK d   1      21.664  36.928  66.819  0.00  0.00    -0.084 Cl
ATOM     31  C   UNK d   1      19.214  38.023  66.630  0.00  0.00     0.024 A 
ATOM     32  C   UNK d   1      17.958  38.334  67.110  0.00  0.00     0.002 A 
ATOM     33  C   UNK d   1      17.535  37.970  68.380  0.00  0.00     0.009 A 
ENDBRANCH  26  27
ENDBRANCH   1  26
TORSDOF 5
ENDMDL
