MODEL 1
REMARK VINA RESULT:    -8.815      0.000      0.000
REMARK INTER + INTRA:         -11.461
REMARK INTER:                 -10.361
REMARK INTRA:                  -1.100
REMARK UNBOUND:                -1.100
REMARK  3 active torsions:
REMARK  status: ('A' for Active; 'I' for Inactive)
REMARK    1  A    between atoms: C_4  and  C_8 
REMARK    2  A    between atoms: C_8  and  N_9 
REMARK       I    between atoms: N_16  and  C_19 
REMARK    3  A    between atoms: C_19  and  C_21 
ROOT
ATOM      1  N   UNK d   1      20.160  34.053  71.894  0.00  0.00    -0.264 N 
ATOM      2  C   UNK d   1      21.076  33.017  71.509  0.00  0.00     0.326 C 
ATOM      3  O   UNK d   1      22.253  33.217  71.060  0.00  0.00    -0.247 OA
ATOM      4  N   UNK d   1      20.457  31.749  71.713  0.00  0.00    -0.324 N 
ATOM      5  C   UNK d   1      19.034  32.010  71.733  0.00  0.00     0.119 C 
ATOM      6  C   UNK d   1      18.592  32.153  70.289  0.00  0.00     0.061 C 
ATOM      7  C   UNK d   1      17.236  32.849  70.330  0.00  0.00     0.129 C 
ATOM      8  N   UNK d   1      16.375  32.203  71.301  0.00  0.00    -0.346 N 
ATOM      9  C   UNK d   1      16.812  30.995  71.950  0.00  0.00     0.129 C 
ATOM     10  C   UNK d   1      18.226  31.003  72.431  0.00  0.00     0.061 C 
ATOM     11  C   UNK d   1      15.105  32.762  71.601  0.00  0.00     0.273 C 
ATOM     12  O   UNK d   1      14.356  32.193  72.457  0.00  0.00    -0.266 OA
ATOM     13  C   UNK d   1      18.987  33.369  72.328  0.00  0.00     0.256 C 
ATOM     14  O   UNK d   1      18.120  33.892  73.078  0.00  0.00    -0.270 OA
ATOM     15  H   UNK d   1      20.924  30.830  71.824  0.00  0.00     0.165 HD
ENDROOT
BRANCH   1  16
ATOM     16  C   UNK d   1      20.362  35.482  71.857  0.00  0.00     0.175 C 
BRANCH  16  17
ATOM     17  C   UNK d   1      20.032  36.074  70.543  0.00  0.00    -0.038 A 
ATOM     18  C   UNK d   1      18.816  36.673  70.310  0.00  0.00     0.032 A 
ATOM     19  C   UNK d   1      18.471  37.235  69.098  0.00  0.00     0.034 A 
ATOM     20 Cl   UNK d   1      16.920  37.996  68.809  0.00  0.00    -0.084 Cl
ATOM     21  C   UNK d   1      19.414  37.178  68.091  0.00  0.00     0.024 A 
ATOM     22  C   UNK d   1      20.638  36.580  68.311  0.00  0.00     0.002 A 
ATOM     23  C   UNK d   1      20.966  36.021  69.534  0.00  0.00     0.009 A 
ENDBRANCH  16  17
ENDBRANCH   1  16
BRANCH  11  24
ATOM     24  C   UNK d   1      14.594  33.970  70.977  0.00  0.00     0.141 A 
ATOM     25  N   UNK d   1      14.995  35.204  71.343  0.00  0.00    -0.253 NA
ATOM     26  C   UNK d   1      14.479  36.279  70.722  0.00  0.00     0.136 A 
ATOM     27  C   UNK d   1      13.545  36.174  69.714  0.00  0.00     0.135 A 
ATOM     28  N   UNK d   1      13.142  34.948  69.348  0.00  0.00    -0.269 NA
ATOM     29  C   UNK d   1      13.662  33.857  69.972  0.00  0.00     0.153 A 
ENDBRANCH  11  24
TORSDOF 3
ENDMDL
