MODEL 1
REMARK VINA RESULT:    -8.093      0.000      0.000
REMARK INTER + INTRA:          -8.977
REMARK INTER:                  -9.749
REMARK INTRA:                   0.772
REMARK UNBOUND:                 0.772
REMARK  4 active torsions:
REMARK  status: ('A' for Active; 'I' for Inactive)
REMARK    1  A    between atoms: C_5  and  C_8 
REMARK    2  A    between atoms: C_8  and  O_26 
REMARK    3  A    between atoms: N_9  and  C_18 
REMARK    4  A    between atoms: C_21  and  O_24 
ROOT
ATOM      1  C   UNK d   1      20.264  35.500  71.073  0.00  0.00     0.287 C 
ATOM      2  N   UNK d   1      18.885  35.204  71.082  0.00  0.00     0.042 N 
ATOM      3  C   UNK d   1      18.174  36.137  70.315  0.00  0.00     0.210 C 
ATOM      4  C   UNK d   1      16.951  36.486  70.000  0.00  0.00     0.030 C 
ATOM      5  C   UNK d   1      16.679  37.607  69.093  0.00  0.00     0.032 C 
ATOM      6  C   UNK d   1      17.737  38.142  68.245  0.00  0.00     0.024 C 
ATOM      7  C   UNK d   1      19.109  37.558  68.476  0.00  0.00     0.125 C 
ATOM      8  N   UNK d   1      19.219  36.995  69.775  0.00  0.00    -0.351 N 
ATOM      9  C   UNK d   1      20.189  37.022  70.862  0.00  0.00     0.151 C 
ATOM     10  C   UNK d   1      21.439  37.673  70.440  0.00  0.00     0.038 C 
ATOM     11  H   UNK d   1      18.596  35.547  72.106  0.00  0.00     0.299 HD
ENDROOT
BRANCH   1  12
ATOM     12  C   UNK d   1      21.106  34.907  70.036  0.00  0.00     0.008 A 
ATOM     13  C   UNK d   1      22.193  34.152  70.391  0.00  0.00     0.014 A 
ATOM     14  C   UNK d   1      23.037  33.581  69.441  0.00  0.00     0.024 A 
ATOM     15  C   UNK d   1      22.757  33.793  68.098  0.00  0.00     0.034 A 
ATOM     16 Cl   UNK d   1      23.760  33.119  66.827  0.00  0.00    -0.084 Cl
ATOM     17  C   UNK d   1      21.657  34.555  67.757  0.00  0.00     0.024 A 
ATOM     18  C   UNK d   1      20.822  35.121  68.699  0.00  0.00     0.014 A 
ENDBRANCH   1  12
BRANCH   1  19
ATOM     19  O   UNK d   1      20.789  35.332  72.334  0.00  0.00    -0.359 OA
ATOM     20  H   UNK d   1      20.545  34.518  72.810  0.00  0.00     0.213 HD
ENDBRANCH   1  19
BRANCH   2  21
ATOM     21  C   UNK d   1      18.504  33.868  71.166  0.00  0.00     0.146 A 
ATOM     22  C   UNK d   1      17.986  33.434  72.375  0.00  0.00     0.041 A 
ATOM     23  C   UNK d   1      17.584  32.138  72.592  0.00  0.00     0.039 A 
ATOM     24  C   UNK d   1      17.671  31.162  71.595  0.00  0.00     0.068 A 
ATOM     25  C   UNK d   1      18.189  31.619  70.409  0.00  0.00     0.039 A 
ATOM     26  C   UNK d   1      18.589  32.916  70.199  0.00  0.00     0.041 A 
BRANCH  24  27
ATOM     27  O   UNK d   1      17.260  29.863  71.824  0.00  0.00    -0.356 OA
ATOM     28  C   UNK d   1      15.935  29.614  72.219  0.00  0.00     0.210 C 
ENDBRANCH  24  27
ENDBRANCH   2  21
TORSDOF 4
ENDMDL
