/Users/jonathanwahrer/Desktop/Msc/3_Semester/Drug_Design_Praktikum/waehrer_HTS_screening/HTS_experiment/out/docking_results/vina_output/4x21/1893_docked.pdbqt
 OpenBabel03212202443D

 28 31  0  0  0  0  0  0  0  0999 V2000
   15.0120   33.3440   71.3160 N   0  0  0  0  0  0  0  0  0  0  0  0
   15.6960   34.5120   71.3320 C   0  0  0  0  0  0  0  0  0  0  0  0
   16.8200   34.6610   71.8780 O   0  0  0  0  0  0  0  0  0  0  0  0
   14.9940   35.5070   70.6710 C   0  0  0  0  0  0  0  0  0  0  0  0
   13.8730   34.9440   70.2500 C   0  0  0  0  0  0  0  0  0  0  0  0
   13.1920   35.9160   69.6070 N   0  0  0  0  0  0  0  0  0  0  0  0
   13.9080   37.0470   69.6510 N   0  0  0  0  0  0  0  0  0  0  0  0
   15.0290   36.8020   70.3100 N   0  0  0  0  0  0  0  0  0  0  0  0
   13.8820   33.6210   70.6430 C   0  0  0  0  0  0  0  0  0  0  0  0
   12.9550   32.8190   70.3930 O   0  0  0  0  0  0  0  0  0  0  0  0
   12.2650   35.7980   69.1570 H   0  0  0  0  0  0  0  0  0  0  0  0
   13.6670   37.9790   69.2520 H   0  0  0  0  0  0  0  0  0  0  0  0
   16.0940   37.7420   70.5910 C   0  0  0  0  0  2  0  0  0  0  0  0
   17.2280   37.6350   69.6390 C   0  0  0  0  0  0  0  0  0  0  0  0
   18.4500   37.0840   69.9510 C   0  0  0  0  0  3  0  0  0  0  0  0
   19.5020   36.9860   69.0620 C   0  0  0  0  0  0  0  0  0  0  0  0
   19.3350   37.4640   67.7850 C   0  0  0  0  0  3  0  0  0  0  0  0
   18.1300   38.0240   67.4300 C   0  0  0  0  0  3  0  0  0  0  0  0
   17.0910   38.1090   68.3420 C   0  0  0  0  0  3  0  0  0  0  0  0
   20.7050   36.4060   69.4840 O   0  0  0  0  0  0  0  0  0  0  0  0
   20.9000   36.0000   70.8230 C   0  0  0  0  0  1  0  0  0  0  0  0
   15.4140   32.1180   71.8870 C   0  0  0  0  0  0  0  0  0  0  0  0
   14.8960   31.6730   73.0850 C   0  0  0  0  0  3  0  0  0  0  0  0
   15.2740   30.4760   73.6660 C   0  0  0  0  0  3  0  0  0  0  0  0
   16.2100   29.7000   73.0130 C   0  0  0  0  0  0  0  0  0  0  0  0
   16.7430   28.1580   73.6920 Cl  0  0  0  0  0  0  0  0  0  0  0  0
   16.7580   30.1020   71.8120 C   0  0  0  0  0  3  0  0  0  0  0  0
   16.3480   31.3140   71.2650 C   0  0  0  0  0  3  0  0  0  0  0  0
  1  2  1  0  0  0  0
  1 22  1  0  0  0  0
  2  3  2  0  0  0  0
  4  2  1  0  0  0  0
  5  9  1  0  0  0  0
  5  4  2  0  0  0  0
  6  7  1  0  0  0  0
  6  5  1  0  0  0  0
  7  8  1  0  0  0  0
  8 13  1  0  0  0  0
  8  4  1  0  0  0  0
  9  1  1  0  0  0  0
 10  9  2  0  0  0  0
 11  6  1  0  0  0  0
 12  7  1  0  0  0  0
 14 15  1  0  0  0  0
 14 13  1  0  0  0  0
 16 20  1  0  0  0  0
 16 15  2  0  0  0  0
 17 16  1  0  0  0  0
 18 17  2  0  0  0  0
 18 19  1  0  0  0  0
 19 14  2  0  0  0  0
 20 21  1  0  0  0  0
 22 23  1  0  0  0  0
 23 24  2  0  0  0  0
 25 24  1  0  0  0  0
 25 26  1  0  0  0  0
 27 25  2  0  0  0  0
 28 27  1  0  0  0  0
 28 22  2  0  0  0  0
M  END
>  <Pose>
1

>  <Score>
-9.031

$$$$
