MODEL 1
REMARK VINA RESULT:    -9.031      0.000      0.000
REMARK INTER + INTRA:         -12.060
REMARK INTER:                 -11.143
REMARK INTRA:                  -0.917
REMARK UNBOUND:                -0.917
REMARK  4 active torsions:
REMARK  status: ('A' for Active; 'I' for Inactive)
REMARK    1  A    between atoms: C_5  and  N_8 
REMARK    2  A    between atoms: N_15  and  C_16 
REMARK    3  A    between atoms: C_16  and  C_17 
REMARK    4  A    between atoms: C_19  and  O_23 
ROOT
ATOM      1  N   UNK d   1      15.012  33.344  71.316  0.00  0.00    -0.241 N 
ATOM      2  C   UNK d   1      15.696  34.512  71.332  0.00  0.00     0.286 A 
ATOM      3  O   UNK d   1      16.820  34.661  71.878  0.00  0.00    -0.265 OA
ATOM      4  C   UNK d   1      14.994  35.507  70.671  0.00  0.00     0.154 A 
ATOM      5  C   UNK d   1      13.873  34.944  70.250  0.00  0.00     0.152 A 
ATOM      6  N   UNK d   1      13.192  35.916  69.607  0.00  0.00    -0.279 N 
ATOM      7  N   UNK d   1      13.908  37.047  69.651  0.00  0.00    -0.239 N 
ATOM      8  N   UNK d   1      15.029  36.802  70.310  0.00  0.00    -0.266 N 
ATOM      9  C   UNK d   1      13.882  33.621  70.643  0.00  0.00     0.286 A 
ATOM     10  O   UNK d   1      12.955  32.819  70.393  0.00  0.00    -0.265 OA
ATOM     11  H   UNK d   1      12.265  35.798  69.157  0.00  0.00     0.189 HD
ATOM     12  H   UNK d   1      13.667  37.979  69.252  0.00  0.00     0.208 HD
ENDROOT
BRANCH   8  13
ATOM     13  C   UNK d   1      16.094  37.742  70.591  0.00  0.00     0.189 C 
BRANCH  13  14
ATOM     14  C   UNK d   1      17.228  37.635  69.639  0.00  0.00    -0.036 A 
ATOM     15  C   UNK d   1      18.450  37.084  69.951  0.00  0.00     0.045 A 
ATOM     16  C   UNK d   1      19.502  36.986  69.062  0.00  0.00     0.068 A 
ATOM     17  C   UNK d   1      19.335  37.464  67.785  0.00  0.00     0.037 A 
ATOM     18  C   UNK d   1      18.130  38.024  67.430  0.00  0.00     0.003 A 
ATOM     19  C   UNK d   1      17.091  38.109  68.342  0.00  0.00     0.009 A 
BRANCH  16  20
ATOM     20  O   UNK d   1      20.705  36.406  69.484  0.00  0.00    -0.356 OA
ATOM     21  C   UNK d   1      20.900  36.000  70.823  0.00  0.00     0.210 C 
ENDBRANCH  16  20
ENDBRANCH  13  14
ENDBRANCH   8  13
BRANCH   1  22
ATOM     22  C   UNK d   1      15.414  32.118  71.887  0.00  0.00     0.046 A 
ATOM     23  C   UNK d   1      14.896  31.673  73.085  0.00  0.00     0.032 A 
ATOM     24  C   UNK d   1      15.274  30.476  73.666  0.00  0.00     0.026 A 
ATOM     25  C   UNK d   1      16.210  29.700  73.013  0.00  0.00     0.034 A 
ATOM     26 Cl   UNK d   1      16.743  28.158  73.692  0.00  0.00    -0.084 Cl
ATOM     27  C   UNK d   1      16.758  30.102  71.812  0.00  0.00     0.026 A 
ATOM     28  C   UNK d   1      16.348  31.314  71.265  0.00  0.00     0.032 A 
ENDBRANCH   1  22
TORSDOF 4
ENDMDL
