MODEL 1
REMARK VINA RESULT:    -9.055      0.000      0.000
REMARK INTER + INTRA:         -11.407
REMARK INTER:                 -10.642
REMARK INTRA:                  -0.764
REMARK UNBOUND:                -0.764
REMARK  3 active torsions:
REMARK  status: ('A' for Active; 'I' for Inactive)
REMARK    1  A    between atoms: C_5  and  N_8 
REMARK    2  A    between atoms: N_15  and  C_16 
REMARK    3  A    between atoms: C_16  and  C_17 
ROOT
ATOM      1  N   UNK d   1      14.968  33.317  71.291  0.00  0.00    -0.241 N 
ATOM      2  C   UNK d   1      15.644  34.488  71.299  0.00  0.00     0.286 A 
ATOM      3  O   UNK d   1      16.762  34.647  71.833  0.00  0.00    -0.265 OA
ATOM      4  C   UNK d   1      14.933  35.476  70.639  0.00  0.00     0.154 A 
ATOM      5  C   UNK d   1      13.801  34.893  70.220  0.00  0.00     0.152 A 
ATOM      6  N   UNK d   1      13.119  35.859  69.580  0.00  0.00    -0.279 N 
ATOM      7  N   UNK d   1      13.812  36.984  69.609  0.00  0.00    -0.239 N 
ATOM      8  N   UNK d   1      14.934  36.764  70.259  0.00  0.00    -0.266 N 
ATOM      9  C   UNK d   1      13.835  33.576  70.626  0.00  0.00     0.286 A 
ATOM     10  O   UNK d   1      12.925  32.732  70.400  0.00  0.00    -0.265 OA
ATOM     11  H   UNK d   1      12.189  35.771  69.120  0.00  0.00     0.189 HD
ATOM     12  H   UNK d   1      13.520  37.912  69.183  0.00  0.00     0.208 HD
ENDROOT
BRANCH   1  13
ATOM     13  C   UNK d   1      15.373  32.077  71.867  0.00  0.00     0.046 A 
ATOM     14  C   UNK d   1      16.302  31.267  71.248  0.00  0.00     0.032 A 
ATOM     15  C   UNK d   1      16.700  30.064  71.799  0.00  0.00     0.026 A 
ATOM     16  C   UNK d   1      16.181  29.620  72.997  0.00  0.00     0.034 A 
ATOM     17 Cl   UNK d   1      16.690  28.085  73.697  0.00  0.00    -0.084 Cl
ATOM     18  C   UNK d   1      15.250  30.421  73.625  0.00  0.00     0.026 A 
ATOM     19  C   UNK d   1      14.857  31.622  73.067  0.00  0.00     0.032 A 
ENDBRANCH   1  13
BRANCH   8  20
ATOM     20  C   UNK d   1      15.984  37.718  70.531  0.00  0.00     0.189 C 
BRANCH  20  21
ATOM     21  C   UNK d   1      17.119  37.639  69.587  0.00  0.00    -0.038 A 
ATOM     22  C   UNK d   1      16.981  38.135  68.314  0.00  0.00     0.009 A 
ATOM     23  C   UNK d   1      18.049  38.048  67.451  0.00  0.00     0.001 A 
ATOM     24  C   UNK d   1      19.247  37.477  67.839  0.00  0.00     0.000 A 
ATOM     25  C   UNK d   1      19.387  36.979  69.115  0.00  0.00     0.001 A 
ATOM     26  C   UNK d   1      18.317  37.074  69.961  0.00  0.00     0.009 A 
ENDBRANCH  20  21
ENDBRANCH   8  20
TORSDOF 3
ENDMDL
