/Users/jonathanwahrer/Desktop/Msc/3_Semester/Drug_Design_Praktikum/waehrer_HTS_screening/HTS_experiment/out/docking_results/vina_output/4x21/1894_docked.pdbqt
 OpenBabel03212202443D

 26 29  0  0  0  0  0  0  0  0999 V2000
   14.9680   33.3170   71.2910 N   0  0  0  0  0  0  0  0  0  0  0  0
   15.6440   34.4880   71.2990 C   0  0  0  0  0  0  0  0  0  0  0  0
   16.7620   34.6470   71.8330 O   0  0  0  0  0  0  0  0  0  0  0  0
   14.9330   35.4760   70.6390 C   0  0  0  0  0  0  0  0  0  0  0  0
   13.8010   34.8930   70.2200 C   0  0  0  0  0  0  0  0  0  0  0  0
   13.1190   35.8590   69.5800 N   0  0  0  0  0  0  0  0  0  0  0  0
   13.8120   36.9840   69.6090 N   0  0  0  0  0  0  0  0  0  0  0  0
   14.9340   36.7640   70.2590 N   0  0  0  0  0  0  0  0  0  0  0  0
   13.8350   33.5760   70.6260 C   0  0  0  0  0  0  0  0  0  0  0  0
   12.9250   32.7320   70.4000 O   0  0  0  0  0  0  0  0  0  0  0  0
   12.1890   35.7710   69.1200 H   0  0  0  0  0  0  0  0  0  0  0  0
   13.5200   37.9120   69.1830 H   0  0  0  0  0  0  0  0  0  0  0  0
   15.3730   32.0770   71.8670 C   0  0  0  0  0  0  0  0  0  0  0  0
   16.3020   31.2670   71.2480 C   0  0  0  0  0  3  0  0  0  0  0  0
   16.7000   30.0640   71.7990 C   0  0  0  0  0  3  0  0  0  0  0  0
   16.1810   29.6200   72.9970 C   0  0  0  0  0  0  0  0  0  0  0  0
   16.6900   28.0850   73.6970 Cl  0  0  0  0  0  0  0  0  0  0  0  0
   15.2500   30.4210   73.6250 C   0  0  0  0  0  3  0  0  0  0  0  0
   14.8570   31.6220   73.0670 C   0  0  0  0  0  3  0  0  0  0  0  0
   15.9840   37.7180   70.5310 C   0  0  0  0  0  2  0  0  0  0  0  0
   17.1190   37.6390   69.5870 C   0  0  0  0  0  0  0  0  0  0  0  0
   16.9810   38.1350   68.3140 C   0  0  0  0  0  3  0  0  0  0  0  0
   18.0490   38.0480   67.4510 C   0  0  0  0  0  3  0  0  0  0  0  0
   19.2470   37.4770   67.8390 C   0  0  0  0  0  3  0  0  0  0  0  0
   19.3870   36.9790   69.1150 C   0  0  0  0  0  3  0  0  0  0  0  0
   18.3170   37.0740   69.9610 C   0  0  0  0  0  3  0  0  0  0  0  0
  1  2  1  0  0  0  0
  1 13  1  0  0  0  0
  2  3  2  0  0  0  0
  4  2  1  0  0  0  0
  5  9  1  0  0  0  0
  5  4  2  0  0  0  0
  6  7  1  0  0  0  0
  6  5  1  0  0  0  0
  7  8  1  0  0  0  0
  8 20  1  0  0  0  0
  8  4  1  0  0  0  0
  9  1  1  0  0  0  0
 10  9  2  0  0  0  0
 11  6  1  0  0  0  0
 12  7  1  0  0  0  0
 13 19  1  0  0  0  0
 14 15  1  0  0  0  0
 14 13  2  0  0  0  0
 15 16  2  0  0  0  0
 16 18  1  0  0  0  0
 16 17  1  0  0  0  0
 19 18  2  0  0  0  0
 21 26  1  0  0  0  0
 21 20  1  0  0  0  0
 22 21  2  0  0  0  0
 23 24  2  0  0  0  0
 23 22  1  0  0  0  0
 24 25  1  0  0  0  0
 25 26  2  0  0  0  0
M  END
>  <Pose>
1

>  <Score>
-9.055

$$$$
