MODEL 1
REMARK VINA RESULT:    -9.214      0.000      0.000
REMARK INTER + INTRA:         -11.758
REMARK INTER:                 -10.830
REMARK INTRA:                  -0.928
REMARK UNBOUND:                -0.928
REMARK  3 active torsions:
REMARK  status: ('A' for Active; 'I' for Inactive)
REMARK    1  A    between atoms: S_1  and  N_4 
REMARK    2  A    between atoms: S_1  and  C_26 
REMARK       I    between atoms: N_7  and  C_10 
REMARK    3  A    between atoms: C_12  and  N_13 
ROOT
ATOM      1  N   UNK d   1      21.378  34.349  69.959  0.00  0.00    -0.303 N 
ATOM      2  C   UNK d   1      20.004  34.233  70.256  0.00  0.00     0.155 C 
ATOM      3  C   UNK d   1      19.678  32.728  70.345  0.00  0.00     0.145 C 
ATOM      4  N   UNK d   1      20.355  32.311  71.546  0.00  0.00    -0.358 N 
ATOM      5  C   UNK d   1      21.827  32.393  71.416  0.00  0.00     0.145 C 
ATOM      6  C   UNK d   1      22.303  33.570  70.670  0.00  0.00     0.155 C 
ATOM      7  C   UNK d   1      19.823  31.864  72.754  0.00  0.00     0.172 C 
ATOM      8  O   UNK d   1      20.749  31.575  73.647  0.00  0.00    -0.175 OA
ATOM      9  C   UNK d   1      18.491  31.647  73.256  0.00  0.00     0.224 C 
ENDROOT
BRANCH   9  10
ATOM     10  N   UNK d   1      17.384  31.904  72.385  0.00  0.00    -0.260 N 
ATOM     11  C   UNK d   1      16.736  30.938  71.555  0.00  0.00     0.326 C 
ATOM     12  O   UNK d   1      17.095  29.714  71.485  0.00  0.00    -0.247 OA
ATOM     13  N   UNK d   1      15.681  31.581  70.872  0.00  0.00    -0.324 N 
ATOM     14  C   UNK d   1      15.400  32.837  71.550  0.00  0.00     0.119 C 
ATOM     15  H   UNK d   1      15.181  31.240  70.037  0.00  0.00     0.165 HD
ATOM     16  C   UNK d   1      15.033  33.955  70.638  0.00  0.00     0.019 C 
ATOM     17  C   UNK d   1      14.332  32.549  72.580  0.00  0.00     0.041 C 
ATOM     18  C   UNK d   1      16.709  33.150  72.198  0.00  0.00     0.257 C 
ATOM     19  C   UNK d   1      14.031  34.846  71.379  0.00  0.00     0.007 C 
ATOM     20  C   UNK d   1      16.191  34.850  70.261  0.00  0.00     0.013 C 
ATOM     21  C   UNK d   1      12.725  34.074  71.405  0.00  0.00     0.001 C 
ATOM     22  C   UNK d   1      12.994  32.661  71.864  0.00  0.00     0.003 C 
ATOM     23  O   UNK d   1      17.135  34.277  72.517  0.00  0.00    -0.270 OA
ENDBRANCH   9  10
BRANCH   1  24
ATOM     24  S   UNK d   1      21.897  35.928  69.567  0.00  0.00     0.267 S 
ATOM     25  O   UNK d   1      22.249  36.764  70.733  0.00  0.00    -0.200 OA
ATOM     26  O   UNK d   1      23.107  35.814  68.672  0.00  0.00    -0.200 OA
BRANCH  24  27
ATOM     27  C   UNK d   1      20.592  36.695  68.646  0.00  0.00     0.121 A 
ATOM     28  S   UNK d   1      19.062  37.235  69.163  0.00  0.00    -0.064 SA
ATOM     29  C   UNK d   1      18.464  37.825  67.683  0.00  0.00     0.075 A 
ATOM     30  C   UNK d   1      19.492  37.581  66.811  0.00  0.00     0.033 A 
ATOM     31 Cl   UNK d   1      16.894  38.572  67.349  0.00  0.00    -0.076 Cl
ATOM     32  C   UNK d   1      20.592  36.995  67.316  0.00  0.00     0.035 A 
ENDBRANCH  24  27
ENDBRANCH   1  24
TORSDOF 3
ENDMDL
