/Users/jonathanwahrer/Desktop/Msc/3_Semester/Drug_Design_Praktikum/waehrer_HTS_screening/HTS_experiment/out/docking_results/vina_output/4x21/1895_docked.pdbqt
 OpenBabel03212202453D

 32 35  0  0  1  0  0  0  0  0999 V2000
   21.3780   34.3490   69.9590 N   0  0  0  0  0  0  0  0  0  0  0  0
   20.0040   34.2330   70.2560 C   0  0  0  0  0  2  0  0  0  0  0  0
   19.6780   32.7280   70.3450 C   0  0  0  0  0  2  0  0  0  0  0  0
   20.3550   32.3110   71.5460 N   0  0  0  0  0  0  0  0  0  0  0  0
   21.8270   32.3930   71.4160 C   0  0  0  0  0  2  0  0  0  0  0  0
   22.3030   33.5700   70.6700 C   0  0  0  0  0  2  0  0  0  0  0  0
   19.8230   31.8640   72.7540 C   0  0  0  0  0  0  0  0  0  0  0  0
   20.7490   31.5750   73.6470 O   0  0  0  0  0  0  0  0  0  0  0  0
   18.4910   31.6470   73.2560 C   0  0  0  0  0  2  0  0  0  0  0  0
   17.3840   31.9040   72.3850 N   0  0  0  0  0  0  0  0  0  0  0  0
   16.7360   30.9380   71.5550 C   0  0  0  0  0  0  0  0  0  0  0  0
   17.0950   29.7140   71.4850 O   0  0  0  0  0  0  0  0  0  0  0  0
   15.6810   31.5810   70.8720 N   0  0  0  0  0  0  0  0  0  0  0  0
   15.4000   32.8370   71.5500 C   0  0  1  0  0  0  0  0  0  0  0  0
   15.1810   31.2400   70.0370 H   0  0  0  0  0  0  0  0  0  0  0  0
   15.0330   33.9550   70.6380 C   0  0  1  0  0  3  0  0  0  0  0  0
   14.3320   32.5490   72.5800 C   0  0  0  0  0  2  0  0  0  0  0  0
   16.7090   33.1500   72.1980 C   0  0  0  0  0  0  0  0  0  0  0  0
   14.0310   34.8460   71.3790 C   0  0  0  0  0  2  0  0  0  0  0  0
   16.1910   34.8500   70.2610 C   0  0  0  0  0  1  0  0  0  0  0  0
   12.7250   34.0740   71.4050 C   0  0  0  0  0  2  0  0  0  0  0  0
   12.9940   32.6610   71.8640 C   0  0  0  0  0  2  0  0  0  0  0  0
   17.1350   34.2770   72.5170 O   0  0  0  0  0  0  0  0  0  0  0  0
   21.8970   35.9280   69.5670 S   0  0  0  0  0  0  0  0  0  0  0  0
   22.2490   36.7640   70.7330 O   0  0  0  0  0  0  0  0  0  0  0  0
   23.1070   35.8140   68.6720 O   0  0  0  0  0  0  0  0  0  0  0  0
   20.5920   36.6950   68.6460 C   0  0  0  0  0  0  0  0  0  0  0  0
   19.0620   37.2350   69.1630 S   0  0  0  0  0  0  0  0  0  0  0  0
   18.4640   37.8250   67.6830 C   0  0  0  0  0  0  0  0  0  0  0  0
   19.4920   37.5810   66.8110 C   0  0  0  0  0  3  0  0  0  0  0  0
   16.8940   38.5720   67.3490 Cl  0  0  0  0  0  0  0  0  0  0  0  0
   20.5920   36.9950   67.3160 C   0  0  0  0  0  3  0  0  0  0  0  0
  1  2  1  0  0  0  0
  1  6  1  0  0  0  0
  2  3  1  0  0  0  0
  3  4  1  0  0  0  0
  4  7  1  0  0  0  0
  5  4  1  0  0  0  0
  6  5  1  0  0  0  0
  7  9  1  0  0  0  0
  7  8  2  0  0  0  0
 10  9  1  0  0  0  0
 11 10  1  0  0  0  0
 12 11  2  0  0  0  0
 13 14  1  0  0  0  0
 13 11  1  0  0  0  0
 14 18  1  0  0  0  0
 14 17  1  1  0  0  0
 15 13  1  0  0  0  0
 16 20  1  1  0  0  0
 16 19  1  0  0  0  0
 16 14  1  0  0  0  0
 18 10  1  0  0  0  0
 18 23  2  0  0  0  0
 19 21  1  0  0  0  0
 21 22  1  0  0  0  0
 22 17  1  0  0  0  0
 24  1  1  0  0  0  0
 24 25  2  0  0  0  0
 26 24  2  0  0  0  0
 27 28  1  0  0  0  0
 27 24  1  0  0  0  0
 29 28  1  0  0  0  0
 30 32  1  0  0  0  0
 30 29  2  0  0  0  0
 31 29  1  0  0  0  0
 32 27  2  0  0  0  0
M  END
>  <Pose>
1

>  <Score>
-9.214

$$$$
