MODEL 1
REMARK VINA RESULT:    -8.548      0.000      0.000
REMARK INTER + INTRA:         -13.132
REMARK INTER:                 -11.547
REMARK INTRA:                  -1.585
REMARK UNBOUND:                -1.585
REMARK  6 active torsions:
REMARK  status: ('A' for Active; 'I' for Inactive)
REMARK    1  A    between atoms: C_4  and  O_8 
REMARK    2  A    between atoms: O_8  and  C_9 
REMARK    3  A    between atoms: C_9  and  C_10 
REMARK    4  A    between atoms: C_10  and  C_25 
REMARK       I    between atoms: N_14  and  C_16 
REMARK    5  A    between atoms: C_16  and  C_18 
REMARK    6  A    between atoms: C_25  and  C_26 
REMARK       I    between atoms: C_26  and  N_28 
ROOT
ATOM      1  C   UNK d   1      16.648  31.820  71.965  0.00  0.00     0.107 C 
ATOM      2  O   UNK d   1      15.519  32.429  72.532  0.00  0.00    -0.374 OA
ATOM      3  C   UNK d   1      14.323  31.966  72.057  0.00  0.00     0.189 C 
ATOM      4  C   UNK d   1      13.986  30.556  72.499  0.00  0.00     0.151 C 
ATOM      5  N   UNK d   1      15.291  29.846  72.448  0.00  0.00    -0.353 N 
ATOM      6  C   UNK d   1      16.226  30.400  71.547  0.00  0.00     0.165 C 
ATOM      7  C   UNK d   1      15.464  28.745  73.260  0.00  0.00     0.207 C 
ATOM      8  O   UNK d   1      14.503  28.349  74.041  0.00  0.00    -0.170 OA
ENDROOT
BRANCH   1   9
ATOM      9  C   UNK d   1      16.912  32.560  70.685  0.00  0.00     0.215 C 
BRANCH   9  10
ATOM     10  O   UNK d   1      16.911  33.873  70.643  0.00  0.00    -0.348 OA
BRANCH  10  11
ATOM     11  C   UNK d   1      16.326  35.013  70.422  0.00  0.00     0.070 A 
ATOM     12  C   UNK d   1      14.998  35.178  70.121  0.00  0.00     0.060 A 
ATOM     13  C   UNK d   1      14.481  36.426  69.903  0.00  0.00     0.036 A 
ATOM     14 Cl   UNK d   1      12.768  36.600  69.519  0.00  0.00    -0.084 Cl
ATOM     15  C   UNK d   1      15.266  37.561  69.977  0.00  0.00     0.024 A 
ATOM     16  C   UNK d   1      16.593  37.401  70.279  0.00  0.00     0.004 A 
ATOM     17  C   UNK d   1      17.123  36.172  70.498  0.00  0.00     0.037 A 
ENDBRANCH  10  11
ENDBRANCH   9  10
ENDBRANCH   1   9
BRANCH   1  18
ATOM     18  C   UNK d   1      17.717  31.816  72.959  0.00  0.00     0.144 C 
BRANCH  18  19
ATOM     19  C   UNK d   1      19.094  31.602  72.508  0.00  0.00     0.222 C 
ATOM     20  O   UNK d   1      19.496  30.465  72.195  0.00  0.00    -0.273 OA
ATOM     21  N   UNK d   1      20.019  32.680  72.410  0.00  0.00    -0.348 N 
ATOM     22  C   UNK d   1      19.638  34.045  72.757  0.00  0.00     0.152 C 
ATOM     23  C   UNK d   1      21.382  32.474  71.966  0.00  0.00     0.152 C 
ATOM     24  C   UNK d   1      20.119  34.939  71.634  0.00  0.00     0.187 C 
ATOM     25  O   UNK d   1      21.501  34.783  71.493  0.00  0.00    -0.388 OA
ATOM     26  C   UNK d   1      21.753  33.518  70.963  0.00  0.00     0.187 C 
ENDBRANCH  18  19
ENDBRANCH   1  18
BRANCH   7  27
ATOM     27  C   UNK d   1      16.655  27.955  73.331  0.00  0.00     0.127 A 
ATOM     28  N   UNK d   1      16.868  26.865  72.593  0.00  0.00    -0.253 NA
ATOM     29  C   UNK d   1      17.987  26.117  72.654  0.00  0.00     0.144 A 
ATOM     30  C   UNK d   1      18.998  26.478  73.530  0.00  0.00     0.048 A 
ATOM     31  N   UNK d   1      18.823  27.555  74.279  0.00  0.00    -0.262 NA
ATOM     32  C   UNK d   1      20.208  25.618  73.556  0.00  0.00     0.072 C 
ATOM     33  C   UNK d   1      17.699  28.286  74.202  0.00  0.00     0.153 A 
ENDBRANCH   7  27
TORSDOF 6
ENDMDL
