/Users/jonathanwahrer/Desktop/Msc/3_Semester/Drug_Design_Praktikum/waehrer_HTS_screening/HTS_experiment/out/docking_results/vina_output/4x21/1928_docked.pdbqt
 OpenBabel03212202463D

 28 31  0  0  0  0  0  0  0  0999 V2000
   16.1910   36.3140   70.6360 N   0  0  0  0  0  0  0  0  0  0  0  0
   14.9120   35.9830   70.3630 C   0  0  0  0  0  2  0  0  0  0  0  0
   14.4410   34.7210   70.6240 C   0  0  0  0  0  0  0  0  0  0  0  0
   15.3460   33.7260   71.2090 C   0  0  0  0  0  0  0  0  0  0  0  0
   14.6250   32.5930   71.3570 N   0  0  0  0  0  2  0  0  0  0  0  0
   13.3970   32.7970   70.9270 N   0  0  0  0  0  0  0  0  0  0  0  0
   13.2280   34.0500   70.4790 C   0  0  0  0  0  0  0  0  0  0  0  0
   12.1860   34.5640   70.0060 O   0  0  0  0  0  0  0  0  0  0  0  0
   16.6430   34.1110   71.4720 C   0  0  0  0  0  0  0  0  0  0  0  0
   16.9960   35.3960   71.1670 C   0  0  0  0  0  3  0  0  0  0  0  0
   12.6520   32.0760   70.9370 H   0  0  0  0  0  0  0  0  0  0  0  0
   16.6390   37.6750   70.3360 C   0  0  0  0  0  2  0  0  0  0  0  0
   17.6020   37.6510   69.2170 C   0  0  0  0  0  0  0  0  0  0  0  0
   17.4190   38.2530   68.0680 O   0  0  0  0  0  0  0  0  0  0  0  0
   18.4500   38.0340   67.3080 N   0  0  0  0  0  0  0  0  0  0  0  0
   19.3460   37.2710   67.9520 C   0  0  0  0  0  0  0  0  0  0  0  0
   18.8100   37.0300   69.1570 N   0  0  0  0  0  0  0  0  0  0  0  0
   20.6230   36.8250   67.4120 C   0  0  0  0  0  0  0  0  0  0  0  0
   21.3790   37.6250   66.5890 C   0  0  0  0  0  3  0  0  0  0  0  0
   22.5920   37.2110   66.0710 C   0  0  0  0  0  3  0  0  0  0  0  0
   23.0890   35.9560   66.3710 C   0  0  0  0  0  0  0  0  0  0  0  0
   24.6270   35.4070   65.7260 Cl  0  0  0  0  0  0  0  0  0  0  0  0
   22.3280   35.1450   67.2020 C   0  0  0  0  0  3  0  0  0  0  0  0
   21.1140   35.5710   67.7160 C   0  0  0  0  0  3  0  0  0  0  0  0
   17.5750   33.1450   72.0550 C   0  0  0  0  0  0  0  0  0  0  0  0
   17.5080   32.8450   73.2550 O   0  0  0  0  0  0  0  0  0  0  0  0
   18.5550   32.5430   71.2830 O   0  0  0  0  0  0  0  0  0  0  0  0
   18.3090   31.9510   70.0300 C   0  0  0  0  0  1  0  0  0  0  0  0
  1 10  1  0  0  0  0
  2  3  1  0  0  0  0
  2  1  1  0  0  0  0
  3  4  2  0  0  0  0
  4  5  1  0  0  0  0
  4  9  1  0  0  0  0
  6 11  1  0  0  0  0
  6  5  1  0  0  0  0
  7  3  1  0  0  0  0
  7  6  1  0  0  0  0
  8  7  2  0  0  0  0
  9 25  1  0  0  0  0
 10  9  2  0  0  0  0
 12  1  1  0  0  0  0
 13 12  1  0  0  0  0
 14 13  1  0  0  0  0
 15 16  2  0  0  0  0
 15 14  1  0  0  0  0
 16 17  1  0  0  0  0
 17 13  2  0  0  0  0
 18 24  1  0  0  0  0
 18 16  1  0  0  0  0
 19 18  2  0  0  0  0
 20 21  2  0  0  0  0
 20 19  1  0  0  0  0
 21 23  1  0  0  0  0
 22 21  1  0  0  0  0
 23 24  2  0  0  0  0
 25 26  2  0  0  0  0
 27 25  1  0  0  0  0
 28 27  1  0  0  0  0
M  END
>  <Pose>
1

>  <Score>
-8.643

$$$$
