/Users/jonathanwahrer/Desktop/Msc/3_Semester/Drug_Design_Praktikum/waehrer_HTS_screening/HTS_experiment/out/docking_results/vina_output/4x21/1939_docked.pdbqt
 OpenBabel03212202473D

 28 31  0  0  0  0  0  0  0  0999 V2000
   17.3460   35.7080   70.6470 N   0  0  0  0  0  0  0  0  0  0  0  0
   15.9960   35.6000   70.4590 C   0  0  0  0  0  0  0  0  0  0  0  0
   15.6050   34.2990   70.6240 C   0  0  0  0  0  0  0  0  0  0  0  0
   16.7260   33.6500   70.9080 N   0  0  0  0  0  0  0  0  0  0  0  0
   17.8120   34.4900   70.9290 C   0  0  0  0  0  0  0  0  0  0  0  0
   14.3200   33.9240   70.4850 N   0  0  0  0  0  0  0  0  0  0  0  0
   13.3780   34.8510   70.1710 C   0  0  0  0  0  0  0  0  0  0  0  0
   12.1960   34.4560   70.0520 O   0  0  0  0  0  0  0  0  0  0  0  0
   13.7130   36.1410   69.9980 N   0  0  0  0  0  0  0  0  0  0  0  0
   14.9960   36.5030   70.1390 C   0  0  0  0  0  0  0  0  0  0  0  0
   15.2570   37.7140   69.9660 O   0  0  0  0  0  0  0  0  0  0  0  0
   13.9930   32.5220   70.6790 C   0  0  0  0  0  1  0  0  0  0  0  0
   12.9530   36.8110   69.7580 H   0  0  0  0  0  0  0  0  0  0  0  0
   18.0470   36.9600   70.5350 C   0  0  0  0  0  2  0  0  0  0  0  0
   19.0540   37.0630   69.4820 C   0  0  0  0  0  0  0  0  0  0  0  0
   20.3910   36.9490   69.6790 C   0  0  0  0  0  3  0  0  0  0  0  0
   21.3200   37.1060   68.6470 C   0  0  0  0  0  3  0  0  0  0  0  0
   20.9030   37.3860   67.3800 C   0  0  0  0  0  0  0  0  0  0  0  0
   22.1050   37.5740   66.1220 Cl  0  0  0  0  0  0  0  0  0  0  0  0
   19.5540   37.5100   67.1360 C   0  0  0  0  0  3  0  0  0  0  0  0
   18.6580   37.3510   68.1670 C   0  0  0  0  0  3  0  0  0  0  0  0
   19.1200   34.0320   71.1960 N   0  0  0  0  0  0  0  0  0  0  0  0
   19.6380   34.2110   72.5460 C   0  0  0  0  0  2  0  0  0  0  0  0
   20.4900   32.9480   72.7710 C   0  0  0  0  0  2  0  0  0  0  0  0
   19.9360   31.8030   72.0840 N   0  0  0  0  0  0  0  0  0  0  0  0
   19.9790   31.9050   70.6410 C   0  0  0  0  0  2  0  0  0  0  0  0
   20.5090   30.9870   72.3560 H   0  0  0  0  0  0  0  0  0  0  0  0
   20.0350   33.3920   70.3240 C   0  0  0  0  0  2  0  0  0  0  0  0
  1  5  1  0  0  0  0
  2  3  2  0  0  0  0
  2  1  1  0  0  0  0
  3  4  1  0  0  0  0
  4  5  2  0  0  0  0
  5 22  1  0  0  0  0
  6  3  1  0  0  0  0
  6 12  1  0  0  0  0
  7  6  1  0  0  0  0
  8  7  2  0  0  0  0
  9 10  1  0  0  0  0
  9  7  1  0  0  0  0
 10  2  1  0  0  0  0
 11 10  2  0  0  0  0
 13  9  1  0  0  0  0
 14  1  1  0  0  0  0
 15 16  1  0  0  0  0
 15 14  1  0  0  0  0
 17 16  2  0  0  0  0
 18 17  1  0  0  0  0
 19 18  1  0  0  0  0
 20 18  2  0  0  0  0
 20 21  1  0  0  0  0
 21 15  2  0  0  0  0
 22 23  1  0  0  0  0
 23 24  1  0  0  0  0
 25 27  1  0  0  0  0
 25 24  1  0  0  0  0
 26 25  1  0  0  0  0
 28 26  1  0  0  0  0
 28 22  1  0  0  0  0
M  END
>  <Pose>
1

>  <Score>
-8.298

$$$$
