MODEL 1
REMARK VINA RESULT:    -8.298      0.000      0.000
REMARK INTER + INTRA:         -10.748
REMARK INTER:                  -9.753
REMARK INTRA:                  -0.995
REMARK UNBOUND:                -0.995
REMARK  3 active torsions:
REMARK  status: ('A' for Active; 'I' for Inactive)
REMARK    1  A    between atoms: C_5  and  C_8 
REMARK    2  A    between atoms: C_8  and  N_9 
REMARK    3  A    between atoms: C_13  and  N_14 
ROOT
ATOM      1  N   UNK d   1      17.346  35.708  70.647  0.00  0.00    -0.168 N 
ATOM      2  C   UNK d   1      15.996  35.600  70.459  0.00  0.00     0.167 A 
ATOM      3  C   UNK d   1      15.605  34.299  70.624  0.00  0.00     0.185 A 
ATOM      4  N   UNK d   1      16.726  33.650  70.908  0.00  0.00    -0.044 NA
ATOM      5  C   UNK d   1      17.812  34.490  70.929  0.00  0.00     0.707 A 
ATOM      6  N   UNK d   1      14.320  33.924  70.485  0.00  0.00    -0.286 N 
ATOM      7  C   UNK d   1      13.378  34.851  70.171  0.00  0.00     0.330 A 
ATOM      8  O   UNK d   1      12.196  34.456  70.052  0.00  0.00    -0.246 OA
ATOM      9  N   UNK d   1      13.713  36.141  69.998  0.00  0.00    -0.273 N 
ATOM     10  C   UNK d   1      14.996  36.503  70.139  0.00  0.00     0.280 A 
ATOM     11  O   UNK d   1      15.257  37.714  69.966  0.00  0.00    -0.265 OA
ATOM     12  C   UNK d   1      13.993  32.522  70.679  0.00  0.00     0.163 C 
ATOM     13  H   UNK d   1      12.953  36.811  69.758  0.00  0.00     0.173 HD
ENDROOT
BRANCH   1  14
ATOM     14  C   UNK d   1      18.047  36.960  70.535  0.00  0.00     0.186 C 
BRANCH  14  15
ATOM     15  C   UNK d   1      19.054  37.063  69.482  0.00  0.00    -0.039 A 
ATOM     16  C   UNK d   1      20.391  36.949  69.679  0.00  0.00     0.010 A 
ATOM     17  C   UNK d   1      21.320  37.106  68.647  0.00  0.00     0.024 A 
ATOM     18  C   UNK d   1      20.903  37.386  67.380  0.00  0.00     0.034 A 
ATOM     19 Cl   UNK d   1      22.105  37.574  66.122  0.00  0.00    -0.084 Cl
ATOM     20  C   UNK d   1      19.554  37.510  67.136  0.00  0.00     0.024 A 
ATOM     21  C   UNK d   1      18.658  37.351  68.167  0.00  0.00     0.010 A 
ENDBRANCH  14  15
ENDBRANCH   1  14
BRANCH   5  22
ATOM     22  N   UNK d   1      19.120  34.032  71.196  0.00  0.00    -0.212 N 
ATOM     23  C   UNK d   1      19.638  34.211  72.546  0.00  0.00     0.171 C 
ATOM     24  C   UNK d   1      20.490  32.948  72.771  0.00  0.00     0.290 C 
ATOM     25  N   UNK d   1      19.936  31.803  72.084  0.00  0.00     0.086 N 
ATOM     26  C   UNK d   1      19.979  31.905  70.641  0.00  0.00     0.290 C 
ATOM     27  H   UNK d   1      20.509  30.987  72.356  0.00  0.00     0.316 HD
ATOM     28  C   UNK d   1      20.035  33.392  70.324  0.00  0.00     0.171 C 
ENDBRANCH   5  22
TORSDOF 3
ENDMDL
