MODEL 1
REMARK VINA RESULT:    -7.904      0.000      0.000
REMARK INTER + INTRA:         -10.897
REMARK INTER:                 -10.214
REMARK INTRA:                  -0.683
REMARK UNBOUND:                -0.683
REMARK  5 active torsions:
REMARK  status: ('A' for Active; 'I' for Inactive)
REMARK    1  A    between atoms: C_5  and  C_8 
REMARK    2  A    between atoms: N_9  and  C_22 
REMARK    3  A    between atoms: C_15  and  C_17 
REMARK    4  A    between atoms: C_22  and  C_23 
REMARK    5  A    between atoms: C_23  and  N_24 
ROOT
ATOM      1  C   UNK d   1      16.306  32.752  72.816  0.00  0.00     0.161 C 
ATOM      2  N   UNK d   1      15.797  31.378  72.714  0.00  0.00    -0.331 N 
ATOM      3  C   UNK d   1      16.099  30.962  71.395  0.00  0.00     0.295 C 
ATOM      4  O   UNK d   1      15.464  30.126  70.710  0.00  0.00    -0.264 OA
ATOM      5  C   UNK d   1      17.306  31.701  70.978  0.00  0.00     0.251 C 
ATOM      6  O   UNK d   1      17.908  31.632  69.882  0.00  0.00    -0.282 OA
ATOM      7  C   UNK d   1      17.642  32.533  72.124  0.00  0.00     0.064 C 
ATOM      8  C   UNK d   1      18.807  32.964  72.463  0.00  0.00     0.153 C 
ATOM      9  O   UNK d   1      18.982  33.746  73.603  0.00  0.00    -0.188 OA
ENDROOT
BRANCH   2  10
ATOM     10  C   UNK d   1      15.119  30.633  73.765  0.00  0.00     0.155 C 
BRANCH  10  11
ATOM     11  C   UNK d   1      15.513  29.191  73.849  0.00  0.00     0.255 C 
BRANCH  11  12
ATOM     12  N   UNK d   1      16.749  28.914  74.498  0.00  0.00    -0.066 N 
ATOM     13  C   UNK d   1      16.741  27.882  75.484  0.00  0.00     0.261 C 
ATOM     14  C   UNK d   1      16.419  26.513  74.930  0.00  0.00     0.195 C 
ATOM     15  O   UNK d   1      17.309  26.166  73.920  0.00  0.00    -0.388 OA
ATOM     16  C   UNK d   1      17.418  27.160  72.953  0.00  0.00     0.195 C 
ATOM     17  C   UNK d   1      17.781  28.506  73.523  0.00  0.00     0.261 C 
ATOM     18  H   UNK d   1      17.080  29.790  74.959  0.00  0.00     0.280 HD
ENDBRANCH  11  12
ENDBRANCH  10  11
ENDBRANCH   2  10
BRANCH   1  19
ATOM     19  C   UNK d   1      15.549  33.657  71.916  0.00  0.00    -0.030 A 
ATOM     20  C   UNK d   1      14.248  33.412  71.555  0.00  0.00     0.011 A 
ATOM     21  C   UNK d   1      13.532  34.254  70.727  0.00  0.00     0.024 A 
ATOM     22  C   UNK d   1      14.132  35.392  70.233  0.00  0.00     0.034 A 
ATOM     23 Cl   UNK d   1      13.301  36.512  69.183  0.00  0.00    -0.084 Cl
ATOM     24  C   UNK d   1      15.432  35.657  70.581  0.00  0.00     0.024 A 
ATOM     25  C   UNK d   1      16.141  34.813  71.407  0.00  0.00     0.011 A 
ENDBRANCH   1  19
BRANCH   8  26
ATOM     26  C   UNK d   1      19.983  32.647  71.659  0.00  0.00     0.112 A 
ATOM     27  O   UNK d   1      20.681  31.574  71.540  0.00  0.00    -0.320 OA
ATOM     28  C   UNK d   1      21.659  31.744  70.696  0.00  0.00     0.142 A 
ATOM     29  C   UNK d   1      21.618  33.026  70.209  0.00  0.00     0.027 A 
ATOM     30  C   UNK d   1      20.547  33.617  70.820  0.00  0.00     0.042 A 
ENDBRANCH   8  26
TORSDOF 5
ENDMDL
