MODEL 1
REMARK VINA RESULT:    -8.086      0.000      0.000
REMARK INTER + INTRA:          -8.898
REMARK INTER:                  -8.558
REMARK INTRA:                  -0.340
REMARK UNBOUND:                -0.340
REMARK  1 active torsions:
REMARK  status: ('A' for Active; 'I' for Inactive)
REMARK    1  A    between atoms: C_5  and  N_8 
ROOT
ATOM      1  N   UNK d   1      21.292  35.261  69.323  0.00  0.00    -0.252 N 
ATOM      2  C   UNK d   1      22.133  34.407  68.533  0.00  0.00     0.237 C 
ATOM      3  O   UNK d   1      22.560  33.285  68.974  0.00  0.00    -0.272 OA
ATOM      4  C   UNK d   1      22.378  35.036  67.224  0.00  0.00     0.104 C 
ATOM      5  C   UNK d   1      22.066  36.490  67.483  0.00  0.00     0.104 C 
ATOM      6  C   UNK d   1      23.327  37.305  67.291  0.00  0.00     0.076 C 
ATOM      7  C   UNK d   1      23.642  37.219  65.791  0.00  0.00     0.091 C 
ATOM      8  C   UNK d   1      23.942  35.771  65.532  0.00  0.00     0.133 C 
ATOM      9  O   UNK d   1      24.309  35.409  64.446  0.00  0.00    -0.298 OA
ATOM     10  C   UNK d   1      23.756  34.835  66.694  0.00  0.00     0.076 C 
ATOM     11  C   UNK d   1      24.797  35.263  67.734  0.00  0.00     0.091 C 
ATOM     12  C   UNK d   1      24.498  36.709  68.023  0.00  0.00     0.133 C 
ATOM     13  O   UNK d   1      25.180  37.320  68.798  0.00  0.00    -0.298 OA
ATOM     14  C   UNK d   1      21.491  36.576  68.825  0.00  0.00     0.237 C 
ATOM     15  O   UNK d   1      21.219  37.635  69.434  0.00  0.00    -0.272 OA
ENDROOT
BRANCH   1  16
ATOM     16  C   UNK d   1      20.427  34.889  70.390  0.00  0.00     0.045 A 
ATOM     17  C   UNK d   1      19.061  35.063  70.267  0.00  0.00     0.032 A 
ATOM     18  C   UNK d   1      18.184  34.718  71.269  0.00  0.00     0.026 A 
ATOM     19  C   UNK d   1      18.635  34.179  72.449  0.00  0.00     0.034 A 
ATOM     20 Cl   UNK d   1      17.521  33.733  73.737  0.00  0.00    -0.084 Cl
ATOM     21  C   UNK d   1      20.000  33.995  72.594  0.00  0.00     0.026 A 
ATOM     22  C   UNK d   1      20.860  34.348  71.580  0.00  0.00     0.032 A 
ENDBRANCH   1  16
TORSDOF 1
ENDMDL
