/Users/jonathanwahrer/Desktop/Msc/3_Semester/Drug_Design_Praktikum/waehrer_HTS_screening/HTS_experiment/out/docking_results/vina_output/4x21/1941_docked.pdbqt
 OpenBabel03212202473D

 22 25  0  0  1  0  0  0  0  0999 V2000
   21.2920   35.2610   69.3230 N   0  0  0  0  0  0  0  0  0  0  0  0
   22.1330   34.4070   68.5330 C   0  0  0  0  0  0  0  0  0  0  0  0
   22.5600   33.2850   68.9740 O   0  0  0  0  0  0  0  0  0  0  0  0
   22.3780   35.0360   67.2240 C   0  0  1  0  0  3  0  0  0  0  0  0
   22.0660   36.4900   67.4830 C   0  0  2  0  0  3  0  0  0  0  0  0
   23.3270   37.3050   67.2910 C   0  0  2  0  0  3  0  0  0  0  0  0
   23.6420   37.2190   65.7910 C   0  0  0  0  0  2  0  0  0  0  0  0
   23.9420   35.7710   65.5320 C   0  0  0  0  0  0  0  0  0  0  0  0
   24.3090   35.4090   64.4460 O   0  0  0  0  0  0  0  0  0  0  0  0
   23.7560   34.8350   66.6940 C   0  0  1  0  0  3  0  0  0  0  0  0
   24.7970   35.2630   67.7340 C   0  0  0  0  0  2  0  0  0  0  0  0
   24.4980   36.7090   68.0230 C   0  0  0  0  0  0  0  0  0  0  0  0
   25.1800   37.3200   68.7980 O   0  0  0  0  0  0  0  0  0  0  0  0
   21.4910   36.5760   68.8250 C   0  0  0  0  0  0  0  0  0  0  0  0
   21.2190   37.6350   69.4340 O   0  0  0  0  0  0  0  0  0  0  0  0
   20.4270   34.8890   70.3900 C   0  0  0  0  0  0  0  0  0  0  0  0
   19.0610   35.0630   70.2670 C   0  0  0  0  0  3  0  0  0  0  0  0
   18.1840   34.7180   71.2690 C   0  0  0  0  0  3  0  0  0  0  0  0
   18.6350   34.1790   72.4490 C   0  0  0  0  0  0  0  0  0  0  0  0
   17.5210   33.7330   73.7370 Cl  0  0  0  0  0  0  0  0  0  0  0  0
   20.0000   33.9950   72.5940 C   0  0  0  0  0  3  0  0  0  0  0  0
   20.8600   34.3480   71.5800 C   0  0  0  0  0  3  0  0  0  0  0  0
  1 16  1  0  0  0  0
  2  3  2  0  0  0  0
  2  1  1  0  0  0  0
  4  5  1  0  0  0  0
  4  2  1  1  0  0  0
  5 14  1  1  0  0  0
  6  7  1  6  0  0  0
  6  5  1  0  0  0  0
  6 12  1  0  0  0  0
  8  7  1  0  0  0  0
  8 10  1  0  0  0  0
  9  8  2  0  0  0  0
 10  4  1  0  0  0  0
 10 11  1  1  0  0  0
 11 12  1  0  0  0  0
 12 13  2  0  0  0  0
 14  1  1  0  0  0  0
 14 15  2  0  0  0  0
 16 22  1  0  0  0  0
 17 16  2  0  0  0  0
 17 18  1  0  0  0  0
 18 19  2  0  0  0  0
 19 21  1  0  0  0  0
 19 20  1  0  0  0  0
 22 21  2  0  0  0  0
M  END
>  <Pose>
1

>  <Score>
-8.086

$$$$
