MODEL 1
REMARK VINA RESULT:    -9.177      0.000      0.000
REMARK INTER + INTRA:         -11.632
REMARK INTER:                 -10.787
REMARK INTRA:                  -0.845
REMARK UNBOUND:                -0.845
REMARK  3 active torsions:
REMARK  status: ('A' for Active; 'I' for Inactive)
REMARK    1  A    between atoms: C_5  and  N_8 
REMARK    2  A    between atoms: C_14  and  C_18 
REMARK    3  A    between atoms: C_18  and  C_19 
REMARK       I    between atoms: C_19  and  N_21 
ROOT
ATOM      1  N   UNK d   1      19.856  36.280  69.801  0.00  0.00    -0.252 N 
ATOM      2  C   UNK d   1      20.457  36.833  68.610  0.00  0.00     0.239 C 
ATOM      3  O   UNK d   1      19.851  37.310  67.646  0.00  0.00    -0.272 OA
ATOM      4  C   UNK d   1      21.920  36.747  68.714  0.00  0.00     0.147 C 
ATOM      5  C   UNK d   1      22.631  36.207  67.496  0.00  0.00     0.279 C 
ATOM      6  N   UNK d   1      22.775  34.781  67.665  0.00  0.00     0.114 N 
ATOM      7  C   UNK d   1      21.906  34.413  68.765  0.00  0.00     0.245 C 
ATOM      8  C   UNK d   1      22.083  35.602  69.687  0.00  0.00     0.129 C 
ATOM      9  C   UNK d   1      20.950  35.813  70.607  0.00  0.00     0.238 C 
ATOM     10  O   UNK d   1      21.002  35.610  71.822  0.00  0.00    -0.272 OA
ATOM     11  C   UNK d   1      23.966  36.900  67.491  0.00  0.00     0.017 A 
ATOM     12  C   UNK d   1      23.976  37.768  66.435  0.00  0.00     0.044 A 
ATOM     13  C   UNK d   1      25.066  38.617  66.188  0.00  0.00     0.030 A 
ATOM     14  C   UNK d   1      26.167  38.589  67.017  0.00  0.00     0.002 A 
ATOM     15  C   UNK d   1      26.159  37.718  68.074  0.00  0.00     0.001 A 
ATOM     16  C   UNK d   1      25.080  36.891  68.304  0.00  0.00     0.012 A 
ATOM     17  N   UNK d   1      22.814  37.612  65.637  0.00  0.00    -0.324 N 
ATOM     18  C   UNK d   1      22.037  36.582  66.228  0.00  0.00     0.267 C 
ATOM     19  O   UNK d   1      21.013  36.104  65.697  0.00  0.00    -0.270 OA
ATOM     20  H   UNK d   1      22.478  34.323  66.771  0.00  0.00     0.318 HD
ATOM     21  H   UNK d   1      22.569  38.165  64.759  0.00  0.00     0.169 HD
ENDROOT
BRANCH   7  22
ATOM     22  C   UNK d   1      22.339  33.134  69.433  0.00  0.00     0.139 C 
BRANCH  22  23
ATOM     23  C   UNK d   1      23.786  32.977  69.545  0.00  0.00     0.217 C 
ATOM     24  O   UNK d   1      24.477  32.729  68.539  0.00  0.00    -0.274 OA
ATOM     25  N   UNK d   1      24.415  33.104  70.805  0.00  0.00    -0.370 N 
ATOM     26  H   UNK d   1      23.906  33.253  71.710  0.00  0.00     0.159 HD
ATOM     27  H   UNK d   1      25.469  33.056  70.929  0.00  0.00     0.159 HD
ENDBRANCH  22  23
ENDBRANCH   7  22
BRANCH   1  28
ATOM     28  C   UNK d   1      18.503  36.201  70.149  0.00  0.00     0.045 A 
ATOM     29  C   UNK d   1      17.619  37.229  69.971  0.00  0.00     0.032 A 
ATOM     30  C   UNK d   1      16.274  37.148  70.314  0.00  0.00     0.026 A 
ATOM     31  C   UNK d   1      15.789  35.985  70.860  0.00  0.00     0.034 A 
ATOM     32 Cl   UNK d   1      14.092  35.863  71.289  0.00  0.00    -0.084 Cl
ATOM     33  C   UNK d   1      16.641  34.941  71.053  0.00  0.00     0.026 A 
ATOM     34  C   UNK d   1      17.990  35.051  70.699  0.00  0.00     0.032 A 
ENDBRANCH   1  28
TORSDOF 3
ENDMDL
