MODEL 1
REMARK VINA RESULT:    -7.674      0.000      0.000
REMARK INTER + INTRA:          -9.846
REMARK INTER:                  -9.469
REMARK INTRA:                  -0.377
REMARK UNBOUND:                -0.377
REMARK  4 active torsions:
REMARK  status: ('A' for Active; 'I' for Inactive)
REMARK    1  A    between atoms: N_15  and  C_16 
REMARK    2  A    between atoms: C_16  and  C_17 
REMARK       I    between atoms: C_17  and  N_19 
REMARK    3  A    between atoms: N_19  and  C_20 
REMARK    4  A    between atoms: C_20  and  C_21 
ROOT
ATOM      1 Cl   UNK d   1      14.504  35.360  71.570  0.00  0.00    -0.084 Cl
ATOM      2  C   UNK d   1      16.131  35.662  70.992  0.00  0.00     0.036 A 
ATOM      3  C   UNK d   1      17.193  34.874  71.370  0.00  0.00     0.054 A 
ATOM      4  C   UNK d   1      18.486  35.126  70.903  0.00  0.00     0.055 A 
ATOM      5  C   UNK d   1      18.674  36.197  70.041  0.00  0.00     0.037 A 
ATOM      6  C   UNK d   1      17.623  36.993  69.654  0.00  0.00     0.019 A 
ATOM      7  C   UNK d   1      16.359  36.736  70.122  0.00  0.00     0.025 A 
ATOM      8  C   UNK d   1      20.020  36.501  69.522  0.00  0.00     0.141 A 
ATOM      9  N   UNK d   1      20.464  37.414  68.727  0.00  0.00    -0.270 NA
ATOM     10  C   UNK d   1      21.880  37.309  68.505  0.00  0.00     0.171 A 
ATOM     11  C   UNK d   1      22.294  36.125  69.323  0.00  0.00     0.157 A 
ATOM     12  N   UNK d   1      21.079  35.662  69.938  0.00  0.00    -0.281 N 
ATOM     13  C   UNK d   1      20.854  34.571  70.822  0.00  0.00     0.331 A 
ATOM     14  O   UNK d   1      21.786  33.809  71.205  0.00  0.00    -0.246 OA
ATOM     15  N   UNK d   1      19.541  34.272  71.330  0.00  0.00    -0.290 N 
ENDROOT
BRANCH  15  16
ATOM     16  C   UNK d   1      19.334  33.150  72.235  0.00  0.00     0.236 C 
BRANCH  16  17
ATOM     17  C   UNK d   1      18.565  32.069  71.577  0.00  0.00     0.236 C 
ATOM     18  O   UNK d   1      18.967  31.648  70.465  0.00  0.00    -0.272 OA
ATOM     19  N   UNK d   1      17.403  31.490  72.143  0.00  0.00    -0.359 N 
ATOM     20  H   UNK d   1      17.083  31.849  73.065  0.00  0.00     0.162 HD
BRANCH  19  21
ATOM     21  C   UNK d   1      16.672  30.437  71.481  0.00  0.00     0.127 C 
BRANCH  21  22
ATOM     22  C   UNK d   1      15.326  30.943  71.036  0.00  0.00     0.003 A 
ATOM     23  C   UNK d   1      14.519  31.785  71.961  0.00  0.00     0.007 A 
ATOM     24  C   UNK d   1      14.123  30.377  71.730  0.00  0.00     0.007 A 
ENDBRANCH  21  22
ENDBRANCH  19  21
ENDBRANCH  16  17
ENDBRANCH  15  16
TORSDOF 4
ENDMDL
