MODEL 1
REMARK VINA RESULT:    -8.346      0.000      0.000
REMARK INTER + INTRA:         -13.092
REMARK INTER:                 -12.250
REMARK INTRA:                  -0.842
REMARK UNBOUND:                -0.842
REMARK  8 active torsions:
REMARK  status: ('A' for Active; 'I' for Inactive)
REMARK    1  A    between atoms: C_5  and  C_8 
REMARK    2  A    between atoms: C_10  and  C_24 
REMARK    3  A    between atoms: N_11  and  C_16 
REMARK    4  A    between atoms: C_16  and  C_17 
REMARK    5  A    between atoms: C_17  and  N_18 
REMARK    6  A    between atoms: C_27  and  O_30 
REMARK    7  A    between atoms: O_30  and  C_31 
REMARK    8  A    between atoms: C_31  and  C_32 
ROOT
ATOM      1  C   UNK d   1      21.146  35.807  70.724  0.00  0.00     0.130 C 
ATOM      2  C   UNK d   1      21.010  34.514  70.966  0.00  0.00     0.062 C 
ATOM      3  C   UNK d   1      20.341  33.918  72.180  0.00  0.00     0.161 C 
ATOM      4  N   UNK d   1      20.707  32.532  72.178  0.00  0.00    -0.331 N 
ATOM      5  C   UNK d   1      21.307  32.172  70.941  0.00  0.00     0.295 C 
ATOM      6  O   UNK d   1      21.614  31.032  70.564  0.00  0.00    -0.264 OA
ATOM      7  C   UNK d   1      21.499  33.427  70.178  0.00  0.00     0.250 C 
ATOM      8  O   UNK d   1      22.012  33.488  69.036  0.00  0.00    -0.282 OA
ATOM      9  O   UNK d   1      20.615  36.680  71.703  0.00  0.00    -0.190 OA
ENDROOT
BRANCH   3  10
ATOM     10  C   UNK d   1      18.881  34.153  72.013  0.00  0.00    -0.030 A 
ATOM     11  C   UNK d   1      18.376  34.470  70.785  0.00  0.00     0.012 A 
ATOM     12  C   UNK d   1      17.033  34.671  70.638  0.00  0.00     0.037 A 
ATOM     13  C   UNK d   1      16.162  34.562  71.700  0.00  0.00     0.068 A 
ATOM     14  C   UNK d   1      16.672  34.241  72.945  0.00  0.00     0.037 A 
ATOM     15  C   UNK d   1      18.036  34.038  73.088  0.00  0.00     0.012 A 
BRANCH  13  16
ATOM     16  O   UNK d   1      14.796  34.768  71.543  0.00  0.00    -0.351 OA
BRANCH  16  17
ATOM     17  C   UNK d   1      13.991  33.664  71.103  0.00  0.00     0.175 C 
BRANCH  17  18
ATOM     18  C   UNK d   1      13.578  33.906  69.654  0.00  0.00     0.022 C 
ATOM     19  C   UNK d   1      13.109  35.351  69.563  0.00  0.00     0.007 C 
ENDBRANCH  17  18
ENDBRANCH  16  17
ENDBRANCH  13  16
ENDBRANCH   3  10
BRANCH   4  20
ATOM     20  C   UNK d   1      20.511  31.609  73.291  0.00  0.00     0.155 C 
BRANCH  20  21
ATOM     21  C   UNK d   1      19.794  30.392  72.816  0.00  0.00     0.255 C 
BRANCH  21  22
ATOM     22  N   UNK d   1      18.334  30.568  72.881  0.00  0.00    -0.066 N 
ATOM     23  C   UNK d   1      17.770  29.375  73.434  0.00  0.00     0.261 C 
ATOM     24  C   UNK d   1      16.266  29.287  73.184  0.00  0.00     0.195 C 
ATOM     25  O   UNK d   1      16.098  29.349  71.789  0.00  0.00    -0.388 OA
ATOM     26  C   UNK d   1      16.403  30.636  71.397  0.00  0.00     0.195 C 
ATOM     27  C   UNK d   1      17.897  30.851  71.531  0.00  0.00     0.261 C 
ATOM     28  H   UNK d   1      18.090  31.385  73.500  0.00  0.00     0.280 HD
ENDBRANCH  21  22
ENDBRANCH  20  21
ENDBRANCH   4  20
BRANCH   1  29
ATOM     29  C   UNK d   1      21.792  36.322  69.537  0.00  0.00     0.001 A 
ATOM     30  C   UNK d   1      21.019  36.646  68.414  0.00  0.00     0.016 A 
ATOM     31  C   UNK d   1      21.575  37.102  67.237  0.00  0.00     0.024 A 
ATOM     32  C   UNK d   1      22.935  37.260  67.119  0.00  0.00     0.034 A 
ATOM     33 Cl   UNK d   1      23.703  37.834  65.656  0.00  0.00    -0.084 Cl
ATOM     34  C   UNK d   1      23.717  36.952  68.195  0.00  0.00     0.024 A 
ATOM     35  C   UNK d   1      23.149  36.488  69.389  0.00  0.00     0.016 A 
ENDBRANCH   1  29
TORSDOF 8
ENDMDL
