/Users/jonathanwahrer/Desktop/Msc/3_Semester/Drug_Design_Praktikum/waehrer_HTS_screening/HTS_experiment/out/docking_results/vina_output/4x21/1958_docked.pdbqt
 OpenBabel03212202483D

 28 31  0  0  1  0  0  0  0  0999 V2000
   19.2050   37.2250   68.7150 C   0  0  0  0  0  0  0  0  0  0  0  0
   18.5460   37.7950   67.7780 O   0  0  0  0  0  0  0  0  0  0  0  0
   20.3410   36.4460   68.4540 N   0  0  0  0  0  0  0  0  0  0  0  0
   21.0810   35.8070   69.4950 C   0  0  0  0  0  2  0  0  0  0  0  0
   22.5300   35.5710   69.1720 C   0  0  0  0  0  2  0  0  0  0  0  0
   22.9890   36.5400   68.1470 C   0  0  2  0  0  3  0  0  0  0  0  0
   22.1610   36.9110   67.1040 C   0  0  0  0  0  0  0  0  0  0  0  0
   22.5680   37.7800   66.1710 N   0  0  0  0  0  0  0  0  0  0  0  0
   23.7940   38.3450   66.1850 C   0  0  2  0  0  3  0  0  0  0  0  0
   24.6090   37.9840   67.2060 N   0  0  0  0  0  0  0  0  0  0  0  0
   24.2460   37.1160   68.1660 C   0  0  0  0  0  0  0  0  0  0  0  0
   20.7890   36.2800   67.0990 C   0  0  0  0  0  2  0  0  0  0  0  0
   18.6990   37.4320   70.1100 C   0  0  0  0  0  2  0  0  0  0  0  0
   17.3980   36.7730   70.3090 C   0  0  0  0  0  0  0  0  0  0  0  0
   16.1880   37.4090   70.1330 C   0  0  0  0  0  3  0  0  0  0  0  0
   14.9850   36.7650   70.3280 C   0  0  0  0  0  3  0  0  0  0  0  0
   14.9630   35.4300   70.7180 C   0  0  0  0  0  0  0  0  0  0  0  0
   13.4440   34.5990   70.9700 Cl  0  0  0  0  0  0  0  0  0  0  0  0
   16.1840   34.8060   70.8900 C   0  0  0  0  0  3  0  0  0  0  0  0
   17.3850   35.4500   70.6940 C   0  0  0  0  0  3  0  0  0  0  0  0
   25.1050   36.7690   69.1980 O   0  0  0  0  0  0  0  0  0  0  0  0
   25.7830   36.0070   69.1090 H   0  0  0  0  0  0  0  0  0  0  0  0
   24.1720   39.2540   65.1830 N   0  0  0  0  0  0  0  0  0  0  0  0
   25.4600   39.1640   64.5610 C   0  0  0  0  0  2  0  0  0  0  0  0
   25.3290   39.8600   63.1990 C   0  0  0  0  0  2  0  0  0  0  0  0
   25.0180   41.1890   63.3480 O   0  0  0  0  0  0  0  0  0  0  0  0
   24.0030   41.4770   64.2200 C   0  0  0  0  0  2  0  0  0  0  0  0
   23.2680   40.2860   64.7710 C   0  0  0  0  0  2  0  0  0  0  0  0
  1 13  1  0  0  0  0
  2  1  2  0  0  0  0
  3  1  1  0  0  0  0
  3  4  1  0  0  0  0
  5  4  1  0  0  0  0
  6 11  1  0  0  0  0
  6  5  1  6  0  0  0
  7  6  1  0  0  0  0
  8  9  1  0  0  0  0
  8  7  2  0  0  0  0
  9 23  1  1  0  0  0
  9 10  1  0  0  0  0
 10 11  2  0  0  0  0
 11 21  1  0  0  0  0
 12  7  1  0  0  0  0
 12  3  1  0  0  0  0
 13 14  1  0  0  0  0
 14 20  1  0  0  0  0
 15 14  2  0  0  0  0
 15 16  1  0  0  0  0
 16 17  2  0  0  0  0
 17 19  1  0  0  0  0
 17 18  1  0  0  0  0
 20 19  2  0  0  0  0
 22 21  1  0  0  0  0
 24 23  1  0  0  0  0
 25 26  1  0  0  0  0
 25 24  1  0  0  0  0
 26 27  1  0  0  0  0
 27 28  1  0  0  0  0
 28 23  1  0  0  0  0
M  END
>  <Pose>
1

>  <Score>
-8.728

$$$$
