/Users/jonathanwahrer/Desktop/Msc/3_Semester/Drug_Design_Praktikum/waehrer_HTS_screening/HTS_experiment/out/docking_results/vina_output/4x21/1960_docked.pdbqt
 OpenBabel03212202493D

 28 31  0  0  0  0  0  0  0  0999 V2000
   18.1030   32.6080   71.2050 C   0  0  0  0  0  0  0  0  0  0  0  0
   17.8840   31.9590   70.1480 O   0  0  0  0  0  0  0  0  0  0  0  0
   19.4270   32.9520   71.5210 N   0  0  0  0  0  0  0  0  0  0  0  0
   20.5440   32.5640   70.6430 C   0  0  0  0  0  2  0  0  0  0  0  0
   21.5480   33.7060   70.6230 C   0  0  0  0  0  2  0  0  0  0  0  0
   20.8030   34.9200   70.8890 N   0  0  0  0  0  0  0  0  0  0  0  0
   20.3470   35.0820   72.2590 C   0  0  0  0  0  2  0  0  0  0  0  0
   19.8270   33.7040   72.7030 C   0  0  0  0  0  2  0  0  0  0  0  0
   20.5270   35.8720   69.8740 C   0  0  0  0  0  0  0  0  0  0  0  0
   19.3470   36.5930   69.9030 C   0  0  0  0  0  3  0  0  0  0  0  0
   19.1010   37.4940   68.9070 N   0  0  0  0  0  0  0  0  0  0  0  0
   19.9380   37.7100   67.9120 N   0  0  0  0  0  0  0  0  0  0  0  0
   21.1240   37.0320   67.8210 C   0  0  0  0  0  0  0  0  0  0  0  0
   21.3650   36.1350   68.8170 C   0  0  0  0  0  3  0  0  0  0  0  0
   21.9730   37.3110   66.7270 N   0  0  0  0  0  0  0  0  0  0  0  0
   22.6090   36.2390   65.9840 C   0  0  0  0  0  2  0  0  0  0  0  0
   24.0800   36.5690   65.7240 C   0  0  0  0  0  2  0  0  0  0  0  0
   24.2370   37.8570   65.2520 O   0  0  0  0  0  0  0  0  0  0  0  0
   23.7990   38.7300   66.2360 C   0  0  0  0  0  2  0  0  0  0  0  0
   22.2630   38.6510   66.2870 C   0  0  0  0  0  2  0  0  0  0  0  0
   16.9390   32.9640   72.0380 C   0  0  0  0  0  2  0  0  0  0  0  0
   16.0520   33.9390   71.3490 C   0  0  0  0  0  0  0  0  0  0  0  0
   14.8510   33.4970   70.8010 C   0  0  0  0  0  3  0  0  0  0  0  0
   13.9990   34.3730   70.1540 C   0  0  0  0  0  3  0  0  0  0  0  0
   14.3280   35.7240   70.0370 C   0  0  0  0  0  0  0  0  0  0  0  0
   13.2630   36.8310   69.2260 Cl  0  0  0  0  0  0  0  0  0  0  0  0
   15.5180   36.1440   70.5830 C   0  0  0  0  0  3  0  0  0  0  0  0
   16.3790   35.2620   71.2370 C   0  0  0  0  0  3  0  0  0  0  0  0
  1  3  1  0  0  0  0
  1 21  1  0  0  0  0
  2  1  2  0  0  0  0
  3  8  1  0  0  0  0
  4  3  1  0  0  0  0
  5  4  1  0  0  0  0
  5  6  1  0  0  0  0
  6  7  1  0  0  0  0
  7  8  1  0  0  0  0
  9 10  1  0  0  0  0
  9  6  1  0  0  0  0
 11 10  2  0  0  0  0
 12 11  1  0  0  0  0
 13 12  2  0  0  0  0
 13 14  1  0  0  0  0
 14  9  2  0  0  0  0
 15 13  1  0  0  0  0
 16 15  1  0  0  0  0
 17 16  1  0  0  0  0
 18 17  1  0  0  0  0
 18 19  1  0  0  0  0
 19 20  1  0  0  0  0
 20 15  1  0  0  0  0
 22 21  1  0  0  0  0
 23 22  2  0  0  0  0
 24 23  1  0  0  0  0
 25 24  2  0  0  0  0
 25 27  1  0  0  0  0
 26 25  1  0  0  0  0
 27 28  2  0  0  0  0
 28 22  1  0  0  0  0
M  END
>  <Pose>
1

>  <Score>
-9.169

$$$$
