MODEL 1
REMARK VINA RESULT:    -9.169      0.000      0.000
REMARK INTER + INTRA:         -12.332
REMARK INTER:                 -11.314
REMARK INTRA:                  -1.018
REMARK UNBOUND:                -1.018
REMARK  4 active torsions:
REMARK  status: ('A' for Active; 'I' for Inactive)
REMARK    1  A    between atoms: C_5  and  C_8 
REMARK    2  A    between atoms: C_8  and  C_9 
REMARK       I    between atoms: C_9  and  N_11 
REMARK    3  A    between atoms: N_14  and  C_17 
REMARK    4  A    between atoms: C_21  and  N_23 
ROOT
ATOM      1  C   UNK d   1      18.103  32.608  71.205  0.00  0.00     0.224 C 
ATOM      2  O   UNK d   1      17.884  31.959  70.148  0.00  0.00    -0.273 OA
ATOM      3  N   UNK d   1      19.427  32.952  71.521  0.00  0.00    -0.349 N 
ATOM      4  C   UNK d   1      20.544  32.564  70.643  0.00  0.00     0.145 C 
ATOM      5  C   UNK d   1      21.548  33.706  70.623  0.00  0.00     0.143 C 
ATOM      6  N   UNK d   1      20.803  34.920  70.889  0.00  0.00    -0.376 N 
ATOM      7  C   UNK d   1      20.347  35.082  72.259  0.00  0.00     0.143 C 
ATOM      8  C   UNK d   1      19.827  33.704  72.703  0.00  0.00     0.145 C 
ENDROOT
BRANCH   6   9
ATOM      9  C   UNK d   1      20.527  35.872  69.874  0.00  0.00     0.053 A 
ATOM     10  C   UNK d   1      19.347  36.593  69.903  0.00  0.00     0.170 A 
ATOM     11  N   UNK d   1      19.101  37.494  68.907  0.00  0.00    -0.158 NA
ATOM     12  N   UNK d   1      19.938  37.710  67.912  0.00  0.00    -0.132 NA
ATOM     13  C   UNK d   1      21.124  37.032  67.821  0.00  0.00     0.150 A 
ATOM     14  C   UNK d   1      21.365  36.135  68.817  0.00  0.00     0.083 A 
BRANCH  13  15
ATOM     15  N   UNK d   1      21.973  37.311  66.727  0.00  0.00    -0.360 N 
ATOM     16  C   UNK d   1      22.609  36.239  65.984  0.00  0.00     0.151 C 
ATOM     17  C   UNK d   1      24.080  36.569  65.724  0.00  0.00     0.187 C 
ATOM     18  O   UNK d   1      24.237  37.857  65.252  0.00  0.00    -0.388 OA
ATOM     19  C   UNK d   1      23.799  38.730  66.236  0.00  0.00     0.187 C 
ATOM     20  C   UNK d   1      22.263  38.651  66.287  0.00  0.00     0.151 C 
ENDBRANCH  13  15
ENDBRANCH   6   9
BRANCH   1  21
ATOM     21  C   UNK d   1      16.939  32.964  72.038  0.00  0.00     0.141 C 
BRANCH  21  22
ATOM     22  C   UNK d   1      16.052  33.939  71.349  0.00  0.00    -0.049 A 
ATOM     23  C   UNK d   1      14.851  33.497  70.801  0.00  0.00     0.009 A 
ATOM     24  C   UNK d   1      13.999  34.373  70.154  0.00  0.00     0.024 A 
ATOM     25  C   UNK d   1      14.328  35.724  70.037  0.00  0.00     0.034 A 
ATOM     26 Cl   UNK d   1      13.263  36.831  69.226  0.00  0.00    -0.084 Cl
ATOM     27  C   UNK d   1      15.518  36.144  70.583  0.00  0.00     0.024 A 
ATOM     28  C   UNK d   1      16.379  35.262  71.237  0.00  0.00     0.009 A 
ENDBRANCH  21  22
ENDBRANCH   1  21
TORSDOF 4
ENDMDL
