MODEL 1
REMARK VINA RESULT:    -8.751      0.000      0.000
REMARK INTER + INTRA:         -10.819
REMARK INTER:                 -10.286
REMARK INTRA:                  -0.534
REMARK UNBOUND:                -0.534
REMARK  3 active torsions:
REMARK  status: ('A' for Active; 'I' for Inactive)
REMARK    1  A    between atoms: C_6  and  C_7 
REMARK       I    between atoms: C_7  and  N_9 
REMARK    2  A    between atoms: C_10  and  C_11 
REMARK    3  A    between atoms: N_12  and  C_16 
ROOT
ATOM      1  C   UNK d   1      20.149  34.804  70.911  0.00  0.00     0.275 C 
ATOM      2  O   UNK d   1      20.782  34.140  71.822  0.00  0.00    -0.266 OA
ATOM      3  N   UNK d   1      20.745  35.693  70.053  0.00  0.00    -0.348 N 
ATOM      4  C   UNK d   1      21.338  36.578  69.201  0.00  0.00     0.205 C 
ATOM      5  H   UNK d   1      21.960  35.463  70.635  0.00  0.00     0.163 HD
ENDROOT
BRANCH   1   6
ATOM      6  C   UNK d   1      18.702  34.462  70.933  0.00  0.00     0.183 A 
ATOM      7  C   UNK d   1      17.616  35.294  70.826  0.00  0.00     0.231 A 
ATOM      8  F   UNK d   1      17.625  36.641  70.681  0.00  0.00    -0.183 F 
ATOM      9  N   UNK d   1      16.451  34.578  70.889  0.00  0.00    -0.279 N 
ATOM     10  C   UNK d   1      16.829  33.299  71.035  0.00  0.00     0.137 A 
ATOM     11  C   UNK d   1      15.158  34.939  70.833  0.00  0.00     0.125 A 
ATOM     12  N   UNK d   1      18.170  33.230  71.061  0.00  0.00    -0.220 NA
ATOM     13  C   UNK d   1      15.834  32.356  71.127  0.00  0.00     0.053 A 
ATOM     14  C   UNK d   1      14.479  32.688  71.072  0.00  0.00     0.029 A 
ATOM     15  C   UNK d   1      14.133  34.004  70.922  0.00  0.00     0.050 A 
ATOM     16 Cl   UNK d   1      12.441  34.496  70.841  0.00  0.00    -0.083 Cl
ENDBRANCH   1   6
BRANCH   4  17
ATOM     17  C   UNK d   1      20.416  37.252  68.215  0.00  0.00     0.171 A 
ATOM     18  N   UNK d   1      20.734  37.608  66.968  0.00  0.00    -0.197 N 
ATOM     19  N   UNK d   1      19.665  38.164  66.423  0.00  0.00    -0.039 NA
ATOM     20  N   UNK d   1      18.672  38.171  67.286  0.00  0.00    -0.023 NA
ATOM     21  N   UNK d   1      19.147  37.603  68.395  0.00  0.00    -0.112 NA
BRANCH  18  22
ATOM     22  C   UNK d   1      22.025  37.379  66.402  0.00  0.00     0.062 A 
ATOM     23  C   UNK d   1      22.862  38.474  66.215  0.00  0.00     0.032 A 
ATOM     24  C   UNK d   1      24.124  38.321  65.653  0.00  0.00     0.002 A 
ATOM     25  C   UNK d   1      24.586  37.081  65.262  0.00  0.00     0.000 A 
ATOM     26  C   UNK d   1      23.751  36.000  65.451  0.00  0.00     0.002 A 
ATOM     27  C   UNK d   1      22.494  36.149  66.009  0.00  0.00     0.032 A 
ENDBRANCH  18  22
ENDBRANCH   4  17
TORSDOF 3
ENDMDL
