/Users/jonathanwahrer/Desktop/Msc/3_Semester/Drug_Design_Praktikum/waehrer_HTS_screening/HTS_experiment/out/docking_results/vina_output/4x21/1969_docked.pdbqt
 OpenBabel03212202493D

 26 29  0  0  0  0  0  0  0  0999 V2000
   20.8220   33.3500   70.6180 C   0  0  0  0  0  0  0  0  0  0  0  0
   21.5720   32.7390   69.6180 O   0  0  0  0  0  0  0  0  0  0  0  0
   21.2190   34.6300   70.8110 N   0  0  0  0  0  0  0  0  0  0  0  0
   20.7030   35.6780   71.6410 C   0  0  0  0  0  2  0  0  0  0  0  0
   21.0850   37.0430   71.0340 C   0  0  0  0  0  2  0  0  0  0  0  0
   21.0830   36.7950   69.5850 N   0  0  0  0  0  0  0  0  0  0  0  0
   22.1280   36.0060   69.0220 C   0  0  0  0  0  2  0  0  0  0  0  0
   22.4730   35.0120   70.0840 C   0  0  0  0  0  2  0  0  0  0  0  0
   19.9160   32.2860   71.0130 C   0  0  0  0  0  0  0  0  0  0  0  0
   19.1590   31.3950   71.3420 N   0  0  0  0  0  0  0  0  0  0  0  0
   17.9840   31.2730   71.4460 N   0  0  0  0  0  0  0  0  0  0  0  0
   17.4830   32.4340   71.0810 N   0  0  0  0  0  0  0  0  0  0  0  0
   18.5080   33.1910   70.7890 C   0  0  0  0  0  3  0  0  0  0  0  0
   16.0550   32.6580   71.0770 C   0  0  0  0  0  0  0  0  0  0  0  0
   15.4140   33.5500   70.2890 C   0  0  0  0  0  3  0  0  0  0  0  0
   14.0340   33.6990   70.3380 C   0  0  0  0  0  0  0  0  0  0  0  0
   13.1420   34.8290   69.3690 Cl  0  0  0  0  0  0  0  0  0  0  0  0
   13.2640   32.8980   71.2430 C   0  0  0  0  0  3  0  0  0  0  0  0
   13.9210   32.0080   72.0200 C   0  0  0  0  0  3  0  0  0  0  0  0
   15.2680   31.9070   71.9270 C   0  0  0  0  0  3  0  0  0  0  0  0
   20.0100   37.2320   68.8170 C   0  0  0  0  0  0  0  0  0  0  0  0
   18.7390   37.3940   69.3810 N   0  0  0  0  0  0  0  0  0  0  0  0
   17.6890   37.8150   68.7700 C   0  0  0  0  0  3  0  0  0  0  0  0
   17.7160   38.1820   67.4150 C   0  0  0  0  0  3  0  0  0  0  0  0
   18.9710   38.0180   66.8450 C   0  0  0  0  0  3  0  0  0  0  0  0
   19.9800   37.5890   67.5060 N   0  0  0  0  0  0  0  0  0  0  0  0
  1  3  1  0  0  0  0
  1  9  1  0  0  0  0
  2  1  2  0  0  0  0
  3  4  1  0  0  0  0
  5  4  1  0  0  0  0
  6  5  1  0  0  0  0
  7  6  1  0  0  0  0
  7  8  1  0  0  0  0
  8  3  1  0  0  0  0
  9 10  1  0  0  0  0
 10 11  2  0  0  0  0
 12 11  1  0  0  0  0
 13  9  2  0  0  0  0
 13 12  1  0  0  0  0
 14 12  1  0  0  0  0
 14 20  1  0  0  0  0
 15 16  1  0  0  0  0
 15 14  2  0  0  0  0
 16 18  2  0  0  0  0
 17 16  1  0  0  0  0
 18 19  1  0  0  0  0
 20 19  2  0  0  0  0
 21 22  2  0  0  0  0
 21  6  1  0  0  0  0
 23 22  1  0  0  0  0
 24 23  2  0  0  0  0
 25 24  1  0  0  0  0
 25 26  2  0  0  0  0
 26 21  1  0  0  0  0
M  END
>  <Pose>
1

>  <Score>
-8.909

$$$$
