MODEL 1
REMARK VINA RESULT:    -8.909      0.000      0.000
REMARK INTER + INTRA:         -11.133
REMARK INTER:                 -10.471
REMARK INTRA:                  -0.661
REMARK UNBOUND:                -0.661
REMARK  3 active torsions:
REMARK  status: ('A' for Active; 'I' for Inactive)
REMARK    1  A    between atoms: C_4  and  N_8 
REMARK    2  A    between atoms: C_11  and  C_13 
REMARK    3  A    between atoms: N_18  and  C_21 
ROOT
ATOM      1  C   UNK d   1      20.822  33.350  70.618  0.00  0.00     0.209 C 
ATOM      2  O   UNK d   1      21.572  32.739  69.618  0.00  0.00    -0.170 OA
ATOM      3  N   UNK d   1      21.219  34.630  70.811  0.00  0.00    -0.354 N 
ATOM      4  C   UNK d   1      20.703  35.678  71.641  0.00  0.00     0.145 C 
ATOM      5  C   UNK d   1      21.085  37.043  71.034  0.00  0.00     0.161 C 
ATOM      6  N   UNK d   1      21.083  36.795  69.585  0.00  0.00    -0.211 N 
ATOM      7  C   UNK d   1      22.128  36.006  69.022  0.00  0.00     0.161 C 
ATOM      8  C   UNK d   1      22.473  35.012  70.084  0.00  0.00     0.145 C 
ENDROOT
BRANCH   1   9
ATOM      9  C   UNK d   1      19.916  32.286  71.013  0.00  0.00     0.151 A 
ATOM     10  N   UNK d   1      19.159  31.395  71.342  0.00  0.00    -0.126 NA
ATOM     11  N   UNK d   1      17.984  31.273  71.446  0.00  0.00    -0.060 NA
ATOM     12  N   UNK d   1      17.483  32.434  71.081  0.00  0.00    -0.224 N 
ATOM     13  C   UNK d   1      18.508  33.191  70.789  0.00  0.00     0.158 A 
BRANCH  12  14
ATOM     14  C   UNK d   1      16.055  32.658  71.077  0.00  0.00     0.061 A 
ATOM     15  C   UNK d   1      15.414  33.550  70.289  0.00  0.00     0.055 A 
ATOM     16  C   UNK d   1      14.034  33.699  70.338  0.00  0.00     0.036 A 
ATOM     17 Cl   UNK d   1      13.142  34.829  69.369  0.00  0.00    -0.084 Cl
ATOM     18  C   UNK d   1      13.264  32.898  71.243  0.00  0.00     0.024 A 
ATOM     19  C   UNK d   1      13.921  32.008  72.020  0.00  0.00     0.004 A 
ATOM     20  C   UNK d   1      15.268  31.907  71.927  0.00  0.00     0.032 A 
ENDBRANCH  12  14
ENDBRANCH   1   9
BRANCH   6  21
ATOM     21  C   UNK d   1      20.010  37.232  68.817  0.00  0.00     0.724 A 
ATOM     22  N   UNK d   1      18.739  37.394  69.381  0.00  0.00    -0.075 NA
ATOM     23  C   UNK d   1      17.689  37.815  68.770  0.00  0.00     0.138 A 
ATOM     24  C   UNK d   1      17.716  38.182  67.415  0.00  0.00     0.040 A 
ATOM     25  C   UNK d   1      18.971  38.018  66.845  0.00  0.00     0.138 A 
ATOM     26  N   UNK d   1      19.980  37.589  67.506  0.00  0.00    -0.075 NA
ENDBRANCH   6  21
TORSDOF 3
ENDMDL
