MODEL 1
REMARK VINA RESULT:    -8.394      0.000      0.000
REMARK INTER + INTRA:          -7.884
REMARK INTER:                  -8.884
REMARK INTRA:                   1.001
REMARK UNBOUND:                 1.001
REMARK  1 active torsions:
REMARK  status: ('A' for Active; 'I' for Inactive)
REMARK       I    between atoms: N_10  and  C_13 
REMARK    1  A    between atoms: C_13  and  C_15 
ROOT
ATOM      1 Cl   UNK d   1      13.101  36.844  69.566  0.00  0.00    -0.083 Cl
ATOM      2  C   UNK d   1      14.645  36.158  70.072  0.00  0.00     0.050 A 
ATOM      3  C   UNK d   1      15.847  36.772  69.785  0.00  0.00     0.125 A 
ATOM      4  N   UNK d   1      17.043  36.261  70.165  0.00  0.00    -0.271 N 
ATOM      5  C   UNK d   1      17.130  35.108  70.855  0.00  0.00     0.137 A 
ATOM      6  N   UNK d   1      18.320  34.580  71.245  0.00  0.00    -0.234 NA
ATOM      7  C   UNK d   1      19.497  35.172  70.969  0.00  0.00     0.051 A 
ATOM      8  C   UNK d   1      19.423  36.365  70.257  0.00  0.00     0.053 A 
ATOM      9  C   UNK d   1      20.722  37.020  69.950  0.00  0.00     0.172 C 
ATOM     10  N   UNK d   1      21.595  35.941  69.474  0.00  0.00    -0.347 N 
ATOM     11  C   UNK d   1      21.891  34.874  70.388  0.00  0.00     0.132 C 
ATOM     12  C   UNK d   1      20.804  34.607  71.391  0.00  0.00     0.080 C 
ATOM     13  C   UNK d   1      22.111  35.960  68.160  0.00  0.00     0.224 C 
ATOM     14  O   UNK d   1      21.774  36.946  67.420  0.00  0.00    -0.273 OA
ATOM     15  C   UNK d   1      18.203  36.877  69.875  0.00  0.00     0.263 A 
ATOM     16  O   UNK d   1      18.163  37.970  69.223  0.00  0.00    -0.267 OA
ATOM     17  C   UNK d   1      15.935  34.476  71.153  0.00  0.00     0.053 A 
ATOM     18  C   UNK d   1      14.705  34.975  70.777  0.00  0.00     0.029 A 
ENDROOT
BRANCH  13  19
ATOM     19  C   UNK d   1      23.004  34.905  67.631  0.00  0.00     0.082 C 
ATOM     20  C   UNK d   1      24.293  34.800  68.415  0.00  0.00     0.040 C 
ATOM     21  C   UNK d   1      24.731  36.233  68.685  0.00  0.00     0.168 C 
ATOM     22  O   UNK d   1      24.462  37.034  67.576  0.00  0.00    -0.391 OA
ATOM     23  C   UNK d   1      24.561  36.307  66.383  0.00  0.00     0.168 C 
ATOM     24  C   UNK d   1      23.422  35.319  66.212  0.00  0.00     0.040 C 
ENDBRANCH  13  19
TORSDOF 1
ENDMDL
