/Users/jonathanwahrer/Desktop/Msc/3_Semester/Drug_Design_Praktikum/waehrer_HTS_screening/HTS_experiment/out/docking_results/vina_output/4x21/1976_docked.pdbqt
 OpenBabel03212202493D

 26 29  0  0  0  0  0  0  0  0999 V2000
   15.4800   33.3690   71.2980 C   0  0  0  0  0  0  0  0  0  0  0  0
   14.7860   33.2010   70.2360 O   0  0  0  0  0  0  0  0  0  0  0  0
   16.1150   32.2820   71.9550 N   0  0  0  0  0  0  0  0  0  0  0  0
   16.8770   32.5290   73.1280 C   0  0  0  0  0  2  0  0  0  0  0  0
   18.2260   31.8170   72.9760 C   0  0  0  0  0  2  0  0  0  0  0  0
   17.8260   30.3570   72.9240 C   0  0  0  0  0  0  0  0  0  0  0  0
   16.7260   29.9840   72.1800 C   0  0  0  0  0  0  0  0  0  0  0  0
   16.3760   28.6660   72.1570 N   0  0  0  0  0  0  0  0  0  0  0  0
   17.0560   27.7230   72.8270 C   0  0  0  0  0  3  0  0  0  0  0  0
   18.1250   28.1050   73.5480 N   0  0  0  0  0  0  0  0  0  0  0  0
   18.5280   29.4090   73.6100 C   0  0  0  0  0  0  0  0  0  0  0  0
   15.9480   30.9760   71.4120 C   0  0  0  0  0  2  0  0  0  0  0  0
   15.5990   34.7670   71.8230 C   0  0  0  0  0  2  0  0  0  0  0  0
   16.6550   35.5140   71.0740 C   0  0  0  0  0  0  0  0  0  0  0  0
   16.4040   36.7130   70.4350 C   0  0  0  0  0  0  0  0  0  0  0  0
   14.7850   37.3530   70.5190 Cl  0  0  0  0  0  0  0  0  0  0  0  0
   17.4120   37.3770   69.7540 C   0  0  0  0  0  3  0  0  0  0  0  0
   18.7010   36.8830   69.6780 C   0  0  0  0  0  0  0  0  0  0  0  0
   18.9670   35.6850   70.3130 C   0  0  0  0  0  0  0  0  0  0  0  0
   19.7340   37.5010   69.0170 O   0  0  0  0  0  0  0  0  0  0  0  0
   17.9500   35.0360   70.9870 C   0  0  0  0  0  3  0  0  0  0  0  0
   20.2540   35.1930   70.2360 O   0  0  0  0  0  0  0  0  0  0  0  0
   21.3950   35.9580   69.9070 C   0  0  0  0  0  2  0  0  0  0  0  0
   21.0950   37.2590   69.2510 C   0  0  0  0  0  2  0  0  0  0  0  0
   19.6270   29.8040   74.3510 O   0  0  0  0  0  0  0  0  0  0  0  0
   19.9230   30.7700   74.2850 H   0  0  0  0  0  0  0  0  0  0  0  0
  1 13  1  0  0  0  0
  1  3  1  0  0  0  0
  2  1  2  0  0  0  0
  3  4  1  0  0  0  0
  5  4  1  0  0  0  0
  6  5  1  0  0  0  0
  6 11  1  0  0  0  0
  7  6  2  0  0  0  0
  8  7  1  0  0  0  0
  8  9  2  0  0  0  0
  9 10  1  0  0  0  0
 10 11  2  0  0  0  0
 11 25  1  0  0  0  0
 12  3  1  0  0  0  0
 12  7  1  0  0  0  0
 14 13  1  0  0  0  0
 15 16  1  0  0  0  0
 15 14  2  0  0  0  0
 17 15  1  0  0  0  0
 18 17  2  0  0  0  0
 18 19  1  0  0  0  0
 19 21  2  0  0  0  0
 20 24  1  0  0  0  0
 20 18  1  0  0  0  0
 21 14  1  0  0  0  0
 22 19  1  0  0  0  0
 23 22  1  0  0  0  0
 24 23  1  0  0  0  0
 26 25  1  0  0  0  0
M  END
>  <Pose>
1

>  <Score>
-8.720

$$$$
