MODEL 1
REMARK VINA RESULT:    -8.130      0.000      0.000
REMARK INTER + INTRA:         -10.126
REMARK INTER:                  -9.555
REMARK INTRA:                  -0.571
REMARK UNBOUND:                -0.571
REMARK  3 active torsions:
REMARK  status: ('A' for Active; 'I' for Inactive)
REMARK    1  A    between atoms: N_15  and  C_19 
REMARK    2  A    between atoms: C_19  and  C_20 
REMARK    3  A    between atoms: C_20  and  C_21 
REMARK       I    between atoms: C_21  and  N_23 
ROOT
ATOM      1 Cl   UNK d   1      21.072  35.970  70.921  0.00  0.00    -0.084 Cl
ATOM      2  C   UNK d   1      19.340  35.981  70.670  0.00  0.00     0.036 A 
ATOM      3  C   UNK d   1      18.510  34.993  71.157  0.00  0.00     0.055 A 
ATOM      4  C   UNK d   1      17.143  34.988  70.966  0.00  0.00     0.077 A 
ATOM      5  C   UNK d   1      16.595  36.035  70.248  0.00  0.00     0.038 A 
ATOM      6  C   UNK d   1      17.415  37.029  69.757  0.00  0.00     0.019 A 
ATOM      7  C   UNK d   1      18.781  37.033  69.948  0.00  0.00     0.025 A 
ATOM      8  C   UNK d   1      15.132  36.052  70.032  0.00  0.00     0.153 A 
ATOM      9  N   UNK d   1      14.391  36.878  69.422  0.00  0.00    -0.270 NA
ATOM     10  C   UNK d   1      12.988  36.522  69.441  0.00  0.00     0.172 A 
ATOM     11  C   UNK d   1      12.928  35.245  70.213  0.00  0.00     0.171 A 
ATOM     12  N   UNK d   1      14.318  35.011  70.553  0.00  0.00    -0.160 N 
ATOM     13  C   UNK d   1      14.963  33.967  71.283  0.00  0.00     0.736 A 
ATOM     14  N   UNK d   1      14.459  32.873  71.881  0.00  0.00     0.024 NA
ATOM     15  N   UNK d   1      15.417  32.162  72.451  0.00  0.00    -0.203 N 
ATOM     16  C   UNK d   1      16.561  32.844  72.196  0.00  0.00     0.364 A 
ATOM     17  O   UNK d   1      17.685  32.464  72.587  0.00  0.00    -0.244 OA
ATOM     18  N   UNK d   1      16.307  33.953  71.482  0.00  0.00    -0.090 N 
ENDROOT
BRANCH  15  19
ATOM     19  C   UNK d   1      15.272  30.922  73.189  0.00  0.00     0.166 C 
BRANCH  19  20
ATOM     20  C   UNK d   1      15.503  29.739  72.238  0.00  0.00     0.124 C 
BRANCH  20  21
ATOM     21  C   UNK d   1      16.702  28.972  72.661  0.00  0.00     0.216 C 
ATOM     22  O   UNK d   1      16.985  27.818  72.254  0.00  0.00    -0.274 OA
ATOM     23  N   UNK d   1      17.588  29.583  73.585  0.00  0.00    -0.370 N 
ATOM     24  H   UNK d   1      17.273  30.176  74.374  0.00  0.00     0.159 HD
ATOM     25  H   UNK d   1      18.609  29.423  73.457  0.00  0.00     0.159 HD
ENDBRANCH  20  21
ENDBRANCH  19  20
ENDBRANCH  15  19
TORSDOF 3
ENDMDL
