MODEL 1
REMARK VINA RESULT:    -7.576      0.000      0.000
REMARK INTER + INTRA:          -7.690
REMARK INTER:                  -8.019
REMARK INTRA:                   0.330
REMARK UNBOUND:                 0.330
REMARK  1 active torsions:
REMARK  status: ('A' for Active; 'I' for Inactive)
REMARK    1  A    between atoms: C_11  and  C_12 
ROOT
ATOM      1 Cl   UNK d   1      19.556  38.280  66.200  0.00  0.00    -0.084 Cl
ATOM      2  C   UNK d   1      20.485  37.146  67.164  0.00  0.00     0.034 A 
ATOM      3  C   UNK d   1      21.594  36.511  66.642  0.00  0.00     0.034 A 
ATOM      4  C   UNK d   1      22.336  35.605  67.410  0.00  0.00    -0.009 A 
ATOM      5  C   UNK d   1      21.905  35.388  68.694  0.00  0.00     0.085 A 
ATOM      6  C   UNK d   1      20.779  36.036  69.221  0.00  0.00     0.039 A 
ATOM      7  C   UNK d   1      20.056  36.925  68.457  0.00  0.00     0.026 A 
ATOM      8  O   UNK d   1      22.626  34.493  69.479  0.00  0.00    -0.292 OA
ATOM      9  C   UNK d   1      23.746  33.818  69.027  0.00  0.00     0.166 A 
ATOM     10  C   UNK d   1      24.180  34.038  67.729  0.00  0.00     0.075 A 
ATOM     11  C   UNK d   1      23.510  34.953  66.798  0.00  0.00     0.107 A 
ATOM     12  C   UNK d   1      25.303  33.343  67.325  0.00  0.00     0.262 A 
ATOM     13  O   UNK d   1      25.748  33.504  66.144  0.00  0.00    -0.267 OA
ATOM     14  N   UNK d   1      25.982  32.484  68.101  0.00  0.00    -0.270 N 
ATOM     15  C   UNK d   1      25.521  32.301  69.362  0.00  0.00     0.332 A 
ATOM     16  O   UNK d   1      26.174  31.490  70.073  0.00  0.00    -0.246 OA
ATOM     17  N   UNK d   1      24.431  32.957  69.799  0.00  0.00    -0.283 N 
ATOM     18  C   UNK d   1      24.000  32.707  71.160  0.00  0.00     0.163 C 
ATOM     19  C   UNK d   1      27.169  31.774  67.622  0.00  0.00     0.164 C 
ENDROOT
BRANCH  11  20
ATOM     20  C   UNK d   1      24.479  36.011  66.362  0.00  0.00     0.078 A 
ATOM     21  C   UNK d   1      24.801  36.168  65.031  0.00  0.00     0.197 A 
ATOM     22  N   UNK d   1      25.683  37.131  64.648  0.00  0.00    -0.281 N 
ATOM     23  O   UNK d   1      24.225  35.350  64.100  0.00  0.00    -0.171 OA
ATOM     24  C   UNK d   1      26.256  37.945  65.569  0.00  0.00     0.332 A 
ATOM     25  C   UNK d   1      25.981  37.248  63.224  0.00  0.00     0.163 C 
ATOM     26  O   UNK d   1      27.071  38.827  65.176  0.00  0.00    -0.246 OA
ATOM     27  N   UNK d   1      25.962  37.816  66.872  0.00  0.00    -0.270 N 
ATOM     28  C   UNK d   1      25.090  36.865  67.258  0.00  0.00     0.262 A 
ATOM     29  C   UNK d   1      26.598  38.708  67.837  0.00  0.00     0.164 C 
ATOM     30  O   UNK d   1      24.829  36.758  68.464  0.00  0.00    -0.267 OA
ENDBRANCH  11  20
TORSDOF 1
ENDMDL
