/Users/jonathanwahrer/Desktop/Msc/3_Semester/Drug_Design_Praktikum/waehrer_HTS_screening/HTS_experiment/out/docking_results/vina_output/4x21/1991_docked.pdbqt
 OpenBabel03212202503D

 31 34  0  0  1  0  0  0  0  0999 V2000
   12.7600   36.8580   69.7810 Cl  0  0  0  0  0  0  0  0  0  0  0  0
   14.2820   36.0240   69.9840 C   0  0  0  0  0  0  0  0  0  0  0  0
   15.4420   36.7180   70.2450 C   0  0  0  0  0  3  0  0  0  0  0  0
   16.6270   36.0480   70.4010 C   0  0  0  0  0  0  0  0  0  0  0  0
   16.6510   34.6520   70.2940 C   0  0  0  0  0  0  0  0  0  0  0  0
   15.4890   33.9450   70.0300 C   0  0  0  0  0  3  0  0  0  0  0  0
   14.3270   34.6510   69.8810 C   0  0  0  0  0  3  0  0  0  0  0  0
   17.7610   33.8310   70.4240 O   0  0  0  0  0  0  0  0  0  0  0  0
   18.9590   34.1030   71.1100 C   0  0  0  0  0  0  0  0  0  0  0  0
   19.7270   35.2270   70.4940 C   0  0  0  0  0  2  0  0  0  0  0  0
   18.9390   36.3380   70.0510 N   0  0  0  0  0  0  0  0  0  0  0  0
   17.7870   36.9320   70.6780 C   0  0  0  0  0  2  0  0  0  0  0  0
   19.3130   36.9720   68.8170 C   0  0  0  0  0  0  0  0  0  0  0  0
   18.6140   37.9470   68.4460 O   0  0  0  0  0  0  0  0  0  0  0  0
   18.6600   34.3360   72.5830 C   0  0  0  0  0  2  0  0  0  0  0  0
   18.7590   33.0310   73.3520 C   0  0  0  0  0  2  0  0  0  0  0  0
   20.0490   32.5380   73.3930 O   0  0  0  0  0  0  0  0  0  0  0  0
   20.7720   32.9450   72.2770 C   0  0  0  0  0  2  0  0  0  0  0  0
   19.8650   32.8700   71.0640 C   0  0  0  0  0  2  0  0  0  0  0  0
   20.4520   36.5080   68.0280 C   0  0  0  0  0  2  0  0  0  0  0  0
   21.5710   37.3690   67.9140 N   0  0  0  0  0  0  0  0  0  0  0  0
   22.1540   37.3330   66.5700 C   0  0  0  0  0  2  0  0  0  0  0  0
   22.6100   35.9490   66.2980 C   0  0  0  0  0  2  0  0  0  0  0  0
   23.3950   35.2800   67.3770 C   0  0  1  0  0  3  0  0  0  0  0  0
   23.3940   35.9180   68.7090 C   0  0  0  0  0  2  0  0  0  0  0  0
   22.6280   37.1750   68.8760 C   0  0  0  0  0  2  0  0  0  0  0  0
   23.0640   33.8380   67.4780 C   0  0  0  0  0  0  0  0  0  0  0  0
   23.5810   33.0340   66.6750 O   0  0  0  0  0  0  0  0  0  0  0  0
   22.1720   33.3860   68.4740 N   0  0  0  0  0  0  0  0  0  0  0  0
   22.6170   32.8720   69.2900 H   0  0  0  0  0  0  0  0  0  0  0  0
   21.1520   33.5060   68.4810 H   0  0  0  0  0  0  0  0  0  0  0  0
  1  2  1  0  0  0  0
  2  3  1  0  0  0  0
  3  4  2  0  0  0  0
  4 12  1  0  0  0  0
  5  4  1  0  0  0  0
  5  8  1  0  0  0  0
  6  5  2  0  0  0  0
  7  2  2  0  0  0  0
  7  6  1  0  0  0  0
  8  9  1  0  0  0  0
  9 15  1  0  0  0  0
 10  9  1  0  0  0  0
 11 10  1  0  0  0  0
 11 12  1  0  0  0  0
 13 11  1  0  0  0  0
 14 13  2  0  0  0  0
 15 16  1  0  0  0  0
 16 17  1  0  0  0  0
 18 17  1  0  0  0  0
 19  9  1  0  0  0  0
 19 18  1  0  0  0  0
 20 13  1  0  0  0  0
 21 20  1  0  0  0  0
 21 26  1  0  0  0  0
 22 21  1  0  0  0  0
 23 22  1  0  0  0  0
 23 24  1  0  0  0  0
 24 27  1  1  0  0  0
 24 25  1  0  0  0  0
 25 26  1  0  0  0  0
 27 29  1  0  0  0  0
 28 27  2  0  0  0  0
 29 31  1  0  0  0  0
 29 30  1  0  0  0  0
M  END
>  <Pose>
1

>  <Score>
-9.006

$$$$
