MODEL 1
REMARK VINA RESULT:    -9.006      0.000      0.000
REMARK INTER + INTRA:         -11.405
REMARK INTER:                 -10.585
REMARK INTRA:                  -0.820
REMARK UNBOUND:                -0.820
REMARK  3 active torsions:
REMARK  status: ('A' for Active; 'I' for Inactive)
REMARK       I    between atoms: N_11  and  C_13 
REMARK    1  A    between atoms: C_13  and  C_15 
REMARK    2  A    between atoms: C_15  and  N_16 
REMARK    3  A    between atoms: C_19  and  C_22 
REMARK       I    between atoms: C_22  and  N_24 
ROOT
ATOM      1 Cl   UNK d   1      12.760  36.858  69.781  0.00  0.00    -0.084 Cl
ATOM      2  C   UNK d   1      14.282  36.024  69.984  0.00  0.00     0.034 A 
ATOM      3  C   UNK d   1      15.442  36.718  70.245  0.00  0.00     0.035 A 
ATOM      4  C   UNK d   1      16.627  36.048  70.401  0.00  0.00    -0.005 A 
ATOM      5  C   UNK d   1      16.651  34.652  70.294  0.00  0.00     0.078 A 
ATOM      6  C   UNK d   1      15.489  33.945  70.030  0.00  0.00     0.039 A 
ATOM      7  C   UNK d   1      14.327  34.651  69.881  0.00  0.00     0.026 A 
ATOM      8  O   UNK d   1      17.761  33.831  70.424  0.00  0.00    -0.338 OA
ATOM      9  C   UNK d   1      18.959  34.103  71.110  0.00  0.00     0.088 C 
ATOM     10  C   UNK d   1      19.727  35.227  70.494  0.00  0.00     0.164 C 
ATOM     11  N   UNK d   1      18.939  36.338  70.051  0.00  0.00    -0.344 N 
ATOM     12  C   UNK d   1      17.787  36.932  70.678  0.00  0.00     0.167 C 
ATOM     13  C   UNK d   1      19.313  36.972  68.817  0.00  0.00     0.248 C 
ATOM     14  O   UNK d   1      18.614  37.947  68.446  0.00  0.00    -0.271 OA
ATOM     15  C   UNK d   1      18.660  34.336  72.583  0.00  0.00     0.066 C 
ATOM     16  C   UNK d   1      18.759  33.031  73.352  0.00  0.00     0.170 C 
ATOM     17  O   UNK d   1      20.049  32.538  73.393  0.00  0.00    -0.391 OA
ATOM     18  C   UNK d   1      20.772  32.945  72.277  0.00  0.00     0.170 C 
ATOM     19  C   UNK d   1      19.865  32.870  71.064  0.00  0.00     0.066 C 
ENDROOT
BRANCH  13  20
ATOM     20  C   UNK d   1      20.452  36.508  68.028  0.00  0.00     0.374 C 
BRANCH  20  21
ATOM     21  N   UNK d   1      21.571  37.369  67.914  0.00  0.00     0.097 N 
ATOM     22  C   UNK d   1      22.154  37.333  66.570  0.00  0.00     0.273 C 
ATOM     23  C   UNK d   1      22.610  35.949  66.298  0.00  0.00     0.044 C 
ATOM     24  C   UNK d   1      23.395  35.280  67.377  0.00  0.00     0.081 C 
ATOM     25  C   UNK d   1      23.394  35.918  68.709  0.00  0.00     0.044 C 
ATOM     26  C   UNK d   1      22.628  37.175  68.876  0.00  0.00     0.273 C 
BRANCH  24  27
ATOM     27  C   UNK d   1      23.064  33.838  67.478  0.00  0.00     0.219 C 
ATOM     28  O   UNK d   1      23.581  33.034  66.675  0.00  0.00    -0.273 OA
ATOM     29  N   UNK d   1      22.172  33.386  68.474  0.00  0.00    -0.370 N 
ATOM     30  H   UNK d   1      22.617  32.872  69.290  0.00  0.00     0.159 HD
ATOM     31  H   UNK d   1      21.152  33.506  68.481  0.00  0.00     0.159 HD
ENDBRANCH  24  27
ENDBRANCH  20  21
ENDBRANCH  13  20
TORSDOF 3
ENDMDL
