MODEL 1
REMARK VINA RESULT:    -8.783      0.000      0.000
REMARK INTER + INTRA:         -10.818
REMARK INTER:                 -10.324
REMARK INTRA:                  -0.495
REMARK UNBOUND:                -0.495
REMARK  3 active torsions:
REMARK  status: ('A' for Active; 'I' for Inactive)
REMARK    1  A    between atoms: S_1  and  N_4 
REMARK    2  A    between atoms: S_1  and  C_23 
REMARK       I    between atoms: N_7  and  C_10 
REMARK    3  A    between atoms: C_10  and  C_12 
ROOT
ATOM      1  N   UNK d   1      23.548  34.462  68.020  0.00  0.00    -0.303 N 
ATOM      2  C   UNK d   1      22.194  34.553  67.567  0.00  0.00     0.155 C 
ATOM      3  C   UNK d   1      21.233  34.984  68.644  0.00  0.00     0.146 C 
ATOM      4  N   UNK d   1      21.814  35.954  69.543  0.00  0.00    -0.345 N 
ATOM      5  C   UNK d   1      23.148  36.472  69.399  0.00  0.00     0.146 C 
ATOM      6  C   UNK d   1      24.081  35.639  68.607  0.00  0.00     0.155 C 
ATOM      7  C   UNK d   1      21.022  36.423  70.626  0.00  0.00     0.260 C 
ATOM      8  O   UNK d   1      21.477  37.280  71.455  0.00  0.00    -0.267 OA
ENDROOT
BRANCH   7   9
ATOM      9  C   UNK d   1      19.658  35.935  70.826  0.00  0.00     0.118 A 
ATOM     10  C   UNK d   1      19.360  34.797  71.550  0.00  0.00     0.141 A 
ATOM     11  N   UNK d   1      18.079  34.409  71.693  0.00  0.00    -0.242 NA
ATOM     12  C   UNK d   1      17.039  35.076  71.162  0.00  0.00     0.136 A 
ATOM     13  N   UNK d   1      17.312  36.188  70.455  0.00  0.00    -0.273 N 
ATOM     14  C   UNK d   1      15.730  34.644  71.332  0.00  0.00     0.051 A 
ATOM     15  C   UNK d   1      16.283  36.871  69.915  0.00  0.00     0.102 A 
ATOM     16  C   UNK d   1      18.580  36.609  70.288  0.00  0.00     0.270 A 
ATOM     17  C   UNK d   1      14.972  36.466  70.065  0.00  0.00     0.018 A 
ATOM     18  C   UNK d   1      14.658  35.330  70.786  0.00  0.00     0.005 A 
ATOM     19  O   UNK d   1      18.836  37.646  69.627  0.00  0.00    -0.266 OA
ENDBRANCH   7   9
BRANCH   1  20
ATOM     20  S   UNK d   1      24.589  33.637  66.970  0.00  0.00     0.267 S 
ATOM     21  O   UNK d   1      25.586  32.840  67.719  0.00  0.00    -0.200 OA
ATOM     22  O   UNK d   1      23.766  32.728  66.085  0.00  0.00    -0.200 OA
BRANCH  20  23
ATOM     23  C   UNK d   1      25.415  34.822  65.942  0.00  0.00     0.121 A 
ATOM     24  S   UNK d   1      24.756  36.039  64.947  0.00  0.00    -0.064 SA
ATOM     25  C   UNK d   1      26.203  36.700  64.335  0.00  0.00     0.075 A 
ATOM     26  C   UNK d   1      27.169  35.940  64.935  0.00  0.00     0.033 A 
ATOM     27 Cl   UNK d   1      26.445  38.043  63.199  0.00  0.00    -0.076 Cl
ATOM     28  C   UNK d   1      26.766  34.972  65.763  0.00  0.00     0.035 A 
ENDBRANCH  20  23
ENDBRANCH   1  20
TORSDOF 3
ENDMDL
