MODEL 1
REMARK VINA RESULT:    -9.426      0.000      0.000
REMARK INTER + INTRA:         -11.031
REMARK INTER:                 -11.079
REMARK INTRA:                   0.048
REMARK UNBOUND:                 0.048
REMARK  3 active torsions:
REMARK  status: ('A' for Active; 'I' for Inactive)
REMARK    1  A    between atoms: S_1  and  N_4 
REMARK    2  A    between atoms: S_1  and  C_16 
REMARK       I    between atoms: N_7  and  C_10 
REMARK    3  A    between atoms: C_10  and  C_12 
ROOT
ATOM      1  S   UNK d   1      20.228  34.786  71.639  0.00  0.00     0.262 S 
ATOM      2  O   UNK d   1      20.769  36.119  72.135  0.00  0.00    -0.200 OA
ATOM      3  O   UNK d   1      20.360  33.862  72.849  0.00  0.00    -0.200 OA
ENDROOT
BRANCH   1   4
ATOM      4  N   UNK d   1      21.150  34.178  70.382  0.00  0.00    -0.304 N 
ATOM      5  C   UNK d   1      22.214  33.328  70.692  0.00  0.00     0.155 C 
ATOM      6  C   UNK d   1      22.801  32.631  69.455  0.00  0.00     0.146 C 
ATOM      7  N   UNK d   1      22.836  33.509  68.323  0.00  0.00    -0.349 N 
ATOM      8  C   UNK d   1      21.669  34.320  68.055  0.00  0.00     0.146 C 
ATOM      9  C   UNK d   1      23.972  33.571  67.508  0.00  0.00     0.224 C 
ATOM     10  C   UNK d   1      21.398  35.118  69.315  0.00  0.00     0.155 C 
ATOM     11  O   UNK d   1      24.975  32.858  67.761  0.00  0.00    -0.273 OA
BRANCH   9  12
ATOM     12  C   UNK d   1      24.055  34.472  66.315  0.00  0.00     0.078 C 
ATOM     13  C   UNK d   1      25.330  34.310  65.521  0.00  0.00     0.014 C 
ATOM     14  C   UNK d   1      25.933  35.409  66.392  0.00  0.00     0.002 C 
ATOM     15  C   UNK d   1      24.501  35.862  66.694  0.00  0.00     0.014 C 
ENDBRANCH   9  12
ENDBRANCH   1   4
BRANCH   1  16
ATOM     16  C   UNK d   1      18.514  34.973  71.338  0.00  0.00     0.104 A 
ATOM     17  C   UNK d   1      17.623  34.040  71.906  0.00  0.00     0.066 A 
ATOM     18  C   UNK d   1      16.270  34.099  71.658  0.00  0.00     0.098 A 
ATOM     19  C   UNK d   1      15.707  35.059  70.848  0.00  0.00     0.070 A 
ATOM     20  O   UNK d   1      15.409  33.164  72.233  0.00  0.00    -0.335 OA
ATOM     21  C   UNK d   1      16.572  35.971  70.295  0.00  0.00     0.058 A 
ATOM     22  N   UNK d   1      14.309  35.063  70.631  0.00  0.00    -0.323 N 
ATOM     23  C   UNK d   1      17.953  35.929  70.536  0.00  0.00     0.059 A 
ATOM     24 Cl   UNK d   1      18.975  37.172  69.855  0.00  0.00    -0.083 Cl
ATOM     25  C   UNK d   1      13.444  34.100  71.222  0.00  0.00     0.251 C 
ATOM     26  H   UNK d   1      13.886  35.796  70.015  0.00  0.00     0.169 HD
ATOM     27  O   UNK d   1      12.204  34.196  71.282  0.00  0.00    -0.270 OA
ATOM     28  C   UNK d   1      14.102  32.900  71.802  0.00  0.00     0.217 C 
ATOM     29  C   UNK d   1      14.155  31.777  70.790  0.00  0.00     0.050 C 
ENDBRANCH   1  16
TORSDOF 3
ENDMDL
