MODEL 1
REMARK VINA RESULT:    -8.845      0.000      0.000
REMARK INTER + INTRA:         -10.443
REMARK INTER:                  -9.879
REMARK INTRA:                  -0.564
REMARK UNBOUND:                -0.564
REMARK  2 active torsions:
REMARK  status: ('A' for Active; 'I' for Inactive)
REMARK    1  A    between atoms: C_4  and  N_8 
REMARK    2  A    between atoms: C_14  and  C_18 
ROOT
ATOM      1  N   UNK d   1      19.423  36.380  69.490  0.00  0.00    -0.246 N 
ATOM      2  C   UNK d   1      18.540  37.405  69.050  0.00  0.00     0.268 C 
ATOM      3  O   UNK d   1      18.719  38.099  68.035  0.00  0.00    -0.269 OA
ATOM      4  C   UNK d   1      17.405  37.502  69.984  0.00  0.00     0.285 C 
ATOM      5  O   UNK d   1      16.180  37.793  69.475  0.00  0.00    -0.260 OA
ATOM      6  N   UNK d   1      15.337  37.046  70.276  0.00  0.00    -0.264 N 
ATOM      7  C   UNK d   1      15.972  35.793  70.542  0.00  0.00     0.083 C 
ATOM      8  C   UNK d   1      17.261  36.056  70.359  0.00  0.00     0.080 C 
ATOM      9  C   UNK d   1      18.612  35.515  70.328  0.00  0.00     0.266 C 
ATOM     10  O   UNK d   1      18.960  34.475  70.942  0.00  0.00    -0.267 OA
ATOM     11  H   UNK d   1      14.418  37.378  70.611  0.00  0.00     0.194 HD
ENDROOT
BRANCH   1  12
ATOM     12  C   UNK d   1      20.800  36.148  69.217  0.00  0.00     0.047 A 
ATOM     13  C   UNK d   1      21.232  35.052  68.508  0.00  0.00     0.054 A 
ATOM     14  C   UNK d   1      22.599  34.909  68.287  0.00  0.00     0.036 A 
ATOM     15 Cl   UNK d   1      23.217  33.525  67.391  0.00  0.00    -0.084 Cl
ATOM     16  C   UNK d   1      23.486  35.848  68.771  0.00  0.00     0.024 A 
ATOM     17  C   UNK d   1      23.049  36.953  69.483  0.00  0.00     0.004 A 
ATOM     18  C   UNK d   1      21.712  37.098  69.703  0.00  0.00     0.030 A 
ENDBRANCH   1  12
BRANCH   7  19
ATOM     19  C   UNK d   1      15.372  34.543  70.964  0.00  0.00     0.036 A 
ATOM     20  C   UNK d   1      15.904  33.791  72.017  0.00  0.00     0.127 A 
ATOM     21  N   UNK d   1      15.172  32.682  72.192  0.00  0.00    -0.284 N 
ATOM     22  N   UNK d   1      14.188  32.691  71.290  0.00  0.00    -0.177 NA
ATOM     23  C   UNK d   1      15.348  31.607  73.163  0.00  0.00     0.179 C 
ATOM     24  C   UNK d   1      14.300  33.812  70.541  0.00  0.00     0.065 A 
ATOM     25  C   UNK d   1      13.409  34.190  69.415  0.00  0.00     0.073 C 
ENDBRANCH   7  19
TORSDOF 2
ENDMDL
