MODEL 1
REMARK VINA RESULT:    -7.970      0.000      0.000
REMARK INTER + INTRA:          -8.887
REMARK INTER:                  -8.902
REMARK INTRA:                   0.015
REMARK UNBOUND:                 0.015
REMARK  2 active torsions:
REMARK  status: ('A' for Active; 'I' for Inactive)
REMARK    1  A    between atoms: C_4  and  C_10 
REMARK    2  A    between atoms: C_5  and  O_8 
ROOT
ATOM      1  C   UNK d   1      19.283  33.399  70.573  0.00  0.00     0.188 A 
ATOM      2  N   UNK d   1      17.999  33.090  70.727  0.00  0.00    -0.107 N 
ATOM      3  C   UNK d   1      17.863  31.744  70.913  0.00  0.00     0.735 A 
ATOM      4  N   UNK d   1      19.124  31.253  70.868  0.00  0.00     0.045 NA
ATOM      5  N   UNK d   1      19.976  32.221  70.667  0.00  0.00    -0.114 NA
ATOM      6  N   UNK d   1      16.572  31.417  71.073  0.00  0.00    -0.174 N 
ATOM      7  C   UNK d   1      15.836  32.519  71.001  0.00  0.00     0.165 A 
ATOM      8  C   UNK d   1      16.734  33.578  70.784  0.00  0.00     0.170 A 
ATOM      9  N   UNK d   1      16.267  34.829  70.681  0.00  0.00    -0.286 N 
ATOM     10  C   UNK d   1      14.925  35.020  70.789  0.00  0.00     0.332 A 
ATOM     11  O   UNK d   1      14.510  36.217  70.685  0.00  0.00    -0.246 OA
ATOM     12  N   UNK d   1      14.033  34.054  70.991  0.00  0.00    -0.269 N 
ATOM     13  C   UNK d   1      14.495  32.806  71.097  0.00  0.00     0.282 A 
ATOM     14  O   UNK d   1      13.695  31.854  71.289  0.00  0.00    -0.265 OA
ATOM     15  C   UNK d   1      12.593  34.346  71.095  0.00  0.00     0.164 C 
ATOM     16  C   UNK d   1      17.130  35.959  70.498  0.00  0.00     0.163 C 
ATOM     17  C   UNK d   1      16.041  30.087  71.290  0.00  0.00     0.176 C 
ENDROOT
BRANCH   1  18
ATOM     18  C   UNK d   1      19.987  34.659  70.355  0.00  0.00     0.047 A 
ATOM     19  C   UNK d   1      20.074  35.212  69.080  0.00  0.00     0.037 A 
ATOM     20  C   UNK d   1      20.670  36.431  68.902  0.00  0.00     0.012 A 
ATOM     21 Br   UNK d   1      20.799  37.207  67.153  0.00  0.00    -0.051 Br
ATOM     22  C   UNK d   1      21.208  37.170  69.941  0.00  0.00     0.022 A 
ATOM     23  C   UNK d   1      21.114  36.608  71.203  0.00  0.00     0.039 A 
ATOM     24  C   UNK d   1      20.522  35.394  71.392  0.00  0.00     0.082 A 
BRANCH  24  25
ATOM     25  O   UNK d   1      20.420  34.810  72.674  0.00  0.00    -0.355 OA
ATOM     26  C   UNK d   1      19.169  34.711  73.329  0.00  0.00     0.210 C 
ENDBRANCH  24  25
ENDBRANCH   1  18
TORSDOF 2
ENDMDL
