/Users/jonathanwahrer/Desktop/Msc/3_Semester/Drug_Design_Praktikum/waehrer_HTS_screening/HTS_experiment/out/docking_results/vina_output/4x21/2017_docked.pdbqt
 OpenBabel03212202503D

 24 27  0  0  0  0  0  0  0  0999 V2000
   13.1420   33.1350   71.9130 Cl  0  0  0  0  0  0  0  0  0  0  0  0
   14.7050   33.7810   71.4430 C   0  0  0  0  0  0  0  0  0  0  0  0
   14.8790   35.1000   71.0720 C   0  0  0  0  0  2  0  0  0  0  0  0
   16.0930   35.5900   70.7090 N   0  0  0  0  0  0  0  0  0  0  0  0
   17.2010   34.8300   70.6880 C   0  0  0  0  0  0  0  0  0  0  0  0
   18.4090   35.3060   70.3300 N   0  0  0  0  0  0  0  0  0  0  0  0
   18.5870   36.5880   69.9670 C   0  0  0  0  0  0  0  0  0  0  0  0
   17.4410   37.3860   69.9870 C   0  0  0  0  0  2  0  0  0  0  0  0
   16.2100   36.8880   70.3550 C   0  0  0  0  0  0  0  0  0  0  0  0
   15.1680   37.6190   70.3710 O   0  0  0  0  0  0  0  0  0  0  0  0
   17.0550   33.4990   71.0560 C   0  0  0  0  0  3  0  0  0  0  0  0
   15.8300   32.9830   71.4280 C   0  0  0  0  0  3  0  0  0  0  0  0
   19.8980   37.1600   69.5650 C   0  0  0  0  0  2  0  0  0  0  0  0
   20.3160   36.5620   68.3510 N   0  0  0  0  0  0  0  0  0  0  0  0
   21.4910   35.7750   68.3720 C   0  0  0  0  0  2  0  0  0  0  0  0
   22.2520   35.7480   67.0550 C   0  0  0  0  0  2  0  0  0  0  0  0
   22.3960   37.1690   66.6390 C   0  0  0  0  0  0  0  0  0  0  0  0
   21.2460   37.9290   66.6920 C   0  0  0  0  0  0  0  0  0  0  0  0
   23.6120   37.6670   66.2340 C   0  0  0  0  0  3  0  0  0  0  0  0
   21.3260   39.2170   66.3260 N   0  0  0  0  0  0  0  0  0  0  0  0
   20.0050   37.2580   67.1480 C   0  0  0  0  0  2  0  0  0  0  0  0
   22.5190   39.7490   65.9170 C   0  0  0  0  0  0  0  0  0  0  0  0
   23.6270   38.9710   65.8790 N   0  0  0  0  0  0  0  0  0  0  0  0
   22.6210   41.1750   65.5100 C   0  0  0  0  0  1  0  0  0  0  0  0
  2  1  1  0  0  0  0
  3  2  1  0  0  0  0
  4  3  1  0  0  0  0
  5  4  1  0  0  0  0
  5 11  2  0  0  0  0
  6  5  1  0  0  0  0
  7  8  1  0  0  0  0
  7  6  2  0  0  0  0
  8  9  1  0  0  0  0
  9 10  2  0  0  0  0
  9  4  1  0  0  0  0
 11 12  1  0  0  0  0
 12  2  2  0  0  0  0
 13  7  1  0  0  0  0
 14 15  1  0  0  0  0
 14 13  1  0  0  0  0
 16 15  1  0  0  0  0
 17 18  2  0  0  0  0
 17 16  1  0  0  0  0
 18 21  1  0  0  0  0
 19 17  1  0  0  0  0
 20 18  1  0  0  0  0
 21 14  1  0  0  0  0
 22 20  2  0  0  0  0
 23 22  1  0  0  0  0
 23 19  2  0  0  0  0
 24 22  1  0  0  0  0
M  END
>  <Pose>
1

>  <Score>
-8.599

$$$$
