MODEL 1
REMARK VINA RESULT:    -8.599      0.000      0.000
REMARK INTER + INTRA:          -9.985
REMARK INTER:                  -9.605
REMARK INTRA:                  -0.380
REMARK UNBOUND:                -0.380
REMARK  2 active torsions:
REMARK  status: ('A' for Active; 'I' for Inactive)
REMARK    1  A    between atoms: C_7  and  C_11 
REMARK    2  A    between atoms: C_11  and  N_12 
ROOT
ATOM      1 Cl   UNK d   1      13.142  33.135  71.913  0.00  0.00    -0.083 Cl
ATOM      2  C   UNK d   1      14.705  33.781  71.443  0.00  0.00     0.050 A 
ATOM      3  C   UNK d   1      14.879  35.100  71.072  0.00  0.00     0.125 A 
ATOM      4  N   UNK d   1      16.093  35.590  70.709  0.00  0.00    -0.272 N 
ATOM      5  C   UNK d   1      17.201  34.830  70.688  0.00  0.00     0.137 A 
ATOM      6  N   UNK d   1      18.409  35.306  70.330  0.00  0.00    -0.233 NA
ATOM      7  C   UNK d   1      18.587  36.588  69.967  0.00  0.00     0.059 A 
ATOM      8  C   UNK d   1      17.441  37.386  69.987  0.00  0.00     0.103 A 
ATOM      9  C   UNK d   1      16.210  36.888  70.355  0.00  0.00     0.255 A 
ATOM     10  O   UNK d   1      15.168  37.619  70.371  0.00  0.00    -0.268 OA
ATOM     11  C   UNK d   1      17.055  33.499  71.056  0.00  0.00     0.053 A 
ATOM     12  C   UNK d   1      15.830  32.983  71.428  0.00  0.00     0.029 A 
ENDROOT
BRANCH   7  13
ATOM     13  C   UNK d   1      19.898  37.160  69.565  0.00  0.00     0.177 C 
BRANCH  13  14
ATOM     14  N   UNK d   1      20.316  36.562  68.351  0.00  0.00    -0.401 N 
ATOM     15  C   UNK d   1      21.491  35.775  68.372  0.00  0.00     0.122 C 
ATOM     16  C   UNK d   1      22.252  35.748  67.055  0.00  0.00     0.061 C 
ATOM     17  C   UNK d   1      22.396  37.169  66.639  0.00  0.00    -0.013 A 
ATOM     18  C   UNK d   1      21.246  37.929  66.692  0.00  0.00     0.061 A 
ATOM     19  C   UNK d   1      23.612  37.667  66.234  0.00  0.00     0.128 A 
ATOM     20  N   UNK d   1      21.326  39.217  66.326  0.00  0.00    -0.236 NA
ATOM     21  C   UNK d   1      20.005  37.258  67.148  0.00  0.00     0.177 C 
ATOM     22  C   UNK d   1      22.519  39.749  65.917  0.00  0.00     0.122 A 
ATOM     23  N   UNK d   1      23.627  38.971  65.879  0.00  0.00    -0.245 NA
ATOM     24  C   UNK d   1      22.621  41.175  65.510  0.00  0.00     0.093 C 
ENDBRANCH  13  14
ENDBRANCH   7  13
TORSDOF 2
ENDMDL
