MODEL 1
REMARK VINA RESULT:    -7.264      0.000      0.000
REMARK INTER + INTRA:          -6.588
REMARK INTER:                  -8.113
REMARK INTRA:                   1.525
REMARK UNBOUND:                 1.525
REMARK  2 active torsions:
REMARK  status: ('A' for Active; 'I' for Inactive)
REMARK    1  A    between atoms: C_4  and  C_10 
REMARK    2  A    between atoms: C_5  and  O_8 
ROOT
ATOM      1  C   UNK d   1      16.867  32.660  72.846  0.00  0.00     0.048 C 
ATOM      2  C   UNK d   1      17.943  31.711  72.249  0.00  0.00     0.178 C 
ATOM      3  C   UNK d   1      17.465  31.755  70.785  0.00  0.00     0.233 C 
ATOM      4  O   UNK d   1      18.203  31.949  69.836  0.00  0.00    -0.273 OA
ATOM      5  N   UNK d   1      16.038  31.535  70.710  0.00  0.00    -0.334 N 
ATOM      6  C   UNK d   1      15.468  30.889  71.907  0.00  0.00     0.105 C 
ATOM      7  N   UNK d   1      16.403  29.786  72.169  0.00  0.00    -0.334 N 
ATOM      8  C   UNK d   1      17.691  30.277  72.591  0.00  0.00     0.233 C 
ATOM      9  O   UNK d   1      18.533  29.581  73.187  0.00  0.00    -0.273 OA
ATOM     10  C   UNK d   1      15.685  31.882  73.080  0.00  0.00     0.064 C 
ATOM     11  C   UNK d   1      14.069  30.468  71.797  0.00  0.00     0.063 C 
ATOM     12  H   UNK d   1      15.458  31.814  69.914  0.00  0.00     0.165 HD
ATOM     13  H   UNK d   1      16.155  28.797  72.056  0.00  0.00     0.165 HD
ENDROOT
BRANCH   1  14
ATOM     14  C   UNK d   1      16.906  33.800  71.938  0.00  0.00    -0.018 A 
ATOM     15  C   UNK d   1      18.172  34.291  71.593  0.00  0.00     0.029 A 
ATOM     16  C   UNK d   1      18.315  35.433  70.802  0.00  0.00     0.011 A 
ATOM     17 Br   UNK d   1      20.050  36.077  70.364  0.00  0.00    -0.051 Br
ATOM     18  C   UNK d   1      17.232  36.109  70.336  0.00  0.00     0.022 A 
ATOM     19  C   UNK d   1      15.990  35.644  70.663  0.00  0.00     0.038 A 
ATOM     20  C   UNK d   1      15.827  34.513  71.445  0.00  0.00     0.074 A 
BRANCH  20  21
ATOM     21  O   UNK d   1      14.600  34.016  71.781  0.00  0.00    -0.355 OA
ATOM     22  C   UNK d   1      13.509  34.203  70.920  0.00  0.00     0.210 C 
ENDBRANCH  20  21
ENDBRANCH   1  14
TORSDOF 2
ENDMDL
