MODEL 1
REMARK VINA RESULT:    -7.325      0.000      0.000
REMARK INTER + INTRA:          -9.929
REMARK INTER:                  -9.252
REMARK INTRA:                  -0.677
REMARK UNBOUND:                -0.677
REMARK  5 active torsions:
REMARK  status: ('A' for Active; 'I' for Inactive)
REMARK    1  A    between atoms: C_11  and  C_23 
REMARK    2  A    between atoms: N_16  and  C_19 
REMARK    3  A    between atoms: C_19  and  C_20 
REMARK    4  A    between atoms: C_20  and  O_21 
REMARK    5  A    between atoms: C_23  and  O_24 
ROOT
ATOM      1 Cl   UNK d   1      15.184  32.357  72.588  0.00  0.00    -0.082 Cl
ATOM      2  C   UNK d   1      15.840  33.742  71.718  0.00  0.00     0.061 A 
ATOM      3  C   UNK d   1      17.232  33.941  71.745  0.00  0.00     0.066 A 
ATOM      4  C   UNK d   1      17.736  35.011  71.066  0.00  0.00     0.020 A 
ATOM      5  C   UNK d   1      16.918  35.890  70.371  0.00  0.00     0.019 A 
ATOM      6  C   UNK d   1      15.559  35.671  70.365  0.00  0.00    -0.060 A 
ATOM      7  C   UNK d   1      15.009  34.600  71.033  0.00  0.00     0.033 A 
ATOM      8  C   UNK d   1      14.695  36.640  69.604  0.00  0.00     0.048 C 
ATOM      9  C   UNK d   1      19.227  34.919  71.146  0.00  0.00     0.279 C 
ATOM     10  N   UNK d   1      19.896  36.152  71.273  0.00  0.00     0.116 N 
ATOM     11  C   UNK d   1      20.149  36.626  69.942  0.00  0.00     0.264 C 
ATOM     12  C   UNK d   1      19.848  35.552  68.978  0.00  0.00     0.130 C 
ATOM     13  C   UNK d   1      19.792  34.326  69.894  0.00  0.00     0.147 C 
ATOM     14  C   UNK d   1      21.201  33.989  69.988  0.00  0.00     0.235 C 
ATOM     15  O   UNK d   1      21.925  33.568  70.917  0.00  0.00    -0.272 OA
ATOM     16  N   UNK d   1      21.731  34.246  68.661  0.00  0.00    -0.286 N 
ATOM     17  C   UNK d   1      20.885  35.189  68.020  0.00  0.00     0.233 C 
ATOM     18  O   UNK d   1      21.028  35.605  66.863  0.00  0.00    -0.272 OA
ATOM     19  C   UNK d   1      19.448  33.977  72.240  0.00  0.00     0.267 C 
ATOM     20  O   UNK d   1      20.480  33.736  72.942  0.00  0.00    -0.270 OA
ATOM     21  N   UNK d   1      18.252  33.270  72.474  0.00  0.00    -0.323 N 
ATOM     22  H   UNK d   1      19.361  36.855  71.838  0.00  0.00     0.318 HD
ATOM     23  H   UNK d   1      18.081  32.413  73.059  0.00  0.00     0.169 HD
ENDROOT
BRANCH  11  24
ATOM     24  C   UNK d   1      21.520  37.262  69.811  0.00  0.00     0.148 C 
ATOM     25  C   UNK d   1      21.896  37.896  71.109  0.00  0.00     0.041 C 
BRANCH  24  26
ATOM     26  O   UNK d   1      21.705  38.017  68.691  0.00  0.00    -0.394 OA
ATOM     27  H   UNK d   1      21.669  38.996  68.842  0.00  0.00     0.210 HD
ENDBRANCH  24  26
ENDBRANCH  11  24
BRANCH  16  28
ATOM     28  C   UNK d   1      22.897  33.667  68.046  0.00  0.00     0.161 C 
BRANCH  28  29
ATOM     29  C   UNK d   1      24.173  34.384  68.283  0.00  0.00     0.187 C 
BRANCH  29  30
ATOM     30  O   UNK d   1      24.327  35.615  67.719  0.00  0.00    -0.394 OA
ATOM     31  C   UNK d   1      24.941  36.556  68.519  0.00  0.00     0.201 C 
ENDBRANCH  29  30
ENDBRANCH  28  29
ENDBRANCH  16  28
TORSDOF 5
ENDMDL
