MODEL 1
REMARK VINA RESULT:    -8.621      0.000      0.000
REMARK INTER + INTRA:         -12.177
REMARK INTER:                 -11.141
REMARK INTRA:                  -1.036
REMARK UNBOUND:                -1.036
REMARK  5 active torsions:
REMARK  status: ('A' for Active; 'I' for Inactive)
REMARK    1  A    between atoms: C_4  and  C_10 
REMARK    2  A    between atoms: C_5  and  O_8 
REMARK    3  A    between atoms: C_18  and  C_19 
REMARK    4  A    between atoms: C_19  and  N_20 
REMARK    5  A    between atoms: N_23  and  C_26 
ROOT
ATOM      1  C   UNK d   1      13.305  31.914  72.363  0.00  0.00     0.055 C 
ATOM      2  C   UNK d   1      13.933  32.945  71.898  0.00  0.00     0.128 A 
ATOM      3  O   UNK d   1      15.256  33.243  72.072  0.00  0.00    -0.305 OA
ATOM      4  C   UNK d   1      15.545  34.433  71.407  0.00  0.00     0.101 A 
ATOM      5  C   UNK d   1      14.453  34.954  70.790  0.00  0.00     0.051 A 
ATOM      6  C   UNK d   1      14.535  36.140  70.051  0.00  0.00     0.021 A 
ATOM      7  C   UNK d   1      15.708  36.834  69.914  0.00  0.00     0.041 A 
ATOM      8  C   UNK d   1      16.809  36.258  70.574  0.00  0.00     0.118 A 
ATOM      9  C   UNK d   1      16.764  35.112  71.291  0.00  0.00     0.039 A 
ATOM     10  O   UNK d   1      17.986  37.019  70.417  0.00  0.00    -0.191 OA
ATOM     11  C   UNK d   1      13.362  34.017  71.081  0.00  0.00     0.218 A 
ATOM     12  O   UNK d   1      12.162  34.120  70.694  0.00  0.00    -0.284 OA
ENDROOT
BRANCH   1  13
ATOM     13  C   UNK d   1      13.861  30.840  73.174  0.00  0.00     0.001 A 
ATOM     14  C   UNK d   1      14.959  30.144  72.741  0.00  0.00     0.033 A 
ATOM     15  C   UNK d   1      15.479  29.080  73.500  0.00  0.00     0.011 A 
ATOM     16 Br   UNK d   1      17.001  28.096  72.939  0.00  0.00    -0.051 Br
ATOM     17  C   UNK d   1      14.871  28.740  74.688  0.00  0.00     0.022 A 
ATOM     18  C   UNK d   1      13.781  29.427  75.116  0.00  0.00     0.039 A 
ATOM     19  C   UNK d   1      13.262  30.489  74.362  0.00  0.00     0.078 A 
BRANCH  19  20
ATOM     20  O   UNK d   1      12.180  31.210  74.735  0.00  0.00    -0.355 OA
ATOM     21  C   UNK d   1      11.133  30.804  75.547  0.00  0.00     0.210 C 
ENDBRANCH  19  20
ENDBRANCH   1  13
BRANCH   9  22
ATOM     22  C   UNK d   1      17.904  34.533  72.027  0.00  0.00     0.279 C 
BRANCH  22  23
ATOM     23  N   UNK d   1      18.985  34.181  71.137  0.00  0.00    -0.064 N 
ATOM     24  C   UNK d   1      18.876  32.777  70.784  0.00  0.00     0.254 C 
ATOM     25  C   UNK d   1      20.154  32.054  70.707  0.00  0.00     0.144 C 
ATOM     26  N   UNK d   1      21.291  32.821  70.308  0.00  0.00    -0.410 N 
ATOM     27  C   UNK d   1      21.153  34.203  70.218  0.00  0.00     0.144 C 
ATOM     28  C   UNK d   1      20.240  34.714  71.363  0.00  0.00     0.254 C 
ATOM     29  H   UNK d   1      18.642  34.684  70.196  0.00  0.00     0.280 HD
BRANCH  26  30
ATOM     30  C   UNK d   1      22.561  32.295  70.636  0.00  0.00     0.112 C 
ATOM     31  C   UNK d   1      23.726  33.128  70.234  0.00  0.00     0.026 C 
ENDBRANCH  26  30
ENDBRANCH  22  23
ENDBRANCH   9  22
TORSDOF 5
ENDMDL
