MODEL 1
REMARK VINA RESULT:    -9.098      0.000      0.000
REMARK INTER + INTRA:         -12.709
REMARK INTER:                 -11.757
REMARK INTRA:                  -0.951
REMARK UNBOUND:                -0.951
REMARK  5 active torsions:
REMARK  status: ('A' for Active; 'I' for Inactive)
REMARK    1  A    between atoms: S_1  and  N_4 
REMARK    2  A    between atoms: S_1  and  C_24 
REMARK       I    between atoms: N_7  and  C_10 
REMARK    3  A    between atoms: C_10  and  C_12 
REMARK    4  A    between atoms: C_12  and  S_13 
REMARK    5  A    between atoms: S_13  and  C_14 
ROOT
ATOM      1  N   UNK d   1      16.069  31.159  72.094  0.00  0.00    -0.203 NA
ATOM      2  C   UNK d   1      16.636  31.964  73.157  0.00  0.00     0.127 C 
ATOM      3  C   UNK d   1      18.155  31.850  73.154  0.00  0.00     0.141 C 
ATOM      4  N   UNK d   1      18.636  32.341  71.863  0.00  0.00    -0.349 N 
ATOM      5  C   UNK d   1      17.617  32.546  70.876  0.00  0.00     0.141 C 
ATOM      6  C   UNK d   1      16.751  31.315  70.845  0.00  0.00     0.127 C 
ATOM      7  C   UNK d   1      20.002  32.581  71.688  0.00  0.00     0.229 C 
ATOM      8  O   UNK d   1      20.806  32.366  72.685  0.00  0.00    -0.273 OA
ENDROOT
BRANCH   7   9
ATOM      9  C   UNK d   1      20.699  33.066  70.492  0.00  0.00     0.183 C 
BRANCH   9  10
ATOM     10  S   UNK d   1      21.469  34.669  70.681  0.00  0.00    -0.100 SA
BRANCH  10  11
ATOM     11  C   UNK d   1      20.936  35.881  69.485  0.00  0.00     0.110 A 
ATOM     12  N   UNK d   1      21.759  36.332  68.547  0.00  0.00    -0.234 NA
ATOM     13  C   UNK d   1      21.404  37.224  67.619  0.00  0.00     0.236 A 
ATOM     14  N   UNK d   1      20.121  37.700  67.638  0.00  0.00    -0.222 NA
ATOM     15  C   UNK d   1      19.267  37.266  68.570  0.00  0.00     0.161 A 
ATOM     16  N   UNK d   1      17.955  37.568  68.800  0.00  0.00    -0.256 N 
ATOM     17  C   UNK d   1      19.638  36.342  69.529  0.00  0.00     0.066 A 
ATOM     18  N   UNK d   1      17.546  36.871  69.839  0.00  0.00    -0.182 NA
ATOM     19  C   UNK d   1      17.163  38.482  68.030  0.00  0.00     0.182 C 
ATOM     20  C   UNK d   1      18.538  36.113  70.311  0.00  0.00     0.157 A 
ENDBRANCH  10  11
ENDBRANCH   9  10
ENDBRANCH   7   9
BRANCH   1  21
ATOM     21  S   UNK d   1      14.392  31.500  71.928  0.00  0.00     0.243 S 
ATOM     22  O   UNK d   1      13.816  30.434  71.024  0.00  0.00    -0.206 OA
ATOM     23  O   UNK d   1      13.667  31.410  73.228  0.00  0.00    -0.206 OA
BRANCH  21  24
ATOM     24  C   UNK d   1      14.184  33.078  71.202  0.00  0.00     0.074 A 
ATOM     25  C   UNK d   1      14.630  34.253  71.762  0.00  0.00     0.026 A 
ATOM     26  C   UNK d   1      14.427  35.464  71.146  0.00  0.00     0.025 A 
ATOM     27  C   UNK d   1      13.758  35.524  69.924  0.00  0.00     0.034 A 
ATOM     28  C   UNK d   1      13.298  34.337  69.343  0.00  0.00     0.025 A 
ATOM     29 Cl   UNK d   1      13.509  37.068  69.153  0.00  0.00    -0.084 Cl
ATOM     30  C   UNK d   1      13.514  33.134  69.980  0.00  0.00     0.026 A 
ENDBRANCH  21  24
ENDBRANCH   1  21
TORSDOF 5
ENDMDL
