/Users/jonathanwahrer/Desktop/Msc/3_Semester/Drug_Design_Praktikum/waehrer_HTS_screening/HTS_experiment/out/docking_results/vina_output/4x21/2046_docked.pdbqt
 OpenBabel03212202523D

 26 29  0  0  0  0  0  0  0  0999 V2000
   21.2480   37.6130   71.0860 Cl  0  0  0  0  0  0  0  0  0  0  0  0
   20.2110   36.2220   71.1630 C   0  0  0  0  0  0  0  0  0  0  0  0
   19.2130   36.0280   70.2420 C   0  0  0  0  0  0  0  0  0  0  0  0
   18.4240   34.9060   70.3580 C   0  0  0  0  0  3  0  0  0  0  0  0
   18.5840   33.9650   71.3530 C   0  0  0  0  0  0  0  0  0  0  0  0
   19.5900   34.1760   72.2680 C   0  0  0  0  0  3  0  0  0  0  0  0
   20.3850   35.2970   72.1610 C   0  0  0  0  0  3  0  0  0  0  0  0
   17.7380   32.7920   71.4490 N   0  0  0  0  0  0  0  0  0  0  0  0
   17.9320   31.9490   70.9020 H   0  0  0  0  0  0  0  0  0  0  0  0
   16.6330   32.8810   72.3400 C   0  0  0  0  0  2  0  0  0  0  0  0
   15.2860   32.9010   71.7770 C   0  0  0  0  0  0  0  0  0  0  0  0
   14.7750   31.7000   71.6600 O   0  0  0  0  0  0  0  0  0  0  0  0
   14.4760   33.9270   71.3590 N   0  0  0  0  0  0  0  0  0  0  0  0
   14.7510   35.3240   71.4720 C   0  0  0  0  0  2  0  0  0  0  0  0
   13.1950   33.6240   70.6850 C   0  0  0  0  0  2  0  0  0  0  0  0
   14.7370   35.9310   70.0720 C   0  0  0  0  0  2  0  0  0  0  0  0
   13.4090   35.7630   69.6230 O   0  0  0  0  0  0  0  0  0  0  0  0
   13.2020   34.4230   69.3780 C   0  0  0  0  0  2  0  0  0  0  0  0
   18.9630   36.9330   69.1960 N   0  0  0  0  0  0  0  0  0  0  0  0
   18.0050   37.8380   69.2030 N   0  0  0  0  0  0  0  0  0  0  0  0
   18.0360   38.5390   68.0860 N   0  0  0  0  0  0  0  0  0  0  0  0
   19.0330   38.0580   67.3720 N   0  0  0  0  0  0  0  0  0  0  0  0
   19.6350   37.0400   68.0580 C   0  0  0  0  0  0  0  0  0  0  0  0
   20.7720   36.2950   67.5210 C   0  0  0  0  0  3  0  0  0  0  0  0
   21.5130   36.6290   66.3100 C   0  0  0  0  0  2  0  0  0  0  0  0
   22.1450   37.0170   67.6580 C   0  0  0  0  0  2  0  0  0  0  0  0
  1  2  1  0  0  0  0
  2  7  1  0  0  0  0
  3  4  1  0  0  0  0
  3  2  2  0  0  0  0
  4  5  2  0  0  0  0
  5  8  1  0  0  0  0
  5  6  1  0  0  0  0
  7  6  2  0  0  0  0
  8 10  1  0  0  0  0
  9  8  1  0  0  0  0
 11 10  1  0  0  0  0
 12 11  2  0  0  0  0
 13 14  1  0  0  0  0
 13 11  1  0  0  0  0
 15 13  1  0  0  0  0
 16 14  1  0  0  0  0
 17 16  1  0  0  0  0
 18 17  1  0  0  0  0
 18 15  1  0  0  0  0
 19 20  1  0  0  0  0
 19  3  1  0  0  0  0
 21 20  2  0  0  0  0
 22 23  2  0  0  0  0
 22 21  1  0  0  0  0
 23 19  1  0  0  0  0
 24 26  1  0  0  0  0
 24 23  1  0  0  0  0
 25 24  1  0  0  0  0
 25 26  1  0  0  0  0
M  END
>  <Pose>
1

>  <Score>
-7.526

$$$$
