/Users/jonathanwahrer/Desktop/Msc/3_Semester/Drug_Design_Praktikum/waehrer_HTS_screening/HTS_experiment/out/docking_results/vina_output/4x21/2063_docked.pdbqt
 OpenBabel03212202523D

 34 37  0  0  1  0  0  0  0  0999 V2000
   21.2850   37.0300   67.6110 C   0  0  0  0  0  0  0  0  0  0  0  0
   21.3500   36.3810   68.8400 C   0  0  0  0  0  3  0  0  0  0  0  0
   20.3150   36.2780   69.6400 O   0  0  0  0  0  0  0  0  0  0  0  0
   19.1380   36.7800   69.3490 C   0  0  0  0  0  0  0  0  0  0  0  0
   18.9770   37.4410   68.1540 C   0  0  0  0  0  0  0  0  0  0  0  0
   17.7280   37.9490   67.8900 C   0  0  0  0  0  3  0  0  0  0  0  0
   16.6660   37.8260   68.7490 C   0  0  0  0  0  3  0  0  0  0  0  0
   16.8090   37.1510   69.9790 C   0  0  0  0  0  0  0  0  0  0  0  0
   18.0620   36.6460   70.2360 C   0  0  0  0  0  3  0  0  0  0  0  0
   20.0430   37.5660   67.2900 C   0  0  0  0  0  0  0  0  0  0  0  0
   19.8970   38.1720   66.1950 O   0  0  0  0  0  0  0  0  0  0  0  0
   15.7170   37.0480   70.8140 O   0  0  0  0  0  0  0  0  0  0  0  0
   14.8780   35.9790   70.9300 C   0  0  2  0  0  3  0  0  0  0  0  0
   15.5530   34.7300   70.8850 O   0  0  0  0  0  0  0  0  0  0  0  0
   14.7160   33.8370   71.5180 C   0  0  1  0  0  3  0  0  0  0  0  0
   13.4080   33.6140   70.8260 C   0  0  2  0  0  3  0  0  0  0  0  0
   12.7900   34.9000   70.3310 C   0  0  1  0  0  3  0  0  0  0  0  0
   13.8370   35.8730   69.8300 C   0  0  1  0  0  3  0  0  0  0  0  0
   15.3760   32.5110   71.8030 C   0  0  0  0  0  2  0  0  0  0  0  0
   14.7420   31.4590   71.1460 O   0  0  0  0  0  0  0  0  0  0  0  0
   15.1910   31.3990   70.2460 H   0  0  0  0  0  0  0  0  0  0  0  0
   12.5210   33.0850   71.7780 O   0  0  0  0  0  0  0  0  0  0  0  0
   12.6800   32.1160   71.9030 H   0  0  0  0  0  0  0  0  0  0  0  0
   11.8290   34.6140   69.3710 O   0  0  0  0  0  0  0  0  0  0  0  0
   12.1480   33.9290   68.7070 H   0  0  0  0  0  0  0  0  0  0  0  0
   13.2130   37.0910   69.5940 O   0  0  0  0  0  0  0  0  0  0  0  0
   12.3780   36.9650   69.0850 H   0  0  0  0  0  0  0  0  0  0  0  0
   22.4410   37.1310   66.7440 C   0  0  0  0  0  0  0  0  0  0  0  0
   23.0720   38.3250   66.4630 C   0  0  0  0  0  3  0  0  0  0  0  0
   24.1780   38.3520   65.6220 C   0  0  0  0  0  3  0  0  0  0  0  0
   24.6850   37.2120   65.0410 C   0  0  0  0  0  0  0  0  0  0  0  0
   26.2070   37.2650   63.8850 Br  0  0  0  0  0  0  0  0  0  0  0  0
   24.0500   36.0110   65.3230 C   0  0  0  0  0  3  0  0  0  0  0  0
   22.9520   35.9860   66.1590 C   0  0  0  0  0  3  0  0  0  0  0  0
  1  2  2  0  0  0  0
  2  3  1  0  0  0  0
  4  3  1  0  0  0  0
  4  9  1  0  0  0  0
  5  4  2  0  0  0  0
  6  5  1  0  0  0  0
  6  7  2  0  0  0  0
  7  8  1  0  0  0  0
  8  9  2  0  0  0  0
  8 12  1  0  0  0  0
 10  1  1  0  0  0  0
 10  5  1  0  0  0  0
 11 10  2  0  0  0  0
 13 12  1  6  0  0  0
 14 13  1  0  0  0  0
 14 15  1  0  0  0  0
 15 19  1  6  0  0  0
 16 15  1  0  0  0  0
 16 22  1  1  0  0  0
 17 24  1  6  0  0  0
 17 16  1  0  0  0  0
 18 26  1  1  0  0  0
 18 17  1  0  0  0  0
 18 13  1  0  0  0  0
 20 19  1  0  0  0  0
 21 20  1  0  0  0  0
 22 23  1  0  0  0  0
 25 24  1  0  0  0  0
 27 26  1  0  0  0  0
 28  1  1  0  0  0  0
 29 28  1  0  0  0  0
 30 29  2  0  0  0  0
 31 33  2  0  0  0  0
 31 30  1  0  0  0  0
 32 31  1  0  0  0  0
 33 34  1  0  0  0  0
 34 28  2  0  0  0  0
M  END
>  <Pose>
1

>  <Score>
-9.211

$$$$
