MODEL 1
REMARK VINA RESULT:    -9.211      0.000      0.000
REMARK INTER + INTRA:         -13.183
REMARK INTER:                 -12.442
REMARK INTRA:                  -0.741
REMARK UNBOUND:                -0.741
REMARK  8 active torsions:
REMARK  status: ('A' for Active; 'I' for Inactive)
REMARK    1  A    between atoms: C_5  and  C_8 
REMARK    2  A    between atoms: C_15  and  O_17 
REMARK    3  A    between atoms: O_17  and  C_18 
REMARK    4  A    between atoms: C_20  and  C_27 
REMARK    5  A    between atoms: C_21  and  O_26 
REMARK    6  A    between atoms: C_22  and  O_25 
REMARK    7  A    between atoms: C_23  and  O_24 
REMARK    8  A    between atoms: C_27  and  O_28 
ROOT
ATOM      1  C   UNK d   1      21.285  37.030  67.611  0.00  0.00     0.048 A 
ATOM      2  C   UNK d   1      21.350  36.381  68.840  0.00  0.00     0.159 A 
ATOM      3  O   UNK d   1      20.315  36.278  69.640  0.00  0.00    -0.321 OA
ATOM      4  C   UNK d   1      19.138  36.780  69.349  0.00  0.00     0.091 A 
ATOM      5  C   UNK d   1      18.977  37.441  68.154  0.00  0.00     0.049 A 
ATOM      6  C   UNK d   1      17.728  37.949  67.890  0.00  0.00     0.021 A 
ATOM      7  C   UNK d   1      16.666  37.826  68.749  0.00  0.00     0.038 A 
ATOM      8  C   UNK d   1      16.809  37.151  69.979  0.00  0.00     0.074 A 
ATOM      9  C   UNK d   1      18.062  36.646  70.236  0.00  0.00     0.075 A 
ATOM     10  C   UNK d   1      20.043  37.566  67.290  0.00  0.00     0.197 A 
ATOM     11  O   UNK d   1      19.897  38.172  66.195  0.00  0.00    -0.286 OA
ENDROOT
BRANCH   8  12
ATOM     12  O   UNK d   1      15.717  37.048  70.814  0.00  0.00    -0.318 OA
BRANCH  12  13
ATOM     13  C   UNK d   1      14.878  35.979  70.930  0.00  0.00     0.298 C 
ATOM     14  O   UNK d   1      15.553  34.730  70.885  0.00  0.00    -0.348 OA
ATOM     15  C   UNK d   1      14.716  33.837  71.518  0.00  0.00     0.179 C 
ATOM     16  C   UNK d   1      13.408  33.614  70.826  0.00  0.00     0.180 C 
ATOM     17  C   UNK d   1      12.790  34.900  70.331  0.00  0.00     0.183 C 
ATOM     18  C   UNK d   1      13.837  35.873  69.830  0.00  0.00     0.205 C 
BRANCH  15  19
ATOM     19  C   UNK d   1      15.376  32.511  71.803  0.00  0.00     0.198 C 
BRANCH  19  20
ATOM     20  O   UNK d   1      14.742  31.459  71.146  0.00  0.00    -0.398 OA
ATOM     21  H   UNK d   1      15.191  31.399  70.246  0.00  0.00     0.209 HD
ENDBRANCH  19  20
ENDBRANCH  15  19
BRANCH  16  22
ATOM     22  O   UNK d   1      12.521  33.085  71.778  0.00  0.00    -0.390 OA
ATOM     23  H   UNK d   1      12.680  32.116  71.903  0.00  0.00     0.210 HD
ENDBRANCH  16  22
BRANCH  17  24
ATOM     24  O   UNK d   1      11.829  34.614  69.371  0.00  0.00    -0.390 OA
ATOM     25  H   UNK d   1      12.148  33.929  68.707  0.00  0.00     0.210 HD
ENDBRANCH  17  24
BRANCH  18  26
ATOM     26  O   UNK d   1      13.213  37.091  69.594  0.00  0.00    -0.388 OA
ATOM     27  H   UNK d   1      12.378  36.965  69.085  0.00  0.00     0.210 HD
ENDBRANCH  18  26
ENDBRANCH  12  13
ENDBRANCH   8  12
BRANCH   1  28
ATOM     28  C   UNK d   1      22.441  37.131  66.744  0.00  0.00    -0.020 A 
ATOM     29  C   UNK d   1      23.072  38.325  66.463  0.00  0.00     0.014 A 
ATOM     30  C   UNK d   1      24.178  38.352  65.622  0.00  0.00     0.020 A 
ATOM     31  C   UNK d   1      24.685  37.212  65.041  0.00  0.00     0.011 A 
ATOM     32 Br   UNK d   1      26.207  37.265  63.885  0.00  0.00    -0.051 Br
ATOM     33  C   UNK d   1      24.050  36.011  65.323  0.00  0.00     0.020 A 
ATOM     34  C   UNK d   1      22.952  35.986  66.159  0.00  0.00     0.014 A 
ENDBRANCH   1  28
TORSDOF 8
ENDMDL
