MODEL 1
REMARK VINA RESULT:    -7.983      0.000      0.000
REMARK INTER + INTRA:         -12.277
REMARK INTER:                 -10.783
REMARK INTRA:                  -1.494
REMARK UNBOUND:                -1.494
REMARK  6 active torsions:
REMARK  status: ('A' for Active; 'I' for Inactive)
REMARK    1  A    between atoms: C_5  and  C_8 
REMARK    2  A    between atoms: C_8  and  N_9 
REMARK    3  A    between atoms: C_13  and  N_14 
REMARK    4  A    between atoms: N_17  and  C_20 
REMARK    5  A    between atoms: C_20  and  C_21 
REMARK    6  A    between atoms: C_21  and  O_23 
ROOT
ATOM      1  N   UNK d   1      20.076  34.774  70.595  0.00  0.00    -0.168 N 
ATOM      2  C   UNK d   1      21.052  35.476  69.934  0.00  0.00     0.167 A 
ATOM      3  C   UNK d   1      21.670  34.653  69.014  0.00  0.00     0.185 A 
ATOM      4  N   UNK d   1      21.060  33.470  69.135  0.00  0.00    -0.044 NA
ATOM      5  C   UNK d   1      20.089  33.536  70.100  0.00  0.00     0.707 A 
ATOM      6  N   UNK d   1      22.674  35.107  68.239  0.00  0.00    -0.286 N 
ATOM      7  C   UNK d   1      23.060  36.383  68.385  0.00  0.00     0.330 A 
ATOM      8  O   UNK d   1      23.998  36.796  67.657  0.00  0.00    -0.246 OA
ATOM      9  N   UNK d   1      22.488  37.210  69.267  0.00  0.00    -0.273 N 
ATOM     10  C   UNK d   1      21.467  36.784  70.069  0.00  0.00     0.280 A 
ATOM     11  O   UNK d   1      20.953  37.584  70.888  0.00  0.00    -0.265 OA
ATOM     12  C   UNK d   1      23.291  34.210  67.280  0.00  0.00     0.163 C 
ATOM     13  H   UNK d   1      22.806  38.207  69.370  0.00  0.00     0.173 HD
ENDROOT
BRANCH   5  14
ATOM     14  N   UNK d   1      19.363  32.401  70.495  0.00  0.00    -0.212 N 
ATOM     15  C   UNK d   1      18.157  31.863  69.975  0.00  0.00     0.160 C 
ATOM     16  C   UNK d   1      17.362  31.092  71.035  0.00  0.00     0.137 C 
ATOM     17  N   UNK d   1      17.610  31.458  72.368  0.00  0.00    -0.400 N 
ATOM     18  C   UNK d   1      18.956  31.585  72.768  0.00  0.00     0.137 C 
ATOM     19  C   UNK d   1      19.937  31.609  71.618  0.00  0.00     0.160 C 
BRANCH  17  20
ATOM     20  C   UNK d   1      16.610  32.086  73.127  0.00  0.00     0.228 C 
BRANCH  20  21
ATOM     21  C   UNK d   1      15.256  31.513  73.073  0.00  0.00     0.276 C 
ATOM     22  O   UNK d   1      14.942  30.452  73.675  0.00  0.00    -0.263 OA
BRANCH  21  23
ATOM     23  O   UNK d   1      14.275  32.144  72.339  0.00  0.00    -0.325 OA
ATOM     24  C   UNK d   1      13.750  31.605  71.157  0.00  0.00     0.213 C 
ENDBRANCH  21  23
ENDBRANCH  20  21
ENDBRANCH  17  20
ENDBRANCH   5  14
BRANCH   1  25
ATOM     25  C   UNK d   1      19.217  35.344  71.602  0.00  0.00     0.186 C 
BRANCH  25  26
ATOM     26  C   UNK d   1      17.850  35.677  71.033  0.00  0.00    -0.039 A 
ATOM     27  C   UNK d   1      16.805  34.896  71.430  0.00  0.00     0.010 A 
ATOM     28  C   UNK d   1      15.524  35.188  70.959  0.00  0.00     0.019 A 
ATOM     29  C   UNK d   1      15.323  36.251  70.106  0.00  0.00     0.011 A 
ATOM     30 Br   UNK d   1      13.583  36.671  69.450  0.00  0.00    -0.051 Br
ATOM     31  C   UNK d   1      16.408  37.022  69.724  0.00  0.00     0.019 A 
ATOM     32  C   UNK d   1      17.668  36.734  70.189  0.00  0.00     0.010 A 
ENDBRANCH  25  26
ENDBRANCH   1  25
TORSDOF 6
ENDMDL
