MODEL 1
REMARK VINA RESULT:    -8.331      0.000      0.000
REMARK INTER + INTRA:         -10.826
REMARK INTER:                  -9.792
REMARK INTRA:                  -1.034
REMARK UNBOUND:                -1.034
REMARK  3 active torsions:
REMARK  status: ('A' for Active; 'I' for Inactive)
REMARK    1  A    between atoms: C_5  and  C_8 
REMARK    2  A    between atoms: C_8  and  N_9 
REMARK    3  A    between atoms: C_13  and  N_14 
ROOT
ATOM      1  N   UNK d   1      17.301  35.697  70.714  0.00  0.00    -0.168 N 
ATOM      2  C   UNK d   1      15.982  35.666  70.475  0.00  0.00     0.167 A 
ATOM      3  C   UNK d   1      15.536  34.369  70.598  0.00  0.00     0.185 A 
ATOM      4  N   UNK d   1      16.602  33.648  70.910  0.00  0.00    -0.044 NA
ATOM      5  C   UNK d   1      17.690  34.427  70.989  0.00  0.00     0.707 A 
ATOM      6  N   UNK d   1      14.242  34.000  70.428  0.00  0.00    -0.286 N 
ATOM      7  C   UNK d   1      13.369  34.975  70.125  0.00  0.00     0.330 A 
ATOM      8  O   UNK d   1      12.174  34.615  69.969  0.00  0.00    -0.246 OA
ATOM      9  N   UNK d   1      13.741  36.260  69.995  0.00  0.00    -0.273 N 
ATOM     10  C   UNK d   1      15.023  36.636  70.161  0.00  0.00     0.280 A 
ATOM     11  O   UNK d   1      15.399  37.811  70.050  0.00  0.00    -0.265 OA
ATOM     12  C   UNK d   1      13.867  32.610  70.575  0.00  0.00     0.163 C 
ATOM     13  H   UNK d   1      13.055  37.010  69.762  0.00  0.00     0.173 HD
ENDROOT
BRANCH   1  14
ATOM     14  C   UNK d   1      18.158  36.857  70.678  0.00  0.00     0.186 C 
BRANCH  14  15
ATOM     15  C   UNK d   1      19.075  36.991  69.563  0.00  0.00    -0.039 A 
ATOM     16  C   UNK d   1      18.746  37.271  68.274  0.00  0.00     0.010 A 
ATOM     17  C   UNK d   1      19.686  37.426  67.256  0.00  0.00     0.019 A 
ATOM     18  C   UNK d   1      21.037  37.290  67.557  0.00  0.00     0.011 A 
ATOM     19 Br   UNK d   1      22.390  37.500  66.231  0.00  0.00    -0.051 Br
ATOM     20  C   UNK d   1      21.416  37.008  68.849  0.00  0.00     0.019 A 
ATOM     21  C   UNK d   1      20.453  36.863  69.820  0.00  0.00     0.010 A 
ENDBRANCH  14  15
ENDBRANCH   1  14
BRANCH   5  22
ATOM     22  N   UNK d   1      19.026  34.010  71.300  0.00  0.00    -0.213 N 
ATOM     23  C   UNK d   1      19.778  33.332  70.268  0.00  0.00     0.160 C 
ATOM     24  C   UNK d   1      20.040  31.910  70.742  0.00  0.00     0.136 C 
ATOM     25  N   UNK d   1      19.993  31.780  72.160  0.00  0.00    -0.414 N 
ATOM     26  C   UNK d   1      20.398  32.923  72.909  0.00  0.00     0.136 C 
ATOM     27  C   UNK d   1      18.967  30.979  72.711  0.00  0.00     0.143 C 
ATOM     28  C   UNK d   1      19.674  34.201  72.570  0.00  0.00     0.160 C 
ENDBRANCH   5  22
TORSDOF 3
ENDMDL
