/Users/jonathanwahrer/Desktop/Msc/3_Semester/Drug_Design_Praktikum/waehrer_HTS_screening/HTS_experiment/out/docking_results/vina_output/4x21/2103_docked.pdbqt
 OpenBabel03212202543D

 29 32  0  0  0  0  0  0  0  0999 V2000
   18.4280   35.3680   70.6620 C   0  0  0  0  0  0  0  0  0  0  0  0
   18.7980   34.0110   70.9720 C   0  0  0  0  0  0  0  0  0  0  0  0
   17.8450   33.0680   71.1030 C   0  0  0  0  0  0  0  0  0  0  0  0
   16.4830   33.3840   70.9410 C   0  0  0  0  0  0  0  0  0  0  0  0
   16.1130   34.6730   70.6470 C   0  0  0  0  0  0  0  0  0  0  0  0
   17.0970   35.6650   70.5110 C   0  0  0  0  0  0  0  0  0  0  0  0
   16.7090   37.0810   70.2880 C   0  0  0  0  0  2  0  0  0  0  0  0
   15.2550   37.3790   70.6380 C   0  0  0  0  0  2  0  0  0  0  0  0
   14.3600   36.3810   70.1000 N   0  0  0  0  0  0  0  0  0  0  0  0
   14.7130   35.0320   70.4380 C   0  0  0  0  0  0  0  0  0  0  0  0
   13.7720   34.2190   70.5360 O   0  0  0  0  0  0  0  0  0  0  0  0
   13.2080   36.7150   69.2900 C   0  0  0  0  0  1  0  0  0  0  0  0
   18.4950   31.8610   71.4020 O   0  0  0  0  0  0  0  0  0  0  0  0
   19.8860   32.0050   71.2080 C   0  0  0  0  0  2  0  0  0  0  0  0
   20.0420   33.4100   71.1850 O   0  0  0  0  0  0  0  0  0  0  0  0
   19.5930   36.2200   70.5520 C   0  0  0  0  0  2  0  0  0  0  0  0
   20.6810   36.0070   69.7020 N   0  0  0  0  0  0  0  0  0  0  0  0
   20.7050   36.8340   68.4780 C   0  0  0  0  0  0  0  0  0  0  0  0
   19.7820   37.6440   68.2930 O   0  0  0  0  0  0  0  0  0  0  0  0
   21.5150   35.4050   69.7630 H   0  0  0  0  0  0  0  0  0  0  0  0
   21.7780   36.7040   67.5210 C   0  0  0  0  0  0  0  0  0  0  0  0
   22.0730   37.8030   66.7220 C   0  0  0  0  0  3  0  0  0  0  0  0
   23.0500   37.7620   65.8050 N   0  0  0  0  0  0  0  0  0  0  0  0
   23.7610   36.6460   65.6470 C   0  0  0  0  0  3  0  0  0  0  0  0
   23.5150   35.5420   66.4010 C   0  0  0  0  0  0  0  0  0  0  0  0
   24.5460   33.9520   66.1580 Br  0  0  0  0  0  0  0  0  0  0  0  0
   22.5070   35.5470   67.3640 C   0  0  0  0  0  3  0  0  0  0  0  0
   15.5930   32.3860   71.0860 O   0  0  0  0  0  0  0  0  0  0  0  0
   14.7400   32.2240   70.6720 H   0  0  0  0  0  0  0  0  0  0  0  0
  1  2  1  0  0  0  0
  2  3  2  0  0  0  0
  2 15  1  0  0  0  0
  3 13  1  0  0  0  0
  4 28  1  0  0  0  0
  4  3  1  0  0  0  0
  5  4  2  0  0  0  0
  6  5  1  0  0  0  0
  6  1  2  0  0  0  0
  7  6  1  0  0  0  0
  7  8  1  0  0  0  0
  9 10  1  0  0  0  0
  9  8  1  0  0  0  0
 10 11  2  0  0  0  0
 10  5  1  0  0  0  0
 12  9  1  0  0  0  0
 14 13  1  0  0  0  0
 15 14  1  0  0  0  0
 16  1  1  0  0  0  0
 17 20  1  0  0  0  0
 17 16  1  0  0  0  0
 18 17  1  0  0  0  0
 19 18  2  0  0  0  0
 21 18  1  0  0  0  0
 22 21  2  0  0  0  0
 23 22  1  0  0  0  0
 24 23  2  0  0  0  0
 24 25  1  0  0  0  0
 25 27  2  0  0  0  0
 26 25  1  0  0  0  0
 27 21  1  0  0  0  0
 29 28  1  0  0  0  0
M  END
>  <Pose>
1

>  <Score>
-8.958

$$$$
