MODEL 1
REMARK VINA RESULT:    -6.693      0.000      0.000
REMARK INTER + INTRA:          -6.889
REMARK INTER:                  -6.889
REMARK INTRA:                   0.000
REMARK UNBOUND:                 0.000
REMARK  1 active torsions:
REMARK  status: ('A' for Active; 'I' for Inactive)
REMARK    1  A    between atoms: C_12  and  N_16 
ROOT
ATOM      1 Cl   UNK d   1      15.595  32.109  73.325  0.00  0.00    -0.082 Cl
ATOM      2  C   UNK d   1      16.747  32.058  72.006  0.00  0.00     0.061 A 
ATOM      3  C   UNK d   1      17.894  32.851  72.035  0.00  0.00     0.065 A 
ATOM      4  C   UNK d   1      18.814  32.841  71.028  0.00  0.00    -0.002 A 
ATOM      5  C   UNK d   1      18.555  31.993  69.960  0.00  0.00     0.011 A 
ATOM      6  C   UNK d   1      17.428  31.201  69.915  0.00  0.00     0.002 A 
ATOM      7  C   UNK d   1      16.510  31.226  70.941  0.00  0.00     0.026 A 
ATOM      8  C   UNK d   1      19.901  33.785  71.361  0.00  0.00     0.146 A 
ATOM      9  C   UNK d   1      19.956  34.896  70.343  0.00  0.00     0.071 A 
ATOM     10  C   UNK d   1      21.026  35.191  69.658  0.00  0.00     0.060 A 
ATOM     11  N   UNK d   1      22.245  34.471  69.823  0.00  0.00    -0.342 N 
ATOM     12  C   UNK d   1      22.281  33.410  70.760  0.00  0.00     0.118 A 
ATOM     13  C   UNK d   1      21.210  33.104  71.456  0.00  0.00     0.093 A 
ATOM     14  C   UNK d   1      21.290  32.006  72.409  0.00  0.00     0.101 C 
ATOM     15  N   UNK d   1      21.337  31.134  73.167  0.00  0.00    -0.191 NA
ATOM     16  C   UNK d   1      20.721  36.325  68.761  0.00  0.00     0.106 A 
ATOM     17  O   UNK d   1      19.405  36.643  68.993  0.00  0.00    -0.301 OA
ATOM     18  C   UNK d   1      18.885  35.804  69.950  0.00  0.00     0.294 A 
ATOM     19  O   UNK d   1      17.697  35.793  70.427  0.00  0.00    -0.259 OA
ATOM     20  C   UNK d   1      21.022  35.919  67.335  0.00  0.00     0.053 C 
ATOM     21  C   UNK d   1      21.573  37.540  69.079  0.00  0.00     0.053 C 
ATOM     22  C   UNK d   1      19.510  34.348  72.675  0.00  0.00     0.246 A 
ATOM     23  O   UNK d   1      20.161  35.218  73.357  0.00  0.00    -0.271 OA
ATOM     24  N   UNK d   1      18.286  33.758  73.051  0.00  0.00    -0.324 N 
ATOM     25  H   UNK d   1      23.104  34.701  69.278  0.00  0.00     0.167 HD
ATOM     26  H   UNK d   1      17.775  33.982  73.958  0.00  0.00     0.169 HD
ENDROOT
BRANCH  12  27
ATOM     27  N   UNK d   1      23.468  32.643  70.982  0.00  0.00    -0.384 N 
ATOM     28  H   UNK d   1      24.188  32.966  71.641  0.00  0.00     0.157 HD
ATOM     29  H   UNK d   1      23.584  31.762  70.467  0.00  0.00     0.157 HD
ENDBRANCH  12  27
TORSDOF 1
ENDMDL
