/Users/jonathanwahrer/Desktop/Msc/3_Semester/Drug_Design_Praktikum/waehrer_HTS_screening/HTS_experiment/out/docking_results/vina_output/4x21/2105_docked.pdbqt
 OpenBabel03212202543D

 29 32  0  0  1  0  0  0  0  0999 V2000
   15.5950   32.1090   73.3250 Cl  0  0  0  0  0  0  0  0  0  0  0  0
   16.7470   32.0580   72.0060 C   0  0  0  0  0  0  0  0  0  0  0  0
   17.8940   32.8510   72.0350 C   0  0  0  0  0  0  0  0  0  0  0  0
   18.8140   32.8410   71.0280 C   0  0  0  0  0  0  0  0  0  0  0  0
   18.5550   31.9930   69.9600 C   0  0  0  0  0  3  0  0  0  0  0  0
   17.4280   31.2010   69.9150 C   0  0  0  0  0  3  0  0  0  0  0  0
   16.5100   31.2260   70.9410 C   0  0  0  0  0  3  0  0  0  0  0  0
   19.9010   33.7850   71.3610 C   0  0  2  0  0  0  0  0  0  0  0  0
   19.9560   34.8960   70.3430 C   0  0  0  0  0  0  0  0  0  0  0  0
   21.0260   35.1910   69.6580 C   0  0  0  0  0  0  0  0  0  0  0  0
   22.2450   34.4710   69.8230 N   0  0  0  0  0  0  0  0  0  0  0  0
   22.2810   33.4100   70.7600 C   0  0  0  0  0  0  0  0  0  0  0  0
   21.2100   33.1040   71.4560 C   0  0  0  0  0  0  0  0  0  0  0  0
   21.2900   32.0060   72.4090 C   0  0  0  0  0  0  0  0  0  0  0  0
   21.3370   31.1340   73.1670 N   0  0  0  0  0  0  0  0  0  0  0  0
   20.7210   36.3250   68.7610 C   0  0  0  0  0  0  0  0  0  0  0  0
   19.4050   36.6430   68.9930 O   0  0  0  0  0  0  0  0  0  0  0  0
   18.8850   35.8040   69.9500 C   0  0  0  0  0  0  0  0  0  0  0  0
   17.6970   35.7930   70.4270 O   0  0  0  0  0  0  0  0  0  0  0  0
   21.0220   35.9190   67.3350 C   0  0  0  0  0  1  0  0  0  0  0  0
   21.5730   37.5400   69.0790 C   0  0  0  0  0  1  0  0  0  0  0  0
   19.5100   34.3480   72.6750 C   0  0  0  0  0  0  0  0  0  0  0  0
   20.1610   35.2180   73.3570 O   0  0  0  0  0  0  0  0  0  0  0  0
   18.2860   33.7580   73.0510 N   0  0  0  0  0  0  0  0  0  0  0  0
   23.1040   34.7010   69.2780 H   0  0  0  0  0  0  0  0  0  0  0  0
   17.7750   33.9820   73.9580 H   0  0  0  0  0  0  0  0  0  0  0  0
   23.4680   32.6430   70.9820 N   0  0  0  0  0  0  0  0  0  0  0  0
   24.1880   32.9660   71.6410 H   0  0  0  0  0  0  0  0  0  0  0  0
   23.5840   31.7620   70.4670 H   0  0  0  0  0  0  0  0  0  0  0  0
  2  3  1  0  0  0  0
  2  1  1  0  0  0  0
  3 24  1  0  0  0  0
  4  8  1  0  0  0  0
  4  3  2  0  0  0  0
  5  4  1  0  0  0  0
  6  5  2  0  0  0  0
  6  7  1  0  0  0  0
  7  2  2  0  0  0  0
  8  9  1  6  0  0  0
  8 13  1  0  0  0  0
  8 22  1  0  0  0  0
 10 11  1  0  0  0  0
 10  9  2  0  0  0  0
 11 12  1  0  0  0  0
 12 27  1  0  0  0  0
 12 13  2  0  0  0  0
 13 14  1  0  0  0  0
 14 15  3  0  0  0  0
 16 17  1  0  0  0  0
 16 21  1  0  0  0  0
 16 10  1  0  0  0  0
 17 18  1  0  0  0  0
 18  9  1  0  0  0  0
 18 19  2  0  0  0  0
 20 16  1  0  0  0  0
 22 24  1  0  0  0  0
 22 23  2  0  0  0  0
 24 26  1  0  0  0  0
 25 11  1  0  0  0  0
 27 28  1  0  0  0  0
 29 27  1  0  0  0  0
M  END
>  <Pose>
1

>  <Score>
-6.693

$$$$
