MODEL 1
REMARK VINA RESULT:    -7.655      0.000      0.000
REMARK INTER + INTRA:          -8.348
REMARK INTER:                  -8.103
REMARK INTRA:                  -0.245
REMARK UNBOUND:                -0.245
REMARK  1 active torsions:
REMARK  status: ('A' for Active; 'I' for Inactive)
REMARK    1  A    between atoms: C_5  and  N_8 
ROOT
ATOM      1  N   UNK d   1      18.624  35.542  70.800  0.00  0.00    -0.250 N 
ATOM      2  C   UNK d   1      19.760  35.361  71.658  0.00  0.00     0.263 C 
ATOM      3  O   UNK d   1      19.820  34.607  72.661  0.00  0.00    -0.270 OA
ATOM      4  C   UNK d   1      20.883  36.206  71.192  0.00  0.00     0.259 C 
ATOM      5  O   UNK d   1      22.066  35.490  71.044  0.00  0.00    -0.266 OA
ATOM      6  N   UNK d   1      21.902  34.627  70.055  0.00  0.00    -0.288 N 
ATOM      7  C   UNK d   1      20.906  35.050  69.172  0.00  0.00     0.125 C 
ATOM      8  C   UNK d   1      20.495  36.412  69.732  0.00  0.00     0.144 C 
ATOM      9  C   UNK d   1      19.022  36.525  69.845  0.00  0.00     0.240 C 
ATOM     10  O   UNK d   1      18.221  37.305  69.248  0.00  0.00    -0.272 OA
ATOM     11  C   UNK d   1      21.186  35.085  67.730  0.00  0.00     0.028 C 
ATOM     12  C   UNK d   1      22.503  34.601  67.265  0.00  0.00     0.004 C 
ATOM     13  C   UNK d   1      22.953  33.471  68.165  0.00  0.00     0.022 C 
ATOM     14  C   UNK d   1      23.078  34.051  69.549  0.00  0.00     0.150 C 
ENDROOT
BRANCH   1  15
ATOM     15  C   UNK d   1      17.355  34.889  70.870  0.00  0.00     0.045 A 
ATOM     16  C   UNK d   1      16.169  35.560  71.077  0.00  0.00     0.032 A 
ATOM     17  C   UNK d   1      14.944  34.918  71.143  0.00  0.00     0.026 A 
ATOM     18  C   UNK d   1      14.869  33.548  70.998  0.00  0.00     0.034 A 
ATOM     19 Cl   UNK d   1      13.322  32.723  71.079  0.00  0.00    -0.084 Cl
ATOM     20  C   UNK d   1      16.050  32.865  70.790  0.00  0.00     0.026 A 
ATOM     21  C   UNK d   1      17.270  33.511  70.725  0.00  0.00     0.032 A 
ENDBRANCH   1  15
TORSDOF 1
ENDMDL
