/Users/jonathanwahrer/Desktop/Msc/3_Semester/Drug_Design_Praktikum/waehrer_HTS_screening/HTS_experiment/out/docking_results/vina_output/4x21/2109_docked.pdbqt
 OpenBabel03212202543D

 21 24  0  0  1  0  0  0  0  0999 V2000
   18.6240   35.5420   70.8000 N   0  0  0  0  0  0  0  0  0  0  0  0
   19.7600   35.3610   71.6580 C   0  0  0  0  0  0  0  0  0  0  0  0
   19.8200   34.6070   72.6610 O   0  0  0  0  0  0  0  0  0  0  0  0
   20.8830   36.2060   71.1920 C   0  0  1  0  0  3  0  0  0  0  0  0
   22.0660   35.4900   71.0440 O   0  0  0  0  0  0  0  0  0  0  0  0
   21.9020   34.6270   70.0550 N   0  0  1  0  0  0  0  0  0  0  0  0
   20.9060   35.0500   69.1720 C   0  0  1  0  0  3  0  0  0  0  0  0
   20.4950   36.4120   69.7320 C   0  0  1  0  0  3  0  0  0  0  0  0
   19.0220   36.5250   69.8450 C   0  0  0  0  0  0  0  0  0  0  0  0
   18.2210   37.3050   69.2480 O   0  0  0  0  0  0  0  0  0  0  0  0
   21.1860   35.0850   67.7300 C   0  0  0  0  0  2  0  0  0  0  0  0
   22.5030   34.6010   67.2650 C   0  0  0  0  0  2  0  0  0  0  0  0
   22.9530   33.4710   68.1650 C   0  0  0  0  0  2  0  0  0  0  0  0
   23.0780   34.0510   69.5490 C   0  0  0  0  0  2  0  0  0  0  0  0
   17.3550   34.8890   70.8700 C   0  0  0  0  0  0  0  0  0  0  0  0
   16.1690   35.5600   71.0770 C   0  0  0  0  0  3  0  0  0  0  0  0
   14.9440   34.9180   71.1430 C   0  0  0  0  0  3  0  0  0  0  0  0
   14.8690   33.5480   70.9980 C   0  0  0  0  0  0  0  0  0  0  0  0
   13.3220   32.7230   71.0790 Cl  0  0  0  0  0  0  0  0  0  0  0  0
   16.0500   32.8650   70.7900 C   0  0  0  0  0  3  0  0  0  0  0  0
   17.2700   33.5110   70.7250 C   0  0  0  0  0  3  0  0  0  0  0  0
  1 15  1  0  0  0  0
  1  2  1  0  0  0  0
  2  3  2  0  0  0  0
  4  5  1  6  0  0  0
  4  2  1  0  0  0  0
  6 14  1  6  0  0  0
  6  5  1  0  0  0  0
  7 11  1  6  0  0  0
  7  8  1  0  0  0  0
  7  6  1  0  0  0  0
  8  9  1  1  0  0  0
  8  4  1  0  0  0  0
  9  1  1  0  0  0  0
 10  9  2  0  0  0  0
 12 11  1  0  0  0  0
 12 13  1  0  0  0  0
 13 14  1  0  0  0  0
 15 16  1  0  0  0  0
 16 17  2  0  0  0  0
 18 19  1  0  0  0  0
 18 17  1  0  0  0  0
 20 18  2  0  0  0  0
 21 20  1  0  0  0  0
 21 15  2  0  0  0  0
M  END
>  <Pose>
1

>  <Score>
-7.655

$$$$
