MODEL 1
REMARK VINA RESULT:    -8.365      0.000      0.000
REMARK INTER + INTRA:         -10.603
REMARK INTER:                  -9.588
REMARK INTRA:                  -1.015
REMARK UNBOUND:                -1.015
REMARK  3 active torsions:
REMARK  status: ('A' for Active; 'I' for Inactive)
REMARK    1  A    between atoms: C_7  and  C_9 
REMARK       I    between atoms: C_9  and  N_11 
REMARK    2  A    between atoms: C_14  and  N_19 
REMARK    3  A    between atoms: C_15  and  O_18 
REMARK       I    between atoms: N_22  and  C_25 
ROOT
ATOM      1  C   UNK d   1      20.250  35.812  70.823  0.00  0.00     0.203 C 
ATOM      2  O   UNK d   1      21.174  35.706  71.788  0.00  0.00    -0.170 OA
ATOM      3  N   UNK d   1      20.479  36.866  69.965  0.00  0.00    -0.358 N 
ATOM      4  C   UNK d   1      21.733  37.590  70.316  0.00  0.00     0.127 C 
ATOM      5  C   UNK d   1      22.892  36.961  69.568  0.00  0.00     0.058 C 
ATOM      6  C   UNK d   1      22.340  36.243  68.396  0.00  0.00     0.253 C 
ATOM      7  C   UNK d   1      21.594  37.171  67.494  0.00  0.00     0.153 C 
ATOM      8  C   UNK d   1      20.126  36.712  67.532  0.00  0.00     0.054 C 
ATOM      9  C   UNK d   1      19.619  37.228  68.892  0.00  0.00     0.127 C 
ENDROOT
BRANCH   1  10
ATOM     10  C   UNK d   1      19.232  34.800  70.906  0.00  0.00     0.088 A 
ATOM     11  N   UNK d   1      19.319  33.472  70.811  0.00  0.00    -0.352 N 
ATOM     12  C   UNK d   1      18.084  32.894  70.915  0.00  0.00     0.043 A 
ATOM     13  H   UNK d   1      20.160  32.892  70.693  0.00  0.00     0.166 HD
ATOM     14  C   UNK d   1      17.190  33.894  71.083  0.00  0.00    -0.005 A 
ATOM     15  C   UNK d   1      17.653  31.595  70.875  0.00  0.00     0.032 A 
ATOM     16  C   UNK d   1      15.818  33.657  71.220  0.00  0.00     0.037 A 
ATOM     17  C   UNK d   1      17.880  35.090  71.081  0.00  0.00     0.048 A 
ATOM     18  C   UNK d   1      15.406  32.364  71.177  0.00  0.00     0.035 A 
ATOM     19 Cl   UNK d   1      13.681  32.026  71.344  0.00  0.00    -0.084 Cl
ATOM     20  C   UNK d   1      16.299  31.326  71.007  0.00  0.00     0.026 A 
ENDBRANCH   1  10
BRANCH   6  21
ATOM     21  N   UNK d   1      23.220  35.413  67.638  0.00  0.00     0.098 N 
ATOM     22  C   UNK d   1      22.750  34.069  67.416  0.00  0.00     0.293 C 
ATOM     23  C   UNK d   1      22.627  33.309  68.682  0.00  0.00     0.156 C 
ATOM     24  N   UNK d   1      23.942  33.360  69.329  0.00  0.00    -0.349 N 
ATOM     25  C   UNK d   1      24.970  34.063  68.605  0.00  0.00     0.156 C 
ATOM     26  C   UNK d   1      24.143  32.720  70.590  0.00  0.00     0.215 C 
ATOM     27  C   UNK d   1      24.577  35.424  68.113  0.00  0.00     0.293 C 
ATOM     28  O   UNK d   1      25.254  32.781  71.134  0.00  0.00    -0.274 OA
ATOM     29  C   UNK d   1      22.993  31.990  71.210  0.00  0.00     0.117 C 
ENDBRANCH   6  21
BRANCH   7  30
ATOM     30  O   UNK d   1      22.077  37.202  66.187  0.00  0.00    -0.393 OA
ATOM     31  H   UNK d   1      21.875  36.288  65.803  0.00  0.00     0.210 HD
ENDBRANCH   7  30
TORSDOF 3
ENDMDL
