MODEL 1
REMARK VINA RESULT:    -8.660      0.000      0.000
REMARK INTER + INTRA:         -12.845
REMARK INTER:                 -11.697
REMARK INTRA:                  -1.148
REMARK UNBOUND:                -1.148
REMARK  6 active torsions:
REMARK  status: ('A' for Active; 'I' for Inactive)
REMARK    1  A    between atoms: N_11  and  C_12 
REMARK    2  A    between atoms: C_12  and  C_13 
REMARK    3  A    between atoms: C_16  and  C_18 
REMARK       I    between atoms: C_18  and  N_20 
REMARK    4  A    between atoms: N_20  and  C_21 
REMARK    5  A    between atoms: C_21  and  C_22 
REMARK    6  A    between atoms: C_22  and  N_23 
ROOT
ATOM      1  C   UNK d   1      17.091  32.041  71.815  0.00  0.00     0.174 A 
ATOM      2  N   UNK d   1      17.207  31.276  70.716  0.00  0.00    -0.109 NA
ATOM      3  O   UNK d   1      18.448  31.226  70.323  0.00  0.00    -0.186 OA
ATOM      4  C   UNK d   1      19.150  31.960  71.162  0.00  0.00     0.264 A 
ATOM      5  N   UNK d   1      18.331  32.469  72.087  0.00  0.00    -0.198 NA
ENDROOT
BRANCH   1   6
ATOM      6  C   UNK d   1      15.827  32.297  72.558  0.00  0.00     0.217 C 
BRANCH   6   7
ATOM      7  N   UNK d   1      14.806  32.761  71.664  0.00  0.00    -0.283 N 
ATOM      8  C   UNK d   1      14.597  33.977  71.150  0.00  0.00     0.075 A 
ATOM      9  C   UNK d   1      15.271  35.181  71.292  0.00  0.00     0.056 A 
ATOM     10  C   UNK d   1      13.471  33.942  70.323  0.00  0.00     0.108 A 
ATOM     11  C   UNK d   1      14.791  36.293  70.605  0.00  0.00     0.036 A 
ATOM     12 Cl   UNK d   1      15.639  37.821  70.783  0.00  0.00    -0.084 Cl
ATOM     13  C   UNK d   1      13.673  36.224  69.793  0.00  0.00     0.026 A 
ATOM     14  C   UNK d   1      13.014  35.041  69.656  0.00  0.00     0.041 A 
ATOM     15  O   UNK d   1      13.067  32.710  70.387  0.00  0.00    -0.259 OA
ATOM     16  C   UNK d   1      13.828  31.985  71.165  0.00  0.00     0.373 A 
ATOM     17  O   UNK d   1      13.637  30.758  71.385  0.00  0.00    -0.237 OA
ENDBRANCH   6   7
ENDBRANCH   1   6
BRANCH   4  18
ATOM     18  C   UNK d   1      20.635  32.122  71.007  0.00  0.00     0.297 C 
ATOM     19  O   UNK d   1      21.224  30.991  71.111  0.00  0.00    -0.264 OA
ATOM     20  N   UNK d   1      21.168  33.337  70.787  0.00  0.00    -0.352 N 
ATOM     21  H   UNK d   1      22.410  32.764  70.685  0.00  0.00     0.162 HD
BRANCH  20  22
ATOM     22  C   UNK d   1      21.733  34.578  70.561  0.00  0.00     0.142 C 
BRANCH  22  23
ATOM     23  C   UNK d   1      20.799  35.745  70.905  0.00  0.00     0.136 C 
BRANCH  23  24
ATOM     24  N   UNK d   1      20.427  36.552  69.812  0.00  0.00    -0.407 N 
ATOM     25  C   UNK d   1      19.125  37.070  69.975  0.00  0.00     0.143 C 
ATOM     26  C   UNK d   1      18.446  37.377  68.683  0.00  0.00     0.187 C 
ATOM     27  O   UNK d   1      19.350  37.955  67.829  0.00  0.00    -0.388 OA
ATOM     28  C   UNK d   1      20.362  37.106  67.424  0.00  0.00     0.187 C 
ATOM     29  C   UNK d   1      20.883  36.228  68.523  0.00  0.00     0.143 C 
ENDBRANCH  23  24
ENDBRANCH  22  23
ENDBRANCH  20  22
ENDBRANCH   4  18
TORSDOF 6
ENDMDL
