/Users/jonathanwahrer/Desktop/Msc/3_Semester/Drug_Design_Praktikum/waehrer_HTS_screening/HTS_experiment/out/docking_results/vina_output/4x21/2124_docked.pdbqt
 OpenBabel03212202553D

 25 29  0  0  1  0  0  0  0  0999 V2000
   18.4530   34.6220   71.3310 N   0  0  0  0  0  0  0  0  0  0  0  0
   17.0660   34.3200   71.2980 C   0  0  0  0  0  0  0  0  0  0  0  0
   16.2900   34.5700   70.3380 O   0  0  0  0  0  0  0  0  0  0  0  0
   16.6430   33.6560   72.5760 C   0  0  1  0  0  3  0  0  0  0  0  0
   16.0170   32.3280   72.3120 C   0  0  2  0  0  0  0  0  0  0  0  0
   16.7010   31.4330   73.1720 O   0  0  0  0  0  0  0  0  0  0  0  0
   18.0090   31.7760   72.7460 C   0  0  2  0  0  0  0  0  0  0  0  0
   17.9980   33.2420   73.1690 C   0  0  1  0  0  3  0  0  0  0  0  0
   19.0100   34.0540   72.5090 C   0  0  0  0  0  0  0  0  0  0  0  0
   20.1820   34.2110   72.9360 O   0  0  0  0  0  0  0  0  0  0  0  0
   17.8640   31.6160   71.2790 C   0  0  0  0  0  2  0  0  0  0  0  0
   16.5630   31.8420   71.0040 C   0  0  0  0  0  2  0  0  0  0  0  0
   19.0760   30.9720   73.3620 C   0  0  0  0  0  1  0  0  0  0  0  0
   19.2490   35.3580   70.3980 C   0  0  0  0  0  0  0  0  0  0  0  0
   18.9660   36.6490   70.0210 C   0  0  0  0  0  3  0  0  0  0  0  0
   19.7420   37.3510   69.1160 C   0  0  0  0  0  3  0  0  0  0  0  0
   20.8470   36.7590   68.5530 C   0  0  0  0  0  0  0  0  0  0  0  0
   21.8640   37.6170   67.3900 Cl  0  0  0  0  0  0  0  0  0  0  0  0
   21.1420   35.4660   68.9210 C   0  0  0  0  0  3  0  0  0  0  0  0
   20.3600   34.7610   69.8330 C   0  0  0  0  0  3  0  0  0  0  0  0
   14.5560   32.2400   72.4270 C   0  0  0  0  0  3  0  0  0  0  0  0
   14.0340   31.8740   71.1850 O   0  0  0  0  0  0  0  0  0  0  0  0
   14.0170   30.5040   71.1140 C   0  0  0  0  0  2  0  0  0  0  0  0
   13.9040   30.0980   72.5590 C   0  0  0  0  0  2  0  0  0  0  0  0
   14.2170   31.2110   73.3060 O   0  0  0  0  0  0  0  0  0  0  0  0
  1  9  1  0  0  0  0
  2  1  1  0  0  0  0
  3  2  2  0  0  0  0
  4  2  1  6  0  0  0
  4  8  1  0  0  0  0
  5 21  1  1  0  0  0
  5  4  1  0  0  0  0
  5  6  1  0  0  0  0
  7  8  1  0  0  0  0
  7  6  1  0  0  0  0
  7 13  1  1  0  0  0
  8  9  1  6  0  0  0
  9 10  2  0  0  0  0
 11  7  1  0  0  0  0
 12 11  1  0  0  0  0
 12  5  1  0  0  0  0
 14  1  1  0  0  0  0
 15 14  1  0  0  0  0
 16 15  2  0  0  0  0
 17 19  2  0  0  0  0
 17 16  1  0  0  0  0
 18 17  1  0  0  0  0
 19 20  1  0  0  0  0
 20 14  2  0  0  0  0
 21 25  1  0  0  0  0
 22 21  1  0  0  0  0
 23 22  1  0  0  0  0
 23 24  1  0  0  0  0
 24 25  1  0  0  0  0
M  END
>  <Pose>
1

>  <Score>
-8.483

$$$$
