MODEL 1
REMARK VINA RESULT:    -8.483      0.000      0.000
REMARK INTER + INTRA:          -9.252
REMARK INTER:                  -9.474
REMARK INTRA:                   0.222
REMARK UNBOUND:                 0.222
REMARK  2 active torsions:
REMARK  status: ('A' for Active; 'I' for Inactive)
REMARK    1  A    between atoms: C_5  and  N_8 
REMARK    2  A    between atoms: C_12  and  C_21 
ROOT
ATOM      1  N   UNK d   1      18.453  34.622  71.331  0.00  0.00    -0.252 N 
ATOM      2  C   UNK d   1      17.066  34.320  71.298  0.00  0.00     0.239 C 
ATOM      3  O   UNK d   1      16.290  34.570  70.338  0.00  0.00    -0.272 OA
ATOM      4  C   UNK d   1      16.643  33.656  72.576  0.00  0.00     0.138 C 
ATOM      5  C   UNK d   1      16.017  32.328  72.312  0.00  0.00     0.142 C 
ATOM      6  O   UNK d   1      16.701  31.433  73.172  0.00  0.00    -0.355 OA
ATOM      7  C   UNK d   1      18.009  31.776  72.746  0.00  0.00     0.089 C 
ATOM      8  C   UNK d   1      17.998  33.242  73.169  0.00  0.00     0.133 C 
ATOM      9  C   UNK d   1      19.010  34.054  72.509  0.00  0.00     0.239 C 
ATOM     10  O   UNK d   1      20.182  34.211  72.936  0.00  0.00    -0.272 OA
ATOM     11  C   UNK d   1      17.864  31.616  71.279  0.00  0.00     0.010 C 
ATOM     12  C   UNK d   1      16.563  31.842  71.004  0.00  0.00     0.016 C 
ATOM     13  C   UNK d   1      19.076  30.972  73.362  0.00  0.00     0.051 C 
ENDROOT
BRANCH   1  14
ATOM     14  C   UNK d   1      19.249  35.358  70.398  0.00  0.00     0.045 A 
ATOM     15  C   UNK d   1      18.966  36.649  70.021  0.00  0.00     0.032 A 
ATOM     16  C   UNK d   1      19.742  37.351  69.116  0.00  0.00     0.026 A 
ATOM     17  C   UNK d   1      20.847  36.759  68.553  0.00  0.00     0.034 A 
ATOM     18 Cl   UNK d   1      21.864  37.617  67.390  0.00  0.00    -0.084 Cl
ATOM     19  C   UNK d   1      21.142  35.466  68.921  0.00  0.00     0.026 A 
ATOM     20  C   UNK d   1      20.360  34.761  69.833  0.00  0.00     0.032 A 
ENDBRANCH   1  14
BRANCH   5  21
ATOM     21  C   UNK d   1      14.556  32.240  72.427  0.00  0.00     0.298 C 
ATOM     22  O   UNK d   1      14.034  31.874  71.185  0.00  0.00    -0.356 OA
ATOM     23  C   UNK d   1      14.017  30.504  71.114  0.00  0.00     0.197 C 
ATOM     24  C   UNK d   1      13.904  30.098  72.559  0.00  0.00     0.197 C 
ATOM     25  O   UNK d   1      14.217  31.211  73.306  0.00  0.00    -0.356 OA
ENDBRANCH   5  21
TORSDOF 2
ENDMDL
