/Users/jonathanwahrer/Desktop/Msc/3_Semester/Drug_Design_Praktikum/waehrer_HTS_screening/HTS_experiment/out/docking_results/vina_output/4x21/2134_docked.pdbqt
 OpenBabel03212202553D

 36 39  0  0  0  0  0  0  0  0999 V2000
   19.6220   35.1190   70.7960 C   0  0  0  0  0  0  0  0  0  0  0  0
   20.7320   35.3950   70.1560 N   0  0  0  0  0  0  0  0  0  0  0  0
   20.5660   36.3740   69.2100 N   0  0  0  0  0  0  0  0  0  0  0  0
   19.1890   36.7470   69.2760 C   0  0  0  0  0  0  0  0  0  0  0  0
   18.4770   37.6170   68.6220 N   0  0  0  0  0  0  0  0  0  0  0  0
   17.0930   37.7990   68.8800 N   0  0  0  0  0  0  0  0  0  0  0  0
   16.4130   37.0500   69.8570 C   0  0  0  0  0  0  0  0  0  0  0  0
   15.1190   37.2020   70.1030 C   0  0  0  0  0  2  0  0  0  0  0  0
   17.1940   36.0700   70.6040 C   0  0  0  0  0  0  0  0  0  0  0  0
   16.6170   35.4020   71.4680 O   0  0  0  0  0  0  0  0  0  0  0  0
   18.5810   35.9460   70.2880 N   0  0  0  0  0  0  0  0  0  0  0  0
   16.6160   38.5230   68.2980 H   0  0  0  0  0  0  0  0  0  0  0  0
   19.5010   34.1270   71.8460 C   0  0  0  0  0  0  0  0  0  0  0  0
   18.7340   32.9600   71.6140 N   0  0  0  0  0  0  0  0  0  0  0  0
   18.2730   32.7640   70.7140 H   0  0  0  0  0  0  0  0  0  0  0  0
   20.0640   34.2870   72.9750 O   0  0  0  0  0  0  0  0  0  0  0  0
   18.6080   32.0330   72.6440 N   0  0  0  0  0  0  0  0  0  0  0  0
   17.9380   30.7960   72.5890 C   0  0  0  0  0  0  0  0  0  0  0  0
   17.8490   29.9030   73.6710 N   0  0  0  0  0  0  0  0  0  0  0  0
   17.3860   30.4600   71.5060 O   0  0  0  0  0  0  0  0  0  0  0  0
   18.2930   30.1580   74.5890 H   0  0  0  0  0  0  0  0  0  0  0  0
   19.0760   32.3390   73.5580 H   0  0  0  0  0  0  0  0  0  0  0  0
   17.1970   28.6370   73.6480 C   0  0  0  0  0  0  0  0  0  0  0  0
   17.8860   27.4880   73.2660 C   0  0  0  0  0  3  0  0  0  0  0  0
   17.2800   26.2510   73.2340 C   0  0  0  0  0  3  0  0  0  0  0  0
   15.9600   26.1940   73.5980 C   0  0  0  0  0  0  0  0  0  0  0  0
   15.0930   24.6530   73.5960 Cl  0  0  0  0  0  0  0  0  0  0  0  0
   15.2450   27.2970   73.9800 C   0  0  0  0  0  3  0  0  0  0  0  0
   15.8620   28.5280   74.0070 C   0  0  0  0  0  3  0  0  0  0  0  0
   21.5620   36.8660   68.3180 C   0  0  0  0  0  0  0  0  0  0  0  0
   22.8960   36.8290   68.6430 C   0  0  0  0  0  3  0  0  0  0  0  0
   23.9090   37.2560   67.7960 C   0  0  0  0  0  3  0  0  0  0  0  0
   23.5970   37.7510   66.5460 C   0  0  0  0  0  0  0  0  0  0  0  0
   22.2630   37.8010   66.1980 C   0  0  0  0  0  3  0  0  0  0  0  0
   24.6580   38.1860   65.5870 C   0  0  0  0  0  1  0  0  0  0  0  0
   21.2670   37.3660   67.0700 C   0  0  0  0  0  3  0  0  0  0  0  0
  1 13  1  0  0  0  0
  2  1  2  0  0  0  0
  3  4  1  0  0  0  0
  3  2  1  0  0  0  0
  4 11  1  0  0  0  0
  5  6  1  0  0  0  0
  5  4  2  0  0  0  0
  6  7  1  0  0  0  0
  7  8  2  0  0  0  0
  7  9  1  0  0  0  0
  9 10  2  0  0  0  0
 11  9  1  0  0  0  0
 11  1  1  0  0  0  0
 12  6  1  0  0  0  0
 13 16  2  0  0  0  0
 14 13  1  0  0  0  0
 14 17  1  0  0  0  0
 15 14  1  0  0  0  0
 17 22  1  0  0  0  0
 18 17  1  0  0  0  0
 18 19  1  0  0  0  0
 19 21  1  0  0  0  0
 20 18  2  0  0  0  0
 23 19  1  0  0  0  0
 23 29  1  0  0  0  0
 24 23  2  0  0  0  0
 25 24  1  0  0  0  0
 25 26  2  0  0  0  0
 26 28  1  0  0  0  0
 27 26  1  0  0  0  0
 28 29  2  0  0  0  0
 30 31  1  0  0  0  0
 30  3  1  0  0  0  0
 32 31  2  0  0  0  0
 33 32  1  0  0  0  0
 34 33  2  0  0  0  0
 34 36  1  0  0  0  0
 35 33  1  0  0  0  0
 36 30  2  0  0  0  0
M  END
>  <Pose>
1

>  <Score>
-9.101

$$$$
