MODEL 1
REMARK VINA RESULT:    -9.101      0.000      0.000
REMARK INTER + INTRA:         -11.952
REMARK INTER:                 -11.229
REMARK INTRA:                  -0.723
REMARK UNBOUND:                -0.723
REMARK  4 active torsions:
REMARK  status: ('A' for Active; 'I' for Inactive)
REMARK    1  A    between atoms: C_5  and  N_8 
REMARK       I    between atoms: N_8  and  C_9 
REMARK       I    between atoms: C_9  and  N_11 
REMARK    2  A    between atoms: N_11  and  N_12 
REMARK       I    between atoms: N_12  and  C_13 
REMARK    3  A    between atoms: C_13  and  C_15 
REMARK    4  A    between atoms: N_17  and  C_26 
ROOT
ATOM      1  C   UNK d   1      19.622  35.119  70.796  0.00  0.00     0.244 A 
ATOM      2  N   UNK d   1      20.732  35.395  70.156  0.00  0.00    -0.127 NA
ATOM      3  N   UNK d   1      20.566  36.374  69.210  0.00  0.00    -0.058 N 
ATOM      4  C   UNK d   1      19.189  36.747  69.276  0.00  0.00     0.756 A 
ATOM      5  N   UNK d   1      18.477  37.617  68.622  0.00  0.00     0.020 NA
ATOM      6  N   UNK d   1      17.093  37.799  68.880  0.00  0.00    -0.258 N 
ATOM      7  C   UNK d   1      16.413  37.050  69.857  0.00  0.00     0.110 A 
ATOM      8  C   UNK d   1      15.119  37.202  70.103  0.00  0.00     0.050 C 
ATOM      9  C   UNK d   1      17.194  36.070  70.604  0.00  0.00     0.295 A 
ATOM     10  O   UNK d   1      16.617  35.402  71.468  0.00  0.00    -0.265 OA
ATOM     11  N   UNK d   1      18.581  35.946  70.288  0.00  0.00    -0.080 N 
ATOM     12  H   UNK d   1      16.616  38.523  68.298  0.00  0.00     0.190 HD
ENDROOT
BRANCH   1  13
ATOM     13  C   UNK d   1      19.501  34.127  71.846  0.00  0.00     0.308 C 
ATOM     14  N   UNK d   1      18.734  32.960  71.614  0.00  0.00    -0.259 N 
ATOM     15  H   UNK d   1      18.273  32.764  70.714  0.00  0.00     0.190 HD
ATOM     16  O   UNK d   1      20.064  34.287  72.975  0.00  0.00    -0.262 OA
BRANCH  14  17
ATOM     17  N   UNK d   1      18.608  32.033  72.644  0.00  0.00    -0.248 N 
ATOM     18  C   UNK d   1      17.938  30.796  72.589  0.00  0.00     0.339 C 
ATOM     19  N   UNK d   1      17.849  29.903  73.671  0.00  0.00    -0.308 N 
ATOM     20  O   UNK d   1      17.386  30.460  71.506  0.00  0.00    -0.245 OA
ATOM     21  H   UNK d   1      18.293  30.158  74.589  0.00  0.00     0.170 HD
ATOM     22  H   UNK d   1      19.076  32.339  73.558  0.00  0.00     0.192 HD
BRANCH  19  23
ATOM     23  C   UNK d   1      17.197  28.637  73.648  0.00  0.00     0.036 A 
ATOM     24  C   UNK d   1      17.886  27.488  73.266  0.00  0.00     0.031 A 
ATOM     25  C   UNK d   1      17.280  26.251  73.234  0.00  0.00     0.026 A 
ATOM     26  C   UNK d   1      15.960  26.194  73.598  0.00  0.00     0.034 A 
ATOM     27 Cl   UNK d   1      15.093  24.653  73.596  0.00  0.00    -0.084 Cl
ATOM     28  C   UNK d   1      15.245  27.297  73.980  0.00  0.00     0.026 A 
ATOM     29  C   UNK d   1      15.862  28.528  74.007  0.00  0.00     0.031 A 
ENDBRANCH  19  23
ENDBRANCH  14  17
ENDBRANCH   1  13
BRANCH   3  30
ATOM     30  C   UNK d   1      21.562  36.866  68.318  0.00  0.00     0.077 A 
ATOM     31  C   UNK d   1      22.896  36.829  68.643  0.00  0.00     0.033 A 
ATOM     32  C   UNK d   1      23.909  37.256  67.796  0.00  0.00     0.009 A 
ATOM     33  C   UNK d   1      23.597  37.751  66.546  0.00  0.00    -0.062 A 
ATOM     34  C   UNK d   1      22.263  37.801  66.198  0.00  0.00     0.009 A 
ATOM     35  C   UNK d   1      24.658  38.186  65.587  0.00  0.00     0.048 C 
ATOM     36  C   UNK d   1      21.267  37.366  67.070  0.00  0.00     0.033 A 
ENDBRANCH   3  30
TORSDOF 4
ENDMDL
