MODEL 1
REMARK VINA RESULT:    -7.665      0.000      0.000
REMARK INTER + INTRA:          -9.889
REMARK INTER:                  -9.233
REMARK INTRA:                  -0.656
REMARK UNBOUND:                -0.656
REMARK  4 active torsions:
REMARK  status: ('A' for Active; 'I' for Inactive)
REMARK    1  A    between atoms: C_5  and  C_8 
REMARK    2  A    between atoms: C_8  and  N_9 
REMARK    3  A    between atoms: N_12  and  C_15 
REMARK    4  A    between atoms: C_17  and  N_24 
ROOT
ATOM      1  N   UNK d   1      20.051  34.600  71.265  0.00  0.00    -0.405 N 
ATOM      2  C   UNK d   1      19.730  34.221  72.583  0.00  0.00     0.137 C 
ATOM      3  C   UNK d   1      18.278  33.945  72.866  0.00  0.00     0.144 C 
ATOM      4  N   UNK d   1      17.661  33.620  71.553  0.00  0.00    -0.360 N 
ATOM      5  C   UNK d   1      18.487  32.841  70.711  0.00  0.00     0.144 C 
ATOM      6  C   UNK d   1      19.600  33.736  70.211  0.00  0.00     0.137 C 
ENDROOT
BRANCH   4   7
ATOM      7  C   UNK d   1      16.349  34.095  71.339  0.00  0.00     0.176 A 
ATOM      8  N   UNK d   1      15.290  33.281  71.630  0.00  0.00    -0.043 NA
ATOM      9  C   UNK d   1      14.014  33.591  71.442  0.00  0.00     0.724 A 
ATOM     10  N   UNK d   1      13.718  34.796  70.927  0.00  0.00    -0.041 NA
ATOM     11  C   UNK d   1      14.724  35.646  70.620  0.00  0.00     0.200 A 
ATOM     12  N   UNK d   1      14.731  36.893  70.114  0.00  0.00    -0.222 NA
ATOM     13  C   UNK d   1      16.068  35.324  70.815  0.00  0.00     0.129 A 
ATOM     14  C   UNK d   1      15.991  37.316  70.005  0.00  0.00     0.210 A 
ATOM     15  N   UNK d   1      16.834  36.360  70.435  0.00  0.00    -0.344 N 
ATOM     16  H   UNK d   1      17.871  36.462  70.457  0.00  0.00     0.167 HD
BRANCH   9  17
ATOM     17  N   UNK d   1      12.943  32.682  71.772  0.00  0.00    -0.231 N 
ATOM     18  H   UNK d   1      12.454  32.130  71.054  0.00  0.00     0.174 HD
ATOM     19  H   UNK d   1      12.649  32.572  72.763  0.00  0.00     0.174 HD
ENDBRANCH   9  17
ENDBRANCH   4   7
BRANCH   1  20
ATOM     20  C   UNK d   1      20.099  35.978  70.963  0.00  0.00     0.155 C 
BRANCH  20  21
ATOM     21  C   UNK d   1      20.788  36.351  69.730  0.00  0.00    -0.041 A 
ATOM     22  C   UNK d   1      20.093  36.869  68.667  0.00  0.00     0.010 A 
ATOM     23  C   UNK d   1      20.687  37.243  67.466  0.00  0.00     0.024 A 
ATOM     24  C   UNK d   1      22.052  37.074  67.362  0.00  0.00     0.034 A 
ATOM     25 Cl   UNK d   1      22.872  37.520  65.880  0.00  0.00    -0.084 Cl
ATOM     26  C   UNK d   1      22.752  36.552  68.426  0.00  0.00     0.024 A 
ATOM     27  C   UNK d   1      22.145  36.190  69.604  0.00  0.00     0.010 A 
ENDBRANCH  20  21
ENDBRANCH   1  20
TORSDOF 4
ENDMDL
