/Users/jonathanwahrer/Desktop/Msc/3_Semester/Drug_Design_Praktikum/waehrer_HTS_screening/HTS_experiment/out/docking_results/vina_output/4x21/2139_docked.pdbqt
 OpenBabel03212202553D

 27 30  0  0  0  0  0  0  0  0999 V2000
   20.0510   34.6000   71.2650 N   0  0  0  0  0  0  0  0  0  0  0  0
   19.7300   34.2210   72.5830 C   0  0  0  0  0  2  0  0  0  0  0  0
   18.2780   33.9450   72.8660 C   0  0  0  0  0  2  0  0  0  0  0  0
   17.6610   33.6200   71.5530 N   0  0  0  0  0  0  0  0  0  0  0  0
   18.4870   32.8410   70.7110 C   0  0  0  0  0  2  0  0  0  0  0  0
   19.6000   33.7360   70.2110 C   0  0  0  0  0  2  0  0  0  0  0  0
   16.3490   34.0950   71.3390 C   0  0  0  0  0  0  0  0  0  0  0  0
   15.2900   33.2810   71.6300 N   0  0  0  0  0  0  0  0  0  0  0  0
   14.0140   33.5910   71.4420 C   0  0  0  0  0  0  0  0  0  0  0  0
   13.7180   34.7960   70.9270 N   0  0  0  0  0  0  0  0  0  0  0  0
   14.7240   35.6460   70.6200 C   0  0  0  0  0  0  0  0  0  0  0  0
   14.7310   36.8930   70.1140 N   0  0  0  0  0  0  0  0  0  0  0  0
   16.0680   35.3240   70.8150 C   0  0  0  0  0  0  0  0  0  0  0  0
   15.9910   37.3160   70.0050 C   0  0  0  0  0  3  0  0  0  0  0  0
   16.8340   36.3600   70.4350 N   0  0  0  0  0  0  0  0  0  0  0  0
   17.8710   36.4620   70.4570 H   0  0  0  0  0  0  0  0  0  0  0  0
   12.9430   32.6820   71.7720 N   0  0  0  0  0  0  0  0  0  0  0  0
   12.4540   32.1300   71.0540 H   0  0  0  0  0  0  0  0  0  0  0  0
   12.6490   32.5720   72.7630 H   0  0  0  0  0  0  0  0  0  0  0  0
   20.0990   35.9780   70.9630 C   0  0  0  0  0  2  0  0  0  0  0  0
   20.7880   36.3510   69.7300 C   0  0  0  0  0  0  0  0  0  0  0  0
   20.0930   36.8690   68.6670 C   0  0  0  0  0  3  0  0  0  0  0  0
   20.6870   37.2430   67.4660 C   0  0  0  0  0  3  0  0  0  0  0  0
   22.0520   37.0740   67.3620 C   0  0  0  0  0  0  0  0  0  0  0  0
   22.8720   37.5200   65.8800 Cl  0  0  0  0  0  0  0  0  0  0  0  0
   22.7520   36.5520   68.4260 C   0  0  0  0  0  3  0  0  0  0  0  0
   22.1450   36.1900   69.6040 C   0  0  0  0  0  3  0  0  0  0  0  0
  1  2  1  0  0  0  0
  2  3  1  0  0  0  0
  4  3  1  0  0  0  0
  5  4  1  0  0  0  0
  6  5  1  0  0  0  0
  6  1  1  0  0  0  0
  7  4  1  0  0  0  0
  7  8  1  0  0  0  0
  9  8  2  0  0  0  0
  9 17  1  0  0  0  0
 10  9  1  0  0  0  0
 11 13  1  0  0  0  0
 11 10  2  0  0  0  0
 12 11  1  0  0  0  0
 13  7  2  0  0  0  0
 14 12  2  0  0  0  0
 14 15  1  0  0  0  0
 15 16  1  0  0  0  0
 15 13  1  0  0  0  0
 17 19  1  0  0  0  0
 18 17  1  0  0  0  0
 20  1  1  0  0  0  0
 21 20  1  0  0  0  0
 22 21  2  0  0  0  0
 23 22  1  0  0  0  0
 24 23  2  0  0  0  0
 24 26  1  0  0  0  0
 25 24  1  0  0  0  0
 26 27  2  0  0  0  0
 27 21  1  0  0  0  0
M  END
>  <Pose>
1

>  <Score>
-7.665

$$$$
