/Users/jonathanwahrer/Desktop/Msc/3_Semester/Drug_Design_Praktikum/waehrer_HTS_screening/HTS_experiment/out/docking_results/vina_output/4x21/2163_docked.pdbqt
 OpenBabel03212202563D

 31 34  0  0  0  0  0  0  0  0999 V2000
   18.0590   36.5710   69.9590 C   0  0  0  0  0  0  0  0  0  0  0  0
   16.7180   36.4190   70.0180 N   0  0  0  0  0  4  0  0  0  0  0  0
   16.1520   35.4500   70.7470 C   0  0  0  0  0  0  0  0  0  0  0  0
   16.9500   34.6160   71.4310 N   0  0  0  0  0  0  0  0  0  0  0  0
   18.3070   34.7110   71.4180 C   0  0  0  0  0  0  0  0  0  0  0  0
   18.8120   35.7190   70.6550 N   0  0  0  0  0  2  0  0  0  0  0  0
   18.6930   37.5890   69.1950 N   0  0  0  0  0  0  0  0  0  0  0  0
   18.2100   38.5100   69.0100 H   0  0  0  0  0  0  0  0  0  0  0  0
   19.9700   37.4400   68.6510 N   0  0  0  0  0  0  0  0  0  0  0  0
   20.1940   37.1140   67.4340 C   0  0  0  0  0  3  0  0  0  0  0  0
   21.5360   36.9620   66.8820 C   0  0  0  0  0  0  0  0  0  0  0  0
   22.1830   35.7500   66.8860 C   0  0  0  0  0  3  0  0  0  0  0  0
   23.4500   35.6190   66.3630 C   0  0  0  0  0  0  0  0  0  0  0  0
   24.3470   33.9370   66.3690 Br  0  0  0  0  0  0  0  0  0  0  0  0
   24.1240   36.7010   65.8120 C   0  0  0  0  0  3  0  0  0  0  0  0
   23.4770   37.9260   65.8040 C   0  0  0  0  0  3  0  0  0  0  0  0
   22.1920   38.0450   66.3390 C   0  0  0  0  0  0  0  0  0  0  0  0
   21.5150   39.2590   66.3480 O   0  0  0  0  0  0  0  0  0  0  0  0
   22.0220   40.4440   65.7810 C   0  0  0  0  0  1  0  0  0  0  0  0
   14.7420   35.2900   70.8070 N   0  0  0  0  0  0  0  0  0  0  0  0
   14.0950   34.4970   71.8290 C   0  0  0  0  0  2  0  0  0  0  0  0
   12.9730   33.6530   71.2440 C   0  0  0  0  0  2  0  0  0  0  0  0
   12.1890   34.4170   70.3720 O   0  0  0  0  0  0  0  0  0  0  0  0
   12.9220   34.8900   69.3100 C   0  0  0  0  0  2  0  0  0  0  0  0
   13.8920   35.9300   69.8270 C   0  0  0  0  0  2  0  0  0  0  0  0
   19.1380   33.8330   72.1370 N   0  0  0  0  0  0  0  0  0  0  0  0
   20.5380   33.7280   71.8510 C   0  0  0  0  0  2  0  0  0  0  0  0
   20.8360   32.2480   71.6200 C   0  0  0  0  0  2  0  0  0  0  0  0
   20.4150   31.5690   72.7510 O   0  0  0  0  0  0  0  0  0  0  0  0
   19.0500   31.5860   72.9110 C   0  0  0  0  0  2  0  0  0  0  0  0
   18.5870   33.0180   73.1800 C   0  0  0  0  0  2  0  0  0  0  0  0
  1  2  2  0  0  0  0
  1  6  1  0  0  0  0
  2  3  2  0  0  0  0
  3 20  1  0  0  0  0
  3  4  1  0  0  0  0
  5  4  2  0  0  0  0
  5 26  1  0  0  0  0
  6  5  1  0  0  0  0
  7  1  1  0  0  0  0
  8  7  1  0  0  0  0
  9  7  1  0  0  0  0
 10  9  2  0  0  0  0
 11 12  1  0  0  0  0
 11 10  1  0  0  0  0
 13 14  1  0  0  0  0
 13 12  2  0  0  0  0
 15 13  1  0  0  0  0
 16 15  2  0  0  0  0
 16 17  1  0  0  0  0
 17 18  1  0  0  0  0
 17 11  2  0  0  0  0
 19 18  1  0  0  0  0
 20 21  1  0  0  0  0
 22 21  1  0  0  0  0
 23 22  1  0  0  0  0
 24 25  1  0  0  0  0
 24 23  1  0  0  0  0
 25 20  1  0  0  0  0
 26 31  1  0  0  0  0
 27 26  1  0  0  0  0
 28 27  1  0  0  0  0
 28 29  1  0  0  0  0
 29 30  1  0  0  0  0
 30 31  1  0  0  0  0
M  END
>  <Pose>
1

>  <Score>
-8.684

$$$$
