MODEL 1
REMARK VINA RESULT:    -8.292      0.000      0.000
REMARK INTER + INTRA:         -10.552
REMARK INTER:                  -9.747
REMARK INTRA:                  -0.805
REMARK UNBOUND:                -0.805
REMARK  3 active torsions:
REMARK  status: ('A' for Active; 'I' for Inactive)
REMARK    1  A    between atoms: C_4  and  N_8 
REMARK       I    between atoms: N_8  and  C_9 
REMARK    2  A    between atoms: C_9  and  C_11 
REMARK    3  A    between atoms: N_13  and  C_15 
ROOT
ATOM      1  C   UNK d   1      13.303  32.317  71.222  0.00  0.00     0.114 C 
ATOM      2  C   UNK d   1      13.879  31.919  72.556  0.00  0.00     0.140 C 
ATOM      3  N   UNK d   1      14.749  30.921  71.915  0.00  0.00    -0.362 N 
ATOM      4  C   UNK d   1      13.865  31.001  70.767  0.00  0.00     0.140 C 
ENDROOT
BRANCH   1   5
ATOM      5  C   UNK d   1      13.962  33.522  70.609  0.00  0.00     0.229 C 
ATOM      6  N   UNK d   1      14.942  34.210  71.340  0.00  0.00    -0.327 N 
ATOM      7  H   UNK d   1      15.198  33.850  72.332  0.00  0.00     0.169 HD
ATOM      8  O   UNK d   1      13.567  33.816  69.471  0.00  0.00    -0.273 OA
BRANCH   6   9
ATOM      9  C   UNK d   1      15.640  35.351  70.896  0.00  0.00     0.035 A 
ATOM     10  C   UNK d   1      17.019  35.257  70.658  0.00  0.00     0.048 A 
ATOM     11  C   UNK d   1      17.776  36.320  70.223  0.00  0.00     0.013 A 
ATOM     12 Br   UNK d   1      19.648  36.149  69.912  0.00  0.00    -0.051 Br
ATOM     13  C   UNK d   1      17.182  37.528  70.008  0.00  0.00     0.019 A 
ATOM     14  C   UNK d   1      15.848  37.647  70.231  0.00  0.00     0.004 A 
ATOM     15  C   UNK d   1      15.071  36.573  70.671  0.00  0.00     0.029 A 
ENDBRANCH   6   9
ENDBRANCH   1   5
BRANCH   3  16
ATOM     16  C   UNK d   1      15.924  30.233  72.325  0.00  0.00     0.162 A 
ATOM     17  N   UNK d   1      15.963  28.881  72.449  0.00  0.00    -0.222 NA
ATOM     18  C   UNK d   1      17.105  28.244  72.844  0.00  0.00     0.237 A 
ATOM     19  N   UNK d   1      18.219  28.929  73.120  0.00  0.00    -0.220 NA
ATOM     20  C   UNK d   1      18.251  30.259  73.019  0.00  0.00     0.183 A 
ATOM     21  N   UNK d   1      19.229  31.160  73.237  0.00  0.00    -0.236 N 
ATOM     22  C   UNK d   1      17.096  30.900  72.620  0.00  0.00     0.173 A 
ATOM     23  N   UNK d   1      18.708  32.341  72.983  0.00  0.00    -0.064 NA
ATOM     24  C   UNK d   1      20.603  30.914  73.668  0.00  0.00     0.183 C 
ATOM     25  N   UNK d   1      17.429  32.219  72.610  0.00  0.00    -0.124 NA
ENDBRANCH   3  16
TORSDOF 3
ENDMDL
