/Users/jonathanwahrer/Desktop/Msc/3_Semester/Drug_Design_Praktikum/waehrer_HTS_screening/HTS_experiment/out/docking_results/vina_output/4x21/2170_docked.pdbqt
 OpenBabel03212202563D

 32 36  0  0  0  0  0  0  0  0999 V2000
   17.0600   34.5090   70.6080 N   0  0  0  0  0  0  0  0  0  0  0  0
   18.2320   35.0690   70.3950 N   0  0  0  0  0  0  0  0  0  0  0  0
   18.1240   36.3910   70.1990 C   0  0  0  0  0  0  0  0  0  0  0  0
   19.3280   36.9420   69.9820 N   0  0  0  0  0  0  0  0  0  0  0  0
   20.2690   35.9730   70.0320 C   0  0  0  0  0  0  0  0  0  0  0  0
   19.5610   34.7950   70.2930 C   0  0  0  0  0  0  0  0  0  0  0  0
   20.3320   33.6560   70.3790 C   0  0  0  0  0  0  0  0  0  0  0  0
   19.7340   32.5630   70.6110 O   0  0  0  0  0  0  0  0  0  0  0  0
   21.6840   33.6470   70.2280 N   0  0  0  0  0  0  0  0  0  0  0  0
   22.2880   34.8190   69.9820 C   0  0  0  0  0  0  0  0  0  0  0  0
   23.5550   34.7900   69.8440 O   0  0  0  0  0  0  0  0  0  0  0  0
   21.6040   35.9680   69.8820 N   0  0  0  0  0  0  0  0  0  0  0  0
   22.3120   37.1900   69.6140 C   0  0  0  0  0  1  0  0  0  0  0  0
   22.4200   32.4080   70.3360 C   0  0  0  0  0  1  0  0  0  0  0  0
   16.7960   36.6550   70.2960 N   0  0  0  0  0  0  0  0  0  0  0  0
   16.1360   35.5160   70.5440 C   0  0  0  0  0  0  0  0  0  0  0  0
   16.7170   33.1280   70.8570 C   0  0  0  0  0  2  0  0  0  0  0  0
   16.8450   32.7320   72.2710 C   0  0  0  0  0  0  0  0  0  0  0  0
   17.3270   33.4890   73.1430 O   0  0  0  0  0  0  0  0  0  0  0  0
   16.3900   31.4020   72.6530 C   0  0  0  0  0  0  0  0  0  0  0  0
   15.2750   31.2020   73.4400 C   0  0  0  0  0  3  0  0  0  0  0  0
   14.8470   29.9390   73.7980 C   0  0  0  0  0  3  0  0  0  0  0  0
   15.5350   28.8110   73.3730 C   0  0  0  0  0  0  0  0  0  0  0  0
   15.0110   27.1950   73.8150 Cl  0  0  0  0  0  0  0  0  0  0  0  0
   16.6540   28.9910   72.5860 C   0  0  0  0  0  3  0  0  0  0  0  0
   17.0740   30.2560   72.2320 C   0  0  0  0  0  3  0  0  0  0  0  0
   14.7350   35.3270   70.7200 N   0  0  0  0  0  0  0  0  0  0  0  0
   14.1810   34.8210   71.9640 C   0  0  0  0  0  2  0  0  0  0  0  0
   13.0510   33.8840   71.6150 C   0  0  0  0  0  2  0  0  0  0  0  0
   12.1120   34.5440   70.8070 O   0  0  0  0  0  0  0  0  0  0  0  0
   12.6140   34.8120   69.5530 C   0  0  0  0  0  2  0  0  0  0  0  0
   13.8400   35.6500   69.6400 C   0  0  0  0  0  2  0  0  0  0  0  0
  1 17  1  0  0  0  0
  2  1  1  0  0  0  0
  3 15  1  0  0  0  0
  3  2  1  0  0  0  0
  4  5  1  0  0  0  0
  4  3  2  0  0  0  0
  5  6  2  0  0  0  0
  6  7  1  0  0  0  0
  6  2  1  0  0  0  0
  7  8  2  0  0  0  0
  9 14  1  0  0  0  0
  9  7  1  0  0  0  0
 10  9  1  0  0  0  0
 11 10  2  0  0  0  0
 12 10  1  0  0  0  0
 12  5  1  0  0  0  0
 13 12  1  0  0  0  0
 15 16  2  0  0  0  0
 16  1  1  0  0  0  0
 16 27  1  0  0  0  0
 17 18  1  0  0  0  0
 18 20  1  0  0  0  0
 18 19  2  0  0  0  0
 20 21  1  0  0  0  0
 21 22  2  0  0  0  0
 23 22  1  0  0  0  0
 23 24  1  0  0  0  0
 25 23  2  0  0  0  0
 26 25  1  0  0  0  0
 26 20  2  0  0  0  0
 27 28  1  0  0  0  0
 29 28  1  0  0  0  0
 30 29  1  0  0  0  0
 31 32  1  0  0  0  0
 31 30  1  0  0  0  0
 32 27  1  0  0  0  0
M  END
>  <Pose>
1

>  <Score>
-8.837

$$$$
