MODEL 1
REMARK VINA RESULT:    -8.837      0.000      0.000
REMARK INTER + INTRA:         -11.745
REMARK INTER:                 -10.903
REMARK INTRA:                  -0.842
REMARK UNBOUND:                -0.842
REMARK  4 active torsions:
REMARK  status: ('A' for Active; 'I' for Inactive)
REMARK    1  A    between atoms: C_5  and  C_8 
REMARK    2  A    between atoms: C_8  and  C_10 
REMARK    3  A    between atoms: C_10  and  N_11 
REMARK    4  A    between atoms: C_26  and  N_27 
ROOT
ATOM      1  N   UNK d   1      17.060  34.509  70.608  0.00  0.00    -0.092 N 
ATOM      2  N   UNK d   1      18.232  35.069  70.395  0.00  0.00    -0.056 N 
ATOM      3  C   UNK d   1      18.124  36.391  70.199  0.00  0.00     0.767 A 
ATOM      4  N   UNK d   1      19.328  36.942  69.982  0.00  0.00    -0.040 NA
ATOM      5  C   UNK d   1      20.269  35.973  70.032  0.00  0.00     0.188 A 
ATOM      6  C   UNK d   1      19.561  34.795  70.293  0.00  0.00     0.190 A 
ATOM      7  C   UNK d   1      20.332  33.656  70.379  0.00  0.00     0.284 A 
ATOM      8  O   UNK d   1      19.734  32.563  70.611  0.00  0.00    -0.265 OA
ATOM      9  N   UNK d   1      21.684  33.647  70.228  0.00  0.00    -0.269 N 
ATOM     10  C   UNK d   1      22.288  34.819  69.982  0.00  0.00     0.332 A 
ATOM     11  O   UNK d   1      23.555  34.790  69.844  0.00  0.00    -0.246 OA
ATOM     12  N   UNK d   1      21.604  35.968  69.882  0.00  0.00    -0.285 N 
ATOM     13  C   UNK d   1      22.312  37.190  69.614  0.00  0.00     0.163 C 
ATOM     14  C   UNK d   1      22.420  32.408  70.336  0.00  0.00     0.164 C 
ATOM     15  N   UNK d   1      16.796  36.655  70.296  0.00  0.00     0.132 NA
ATOM     16  C   UNK d   1      16.136  35.516  70.544  0.00  0.00     0.736 A 
ENDROOT
BRANCH   1  17
ATOM     17  C   UNK d   1      16.717  33.128  70.857  0.00  0.00     0.253 C 
BRANCH  17  18
ATOM     18  C   UNK d   1      16.845  32.732  72.271  0.00  0.00     0.179 C 
ATOM     19  O   UNK d   1      17.327  33.489  73.143  0.00  0.00    -0.290 OA
BRANCH  18  20
ATOM     20  C   UNK d   1      16.390  31.402  72.653  0.00  0.00     0.011 A 
ATOM     21  C   UNK d   1      15.275  31.202  73.440  0.00  0.00     0.017 A 
ATOM     22  C   UNK d   1      14.847  29.939  73.798  0.00  0.00     0.025 A 
ATOM     23  C   UNK d   1      15.535  28.811  73.373  0.00  0.00     0.034 A 
ATOM     24 Cl   UNK d   1      15.011  27.195  73.815  0.00  0.00    -0.084 Cl
ATOM     25  C   UNK d   1      16.654  28.991  72.586  0.00  0.00     0.025 A 
ATOM     26  C   UNK d   1      17.074  30.256  72.232  0.00  0.00     0.017 A 
ENDBRANCH  18  20
ENDBRANCH  17  18
ENDBRANCH   1  17
BRANCH  16  27
ATOM     27  N   UNK d   1      14.735  35.327  70.720  0.00  0.00    -0.210 N 
ATOM     28  C   UNK d   1      14.181  34.821  71.964  0.00  0.00     0.167 C 
ATOM     29  C   UNK d   1      13.051  33.884  71.615  0.00  0.00     0.188 C 
ATOM     30  O   UNK d   1      12.112  34.544  70.807  0.00  0.00    -0.388 OA
ATOM     31  C   UNK d   1      12.614  34.812  69.553  0.00  0.00     0.188 C 
ATOM     32  C   UNK d   1      13.840  35.650  69.640  0.00  0.00     0.167 C 
ENDBRANCH  16  27
TORSDOF 4
ENDMDL
