/Users/jonathanwahrer/Desktop/Msc/3_Semester/Drug_Design_Praktikum/waehrer_HTS_screening/HTS_experiment/out/docking_results/vina_output/4x21/2177_docked.pdbqt
 OpenBabel03212202563D

 31 35  0  0  0  0  0  0  0  0999 V2000
   20.0810   36.9840   69.1390 N   0  0  0  0  0  0  0  0  0  0  0  0
   20.5160   36.8080   67.7740 C   0  0  0  0  0  2  0  0  0  0  0  0
   21.8970   37.3960   67.6410 C   0  0  0  0  0  2  0  0  0  0  0  0
   22.7820   37.0340   68.7300 N   0  0  0  0  0  0  0  0  0  0  0  0
   22.3090   37.1830   70.0920 C   0  0  0  0  0  2  0  0  0  0  0  0
   20.9540   36.5330   70.1990 C   0  0  0  0  0  2  0  0  0  0  0  0
   18.8130   37.5850   69.3610 C   0  0  0  0  0  3  0  0  0  0  0  0
   17.7440   36.9550   69.7910 C   0  0  0  0  0  0  0  0  0  0  0  0
   17.7400   35.5630   70.0920 N   0  0  0  0  0  0  0  0  0  0  0  0
   16.5310   37.6700   69.9730 N   0  0  0  0  0  0  0  0  0  0  0  0
   16.6050   34.8510   70.5600 C   0  0  0  0  0  0  0  0  0  0  0  0
   18.6380   35.0530   69.9550 H   0  0  0  0  0  0  0  0  0  0  0  0
   15.4210   35.5380   70.7380 C   0  0  0  0  0  0  0  0  0  0  0  0
   16.5970   33.5030   70.8520 C   0  0  0  0  0  3  0  0  0  0  0  0
   14.2900   34.9010   71.1880 C   0  0  0  0  0  3  0  0  0  0  0  0
   15.3930   36.9830   70.4350 C   0  0  0  0  0  0  0  0  0  0  0  0
   14.3010   33.5540   71.4750 C   0  0  0  0  0  0  0  0  0  0  0  0
   12.8240   32.7740   72.0510 Cl  0  0  0  0  0  0  0  0  0  0  0  0
   15.4720   32.8520   71.3030 C   0  0  0  0  0  3  0  0  0  0  0  0
   14.2720   37.5580   70.6210 O   0  0  0  0  0  0  0  0  0  0  0  0
   16.4550   38.6930   69.7740 H   0  0  0  0  0  0  0  0  0  0  0  0
   24.0930   36.5410   68.4500 C   0  0  0  0  0  0  0  0  0  0  0  0
   25.1310   37.4010   68.4830 N   0  0  0  0  0  0  0  0  0  0  0  0
   26.3980   36.9730   68.2210 C   0  0  0  0  0  3  0  0  0  0  0  0
   26.6420   35.6780   67.9230 N   0  0  0  0  0  0  0  0  0  0  0  0
   25.6540   34.7790   67.8750 C   0  0  0  0  0  0  0  0  0  0  0  0
   25.6150   33.4600   67.6100 N   0  0  0  0  0  0  0  0  0  0  0  0
   24.3620   35.2330   68.1450 C   0  0  0  0  0  0  0  0  0  0  0  0
   24.3550   33.0750   67.7050 N   0  0  0  0  0  0  0  0  0  0  0  0
   26.7430   32.5850   67.2770 C   0  0  0  0  0  1  0  0  0  0  0  0
   23.5650   34.1370   68.0310 C   0  0  0  0  0  3  0  0  0  0  0  0
  1  7  1  0  0  0  0
  1  6  1  0  0  0  0
  2  1  1  0  0  0  0
  3  2  1  0  0  0  0
  3  4  1  0  0  0  0
  4  5  1  0  0  0  0
  5  6  1  0  0  0  0
  7  8  2  0  0  0  0
  8 10  1  0  0  0  0
  8  9  1  0  0  0  0
  9 11  1  0  0  0  0
 10 16  1  0  0  0  0
 11 13  2  0  0  0  0
 11 14  1  0  0  0  0
 12  9  1  0  0  0  0
 13 15  1  0  0  0  0
 14 19  2  0  0  0  0
 15 17  2  0  0  0  0
 16 20  2  0  0  0  0
 16 13  1  0  0  0  0
 17 18  1  0  0  0  0
 19 17  1  0  0  0  0
 21 10  1  0  0  0  0
 22 23  1  0  0  0  0
 22  4  1  0  0  0  0
 24 23  2  0  0  0  0
 25 24  1  0  0  0  0
 26 25  2  0  0  0  0
 26 28  1  0  0  0  0
 27 29  1  0  0  0  0
 27 26  1  0  0  0  0
 28 22  2  0  0  0  0
 29 31  2  0  0  0  0
 30 27  1  0  0  0  0
 31 28  1  0  0  0  0
M  END
>  <Pose>
1

>  <Score>
-9.175

$$$$
