MODEL 1
REMARK VINA RESULT:    -9.175      0.000      0.000
REMARK INTER + INTRA:         -10.746
REMARK INTER:                 -10.248
REMARK INTRA:                  -0.497
REMARK UNBOUND:                -0.497
REMARK  2 active torsions:
REMARK  status: ('A' for Active; 'I' for Inactive)
REMARK    1  A    between atoms: C_10  and  N_11 
REMARK    2  A    between atoms: N_14  and  C_17 
ROOT
ATOM      1  N   UNK d   1      20.081  36.984  69.139  0.00  0.00    -0.384 N 
ATOM      2  C   UNK d   1      20.516  36.808  67.774  0.00  0.00     0.142 C 
ATOM      3  C   UNK d   1      21.897  37.396  67.641  0.00  0.00     0.144 C 
ATOM      4  N   UNK d   1      22.782  37.034  68.730  0.00  0.00    -0.362 N 
ATOM      5  C   UNK d   1      22.309  37.183  70.092  0.00  0.00     0.144 C 
ATOM      6  C   UNK d   1      20.954  36.533  70.199  0.00  0.00     0.142 C 
ENDROOT
BRANCH   1   7
ATOM      7  C   UNK d   1      18.813  37.585  69.361  0.00  0.00     0.134 C 
ATOM      8  C   UNK d   1      17.744  36.955  69.791  0.00  0.00     0.124 A 
ATOM      9  N   UNK d   1      17.740  35.563  70.092  0.00  0.00    -0.340 N 
ATOM     10  N   UNK d   1      16.531  37.670  69.973  0.00  0.00    -0.308 N 
ATOM     11  C   UNK d   1      16.605  34.851  70.560  0.00  0.00     0.049 A 
ATOM     12  H   UNK d   1      18.638  35.053  69.955  0.00  0.00     0.167 HD
ATOM     13  C   UNK d   1      15.421  35.538  70.738  0.00  0.00     0.060 A 
ATOM     14  C   UNK d   1      16.597  33.503  70.852  0.00  0.00     0.032 A 
ATOM     15  C   UNK d   1      14.290  34.901  71.188  0.00  0.00     0.043 A 
ATOM     16  C   UNK d   1      15.393  36.983  70.435  0.00  0.00     0.259 A 
ATOM     17  C   UNK d   1      14.301  33.554  71.475  0.00  0.00     0.035 A 
ATOM     18 Cl   UNK d   1      12.824  32.774  72.051  0.00  0.00    -0.084 Cl
ATOM     19  C   UNK d   1      15.472  32.852  71.303  0.00  0.00     0.026 A 
ATOM     20  O   UNK d   1      14.272  37.558  70.621  0.00  0.00    -0.267 OA
ATOM     21  H   UNK d   1      16.455  38.693  69.774  0.00  0.00     0.170 HD
ENDBRANCH   1   7
BRANCH   4  22
ATOM     22  C   UNK d   1      24.093  36.541  68.450  0.00  0.00     0.142 A 
ATOM     23  N   UNK d   1      25.131  37.401  68.483  0.00  0.00    -0.224 NA
ATOM     24  C   UNK d   1      26.398  36.973  68.221  0.00  0.00     0.237 A 
ATOM     25  N   UNK d   1      26.642  35.678  67.923  0.00  0.00    -0.222 NA
ATOM     26  C   UNK d   1      25.654  34.779  67.875  0.00  0.00     0.162 A 
ATOM     27  N   UNK d   1      25.615  33.460  67.610  0.00  0.00    -0.256 N 
ATOM     28  C   UNK d   1      24.362  35.233  68.145  0.00  0.00     0.076 A 
ATOM     29  N   UNK d   1      24.355  33.075  67.705  0.00  0.00    -0.182 NA
ATOM     30  C   UNK d   1      26.743  32.585  67.277  0.00  0.00     0.182 C 
ATOM     31  C   UNK d   1      23.565  34.137  68.031  0.00  0.00     0.158 A 
ENDBRANCH   4  22
TORSDOF 2
ENDMDL
