MODEL 1
REMARK VINA RESULT:    -9.236      0.000      0.000
REMARK INTER + INTRA:         -12.674
REMARK INTER:                 -11.665
REMARK INTRA:                  -1.009
REMARK UNBOUND:                -1.009
REMARK  5 active torsions:
REMARK  status: ('A' for Active; 'I' for Inactive)
REMARK    1  A    between atoms: S_1  and  N_4 
REMARK    2  A    between atoms: C_6  and  C_10 
REMARK    3  A    between atoms: N_13  and  C_20 
REMARK    4  A    between atoms: C_17  and  O_19 
REMARK    5  A    between atoms: C_20  and  C_21 
ROOT
ATOM      1  C   UNK d   1      19.600  34.907  70.914  0.00  0.00     0.137 A 
ATOM      2  N   UNK d   1      18.358  34.675  71.333  0.00  0.00    -0.211 NA
ATOM      3  C   UNK d   1      17.840  33.435  71.369  0.00  0.00     0.184 A 
ATOM      4  N   UNK d   1      16.633  32.930  71.743  0.00  0.00    -0.227 N 
ATOM      5  N   UNK d   1      16.702  31.628  71.560  0.00  0.00    -0.063 NA
ATOM      6  N   UNK d   1      17.883  31.268  71.092  0.00  0.00    -0.124 NA
ATOM      7  C   UNK d   1      18.629  32.370  70.956  0.00  0.00     0.180 A 
ATOM      8  C   UNK d   1      19.923  32.596  70.518  0.00  0.00     0.199 A 
ATOM      9  N   UNK d   1      20.343  33.868  70.520  0.00  0.00    -0.207 NA
ENDROOT
BRANCH   1  10
ATOM     10  C   UNK d   1      20.209  36.265  70.867  0.00  0.00     0.076 C 
ATOM     11  C   UNK d   1      21.597  36.310  70.405  0.00  0.00     0.147 C 
ATOM     12  N   UNK d   1      21.922  36.823  69.151  0.00  0.00    -0.310 N 
ATOM     13  C   UNK d   1      20.946  37.085  68.200  0.00  0.00     0.135 C 
ATOM     14  C   UNK d   1      19.524  36.809  68.598  0.00  0.00     0.021 C 
ATOM     15  C   UNK d   1      19.327  37.155  70.031  0.00  0.00     0.015 C 
BRANCH  12  16
ATOM     16  S   UNK d   1      23.472  36.417  68.600  0.00  0.00     0.224 S 
ATOM     17  O   UNK d   1      24.554  37.210  69.247  0.00  0.00    -0.206 OA
ATOM     18  O   UNK d   1      23.501  36.606  67.097  0.00  0.00    -0.206 OA
ATOM     19  C   UNK d   1      23.813  34.670  68.864  0.00  0.00     0.186 C 
ENDBRANCH  12  16
ENDBRANCH   1  10
BRANCH   8  20
ATOM     20  O   UNK d   1      20.727  31.544  70.101  0.00  0.00    -0.343 OA
ATOM     21  H   UNK d   1      20.415  30.930  69.364  0.00  0.00     0.219 HD
ENDBRANCH   8  20
BRANCH   4  22
ATOM     22  C   UNK d   1      15.517  33.675  72.235  0.00  0.00     0.195 C 
BRANCH  22  23
ATOM     23  C   UNK d   1      14.812  34.452  71.187  0.00  0.00    -0.017 A 
ATOM     24  C   UNK d   1      13.840  33.825  70.450  0.00  0.00     0.042 A 
ATOM     25  C   UNK d   1      13.130  34.480  69.446  0.00  0.00     0.024 A 
ATOM     26 Cl   UNK d   1      13.453  32.144  70.752  0.00  0.00    -0.084 Cl
ATOM     27  C   UNK d   1      13.397  35.804  69.168  0.00  0.00     0.002 A 
ATOM     28  C   UNK d   1      14.370  36.441  69.905  0.00  0.00     0.001 A 
ATOM     29  C   UNK d   1      15.074  35.775  70.906  0.00  0.00     0.010 A 
ENDBRANCH  22  23
ENDBRANCH   4  22
TORSDOF 5
ENDMDL
