MODEL 1
REMARK VINA RESULT:    -7.865      0.000      0.000
REMARK INTER + INTRA:         -10.397
REMARK INTER:                 -10.163
REMARK INTRA:                  -0.234
REMARK UNBOUND:                -0.234
REMARK  5 active torsions:
REMARK  status: ('A' for Active; 'I' for Inactive)
REMARK    1  A    between atoms: S_1  and  N_4 
REMARK    2  A    between atoms: S_1  and  C_22 
REMARK    3  A    between atoms: C_6  and  C_10 
REMARK       I    between atoms: C_10  and  N_12 
REMARK    4  A    between atoms: N_15  and  C_18 
REMARK    5  A    between atoms: C_18  and  C_19 
ROOT
ATOM      1  N   UNK d   1      21.986  35.960  69.525  0.00  0.00    -0.202 NA
ATOM      2  C   UNK d   1      21.551  35.040  70.596  0.00  0.00     0.149 C 
ATOM      3  C   UNK d   1      20.070  34.968  70.539  0.00  0.00     0.227 C 
ATOM      4  O   UNK d   1      19.367  36.112  70.452  0.00  0.00    -0.374 OA
ATOM      5  C   UNK d   1      19.970  37.252  70.084  0.00  0.00     0.184 C 
ATOM      6  C   UNK d   1      21.447  37.217  69.892  0.00  0.00     0.134 C 
ENDROOT
BRANCH   3   7
ATOM      7  C   UNK d   1      19.623  34.212  71.745  0.00  0.00     0.250 C 
ATOM      8  O   UNK d   1      20.136  34.536  72.849  0.00  0.00    -0.270 OA
ATOM      9  N   UNK d   1      18.676  33.171  71.736  0.00  0.00    -0.347 N 
ATOM     10  C   UNK d   1      18.003  32.690  70.544  0.00  0.00     0.156 C 
ATOM     11  C   UNK d   1      18.285  32.474  72.971  0.00  0.00     0.156 C 
ATOM     12  C   UNK d   1      17.166  31.494  70.954  0.00  0.00     0.292 C 
ATOM     13  N   UNK d   1      16.155  31.830  71.939  0.00  0.00     0.091 N 
ATOM     14  C   UNK d   1      16.755  32.570  73.003  0.00  0.00     0.292 C 
BRANCH  13  15
ATOM     15  C   UNK d   1      15.077  32.485  71.271  0.00  0.00     0.277 C 
BRANCH  15  16
ATOM     16  C   UNK d   1      14.860  33.906  71.714  0.00  0.00     0.014 A 
ATOM     17  C   UNK d   1      13.664  34.571  71.033  0.00  0.00     0.007 A 
ATOM     18  C   UNK d   1      15.066  35.051  70.825  0.00  0.00     0.007 A 
ENDBRANCH  15  16
ENDBRANCH  13  15
ENDBRANCH   3   7
BRANCH   1  19
ATOM     19  S   UNK d   1      21.656  35.332  67.998  0.00  0.00     0.245 S 
ATOM     20  O   UNK d   1      21.081  33.923  68.197  0.00  0.00    -0.206 OA
ATOM     21  O   UNK d   1      20.563  36.072  67.266  0.00  0.00    -0.206 OA
BRANCH  19  22
ATOM     22  C   UNK d   1      23.063  35.124  67.005  0.00  0.00     0.096 A 
ATOM     23  C   UNK d   1      23.604  36.165  66.282  0.00  0.00     0.056 A 
ATOM     24  C   UNK d   1      24.689  35.995  65.444  0.00  0.00     0.025 A 
ATOM     25 Cl   UNK d   1      22.976  37.814  66.464  0.00  0.00    -0.083 Cl
ATOM     26  C   UNK d   1      25.259  34.753  65.318  0.00  0.00     0.002 A 
ATOM     27  C   UNK d   1      24.729  33.694  66.040  0.00  0.00     0.002 A 
ATOM     28  C   UNK d   1      23.655  33.868  66.866  0.00  0.00     0.026 A 
ENDBRANCH  19  22
ENDBRANCH   1  19
TORSDOF 5
ENDMDL
