MODEL 1
REMARK VINA RESULT:    -7.673      0.000      0.000
REMARK INTER + INTRA:         -11.910
REMARK INTER:                 -10.588
REMARK INTRA:                  -1.322
REMARK UNBOUND:                -1.322
REMARK  7 active torsions:
REMARK  status: ('A' for Active; 'I' for Inactive)
REMARK    1  A    between atoms: C_4  and  C_10 
REMARK    2  A    between atoms: C_5  and  O_8 
REMARK    3  A    between atoms: C_18  and  C_19 
REMARK    4  A    between atoms: C_19  and  N_20 
REMARK    5  A    between atoms: N_23  and  C_26 
REMARK    6  A    between atoms: C_26  and  C_27 
REMARK    7  A    between atoms: C_27  and  O_28 
ROOT
ATOM      1  C   UNK d   1      13.160  31.537  72.252  0.00  0.00     0.055 C 
ATOM      2  C   UNK d   1      13.943  32.552  71.863  0.00  0.00     0.128 A 
ATOM      3  O   UNK d   1      15.264  32.712  72.264  0.00  0.00    -0.305 OA
ATOM      4  C   UNK d   1      15.785  33.857  71.645  0.00  0.00     0.101 A 
ATOM      5  C   UNK d   1      14.872  34.479  70.850  0.00  0.00     0.051 A 
ATOM      6  C   UNK d   1      15.183  35.610  70.132  0.00  0.00     0.021 A 
ATOM      7  C   UNK d   1      16.463  36.148  70.208  0.00  0.00     0.041 A 
ATOM      8  C   UNK d   1      17.394  35.506  71.027  0.00  0.00     0.118 A 
ATOM      9  C   UNK d   1      17.082  34.392  71.736  0.00  0.00     0.039 A 
ATOM     10  O   UNK d   1      18.652  36.107  71.049  0.00  0.00    -0.191 OA
ATOM     11  C   UNK d   1      13.637  33.650  70.971  0.00  0.00     0.218 A 
ATOM     12  O   UNK d   1      12.550  33.861  70.417  0.00  0.00    -0.284 OA
ENDROOT
BRANCH   9  13
ATOM     13  C   UNK d   1      17.950  33.776  72.763  0.00  0.00     0.279 C 
BRANCH  13  14
ATOM     14  N   UNK d   1      19.039  33.093  72.241  0.00  0.00    -0.064 N 
ATOM     15  C   UNK d   1      18.624  31.944  71.376  0.00  0.00     0.254 C 
ATOM     16  C   UNK d   1      19.471  32.119  70.091  0.00  0.00     0.144 C 
ATOM     17  N   UNK d   1      20.540  33.031  70.351  0.00  0.00    -0.407 N 
ATOM     18  C   UNK d   1      21.272  32.794  71.532  0.00  0.00     0.144 C 
ATOM     19  C   UNK d   1      20.282  32.795  72.778  0.00  0.00     0.254 C 
ATOM     20  H   UNK d   1      19.276  33.822  71.388  0.00  0.00     0.280 HD
BRANCH  17  21
ATOM     21  C   UNK d   1      20.773  34.063  69.469  0.00  0.00     0.143 C 
BRANCH  21  22
ATOM     22  C   UNK d   1      21.882  35.036  69.715  0.00  0.00     0.183 C 
BRANCH  22  23
ATOM     23  O   UNK d   1      21.432  36.133  70.466  0.00  0.00    -0.399 OA
ATOM     24  H   UNK d   1      22.237  36.615  70.850  0.00  0.00     0.209 HD
ENDBRANCH  22  23
ENDBRANCH  21  22
ENDBRANCH  17  21
ENDBRANCH  13  14
ENDBRANCH   9  13
BRANCH   1  25
ATOM     25  C   UNK d   1      13.804  30.561  73.148  0.00  0.00     0.001 A 
ATOM     26  C   UNK d   1      14.832  29.818  72.687  0.00  0.00     0.033 A 
ATOM     27  C   UNK d   1      15.374  28.826  73.521  0.00  0.00     0.011 A 
ATOM     28 Br   UNK d   1      16.827  27.761  72.900  0.00  0.00    -0.051 Br
ATOM     29  C   UNK d   1      14.885  28.594  74.783  0.00  0.00     0.022 A 
ATOM     30  C   UNK d   1      13.829  29.370  75.219  0.00  0.00     0.039 A 
ATOM     31  C   UNK d   1      13.275  30.368  74.405  0.00  0.00     0.078 A 
BRANCH  31  32
ATOM     32  O   UNK d   1      12.214  31.148  74.840  0.00  0.00    -0.355 OA
ATOM     33  C   UNK d   1      11.123  30.717  75.577  0.00  0.00     0.210 C 
ENDBRANCH  31  32
ENDBRANCH   1  25
TORSDOF 7
ENDMDL
