MODEL 1
REMARK VINA RESULT:    -8.123      0.000      0.000
REMARK INTER + INTRA:          -8.355
REMARK INTER:                  -8.597
REMARK INTRA:                   0.242
REMARK UNBOUND:                 0.242
REMARK  1 active torsions:
REMARK  status: ('A' for Active; 'I' for Inactive)
REMARK    1  A    between atoms: C_9  and  C_21 
ROOT
ATOM      1 Cl   UNK d   1      20.257  35.541  70.775  0.00  0.00    -0.081 Cl
ATOM      2  C   UNK d   1      20.786  35.934  69.154  0.00  0.00     0.070 A 
ATOM      3  C   UNK d   1      21.937  35.301  68.662  0.00  0.00     0.107 A 
ATOM      4  C   UNK d   1      22.377  35.589  67.397  0.00  0.00    -0.007 A 
ATOM      5  C   UNK d   1      21.634  36.516  66.657  0.00  0.00     0.035 A 
ATOM      6  C   UNK d   1      20.505  37.132  67.151  0.00  0.00     0.036 A 
ATOM      7  C   UNK d   1      20.058  36.844  68.428  0.00  0.00     0.050 A 
ATOM      8 Cl   UNK d   1      19.588  38.294  66.201  0.00  0.00    -0.084 Cl
ATOM      9  C   UNK d   1      23.572  34.974  66.800  0.00  0.00     0.107 A 
ATOM     10  C   UNK d   1      24.206  34.031  67.737  0.00  0.00     0.075 A 
ATOM     11  C   UNK d   1      23.753  33.759  68.990  0.00  0.00     0.167 A 
ATOM     12  N   UNK d   1      24.379  32.875  69.819  0.00  0.00    -0.283 N 
ATOM     13  C   UNK d   1      25.472  32.269  69.361  0.00  0.00     0.332 A 
ATOM     14  O   UNK d   1      26.090  31.438  70.098  0.00  0.00    -0.246 OA
ATOM     15  N   UNK d   1      25.956  32.509  68.126  0.00  0.00    -0.270 N 
ATOM     16  C   UNK d   1      25.350  33.372  67.304  0.00  0.00     0.262 A 
ATOM     17  O   UNK d   1      25.800  33.596  66.151  0.00  0.00    -0.267 OA
ATOM     18  C   UNK d   1      27.155  31.812  67.682  0.00  0.00     0.164 C 
ATOM     19  C   UNK d   1      23.871  32.610  71.148  0.00  0.00     0.163 C 
ATOM     20  O   UNK d   1      22.627  34.393  69.442  0.00  0.00    -0.290 OA
ENDROOT
BRANCH   9  21
ATOM     21  C   UNK d   1      24.544  36.014  66.325  0.00  0.00     0.078 A 
ATOM     22  C   UNK d   1      25.155  36.887  67.192  0.00  0.00     0.197 A 
ATOM     23  N   UNK d   1      26.020  37.834  66.796  0.00  0.00    -0.281 N 
ATOM     24  O   UNK d   1      24.869  36.788  68.538  0.00  0.00    -0.171 OA
ATOM     25  C   UNK d   1      26.298  37.931  65.482  0.00  0.00     0.332 A 
ATOM     26  C   UNK d   1      26.653  38.739  67.737  0.00  0.00     0.163 C 
ATOM     27  O   UNK d   1      27.114  38.828  65.119  0.00  0.00    -0.246 OA
ATOM     28  N   UNK d   1      25.721  37.097  64.598  0.00  0.00    -0.270 N 
ATOM     29  C   UNK d   1      24.857  36.144  64.973  0.00  0.00     0.262 A 
ATOM     30  C   UNK d   1      26.051  37.242  63.199  0.00  0.00     0.164 C 
ATOM     31  O   UNK d   1      24.304  35.353  64.173  0.00  0.00    -0.267 OA
ENDBRANCH   9  21
TORSDOF 1
ENDMDL
