/Users/jonathanwahrer/Desktop/Msc/3_Semester/Drug_Design_Praktikum/waehrer_HTS_screening/HTS_experiment/out/docking_results/vina_output/4x21/2213_docked.pdbqt
 OpenBabel03212202583D

 31 34  0  0  0  0  0  0  0  0999 V2000
   20.2570   35.5410   70.7750 Cl  0  0  0  0  0  0  0  0  0  0  0  0
   20.7860   35.9340   69.1540 C   0  0  0  0  0  0  0  0  0  0  0  0
   21.9370   35.3010   68.6620 C   0  0  0  0  0  0  0  0  0  0  0  0
   22.3770   35.5890   67.3970 C   0  0  0  0  0  0  0  0  0  0  0  0
   21.6340   36.5160   66.6570 C   0  0  0  0  0  2  0  0  0  0  0  0
   20.5050   37.1320   67.1510 C   0  0  0  0  0  0  0  0  0  0  0  0
   20.0580   36.8440   68.4280 C   0  0  0  0  0  3  0  0  0  0  0  0
   19.5880   38.2940   66.2010 Cl  0  0  0  0  0  0  0  0  0  0  0  0
   23.5720   34.9740   66.8000 C   0  0  0  0  0  0  0  0  0  0  0  0
   24.2060   34.0310   67.7370 C   0  0  0  0  0  0  0  0  0  0  0  0
   23.7530   33.7590   68.9900 C   0  0  0  0  0  0  0  0  0  0  0  0
   24.3790   32.8750   69.8190 N   0  0  0  0  0  0  0  0  0  0  0  0
   25.4720   32.2690   69.3610 C   0  0  0  0  0  0  0  0  0  0  0  0
   26.0900   31.4380   70.0980 O   0  0  0  0  0  0  0  0  0  0  0  0
   25.9560   32.5090   68.1260 N   0  0  0  0  0  0  0  0  0  0  0  0
   25.3500   33.3720   67.3040 C   0  0  0  0  0  0  0  0  0  0  0  0
   25.8000   33.5960   66.1510 O   0  0  0  0  0  0  0  0  0  0  0  0
   27.1550   31.8120   67.6820 C   0  0  0  0  0  1  0  0  0  0  0  0
   23.8710   32.6100   71.1480 C   0  0  0  0  0  1  0  0  0  0  0  0
   22.6270   34.3930   69.4420 O   0  0  0  0  0  0  0  0  0  0  0  0
   24.5440   36.0140   66.3250 C   0  0  0  0  0  3  0  0  0  0  0  0
   25.1550   36.8870   67.1920 C   0  0  0  0  0  0  0  0  0  0  0  0
   26.0200   37.8340   66.7960 N   0  0  0  0  0  0  0  0  0  0  0  0
   24.8690   36.7880   68.5380 O   0  0  0  0  0  0  0  0  0  0  0  0
   26.2980   37.9310   65.4820 C   0  0  0  0  0  0  0  0  0  0  0  0
   26.6530   38.7390   67.7370 C   0  0  0  0  0  1  0  0  0  0  0  0
   27.1140   38.8280   65.1190 O   0  0  0  0  0  0  0  0  0  0  0  0
   25.7210   37.0970   64.5980 N   0  0  0  0  0  0  0  0  0  0  0  0
   24.8570   36.1440   64.9730 C   0  0  0  0  0  0  0  0  0  0  0  0
   26.0510   37.2420   63.1990 C   0  0  0  0  0  1  0  0  0  0  0  0
   24.3040   35.3530   64.1730 O   0  0  0  0  0  0  0  0  0  0  0  0
  2  1  1  0  0  0  0
  3  2  2  0  0  0  0
  3 20  1  0  0  0  0
  4  3  1  0  0  0  0
  5  6  1  0  0  0  0
  5  4  1  0  0  0  0
  6  7  2  0  0  0  0
  7  2  1  0  0  0  0
  8  6  1  0  0  0  0
  9  4  2  0  0  0  0
  9 10  1  0  0  0  0
 10 11  2  0  0  0  0
 11 20  1  0  0  0  0
 11 12  1  0  0  0  0
 12 19  1  0  0  0  0
 13 12  1  0  0  0  0
 13 14  2  0  0  0  0
 15 13  1  0  0  0  0
 16 10  1  0  0  0  0
 16 15  1  0  0  0  0
 17 16  2  0  0  0  0
 18 15  1  0  0  0  0
 21  9  1  0  0  0  0
 21 22  1  0  0  0  0
 22 24  2  0  0  0  0
 23 22  1  0  0  0  0
 23 26  1  0  0  0  0
 25 23  1  0  0  0  0
 27 25  2  0  0  0  0
 28 29  1  0  0  0  0
 28 25  1  0  0  0  0
 29 21  1  0  0  0  0
 30 28  1  0  0  0  0
 31 29  2  0  0  0  0
M  END
>  <Pose>
1

>  <Score>
-8.123

$$$$
