MODEL 1
REMARK VINA RESULT:    -8.782      0.000      0.000
REMARK INTER + INTRA:         -11.404
REMARK INTER:                 -10.835
REMARK INTRA:                  -0.568
REMARK UNBOUND:                -0.568
REMARK  4 active torsions:
REMARK  status: ('A' for Active; 'I' for Inactive)
REMARK    1  A    between atoms: C_13  and  C_27 
REMARK    2  A    between atoms: N_18  and  C_21 
REMARK    3  A    between atoms: C_21  and  C_22 
REMARK    4  A    between atoms: C_27  and  C_28 
REMARK       I    between atoms: C_28  and  N_30 
ROOT
ATOM      1 Cl   UNK d   1      13.266  30.111  74.739  0.00  0.00    -0.084 Cl
ATOM      2  C   UNK d   1      14.607  30.330  73.636  0.00  0.00     0.034 A 
ATOM      3  C   UNK d   1      14.921  31.549  73.099  0.00  0.00     0.036 A 
ATOM      4  C   UNK d   1      16.000  31.679  72.222  0.00  0.00     0.019 A 
ATOM      5  C   UNK d   1      16.721  30.561  71.924  0.00  0.00     0.044 A 
ATOM      6  C   UNK d   1      16.401  29.308  72.474  0.00  0.00     0.032 A 
ATOM      7  C   UNK d   1      15.346  29.181  73.331  0.00  0.00     0.026 A 
ATOM      8  N   UNK d   1      17.762  30.917  71.020  0.00  0.00    -0.324 N 
ATOM      9  C   UNK d   1      17.694  32.295  70.743  0.00  0.00     0.267 A 
ATOM     10  O   UNK d   1      18.494  32.904  69.965  0.00  0.00    -0.270 OA
ATOM     11  C   UNK d   1      16.565  32.836  71.506  0.00  0.00     0.279 A 
ATOM     12  N   UNK d   1      15.516  33.349  70.653  0.00  0.00     0.114 N 
ATOM     13  C   UNK d   1      15.376  34.758  70.842  0.00  0.00     0.245 C 
ATOM     14  C   UNK d   1      16.527  35.162  71.676  0.00  0.00     0.128 C 
ATOM     15  C   UNK d   1      16.973  33.948  72.443  0.00  0.00     0.147 C 
ATOM     16  C   UNK d   1      18.440  34.129  72.510  0.00  0.00     0.235 C 
ATOM     17  O   UNK d   1      19.258  33.594  73.299  0.00  0.00    -0.272 OA
ATOM     18  N   UNK d   1      18.863  35.060  71.491  0.00  0.00    -0.285 N 
ATOM     19  C   UNK d   1      17.695  35.432  70.768  0.00  0.00     0.233 C 
ATOM     20  O   UNK d   1      17.688  35.893  69.602  0.00  0.00    -0.272 OA
ATOM     21  H   UNK d   1      18.491  30.261  70.606  0.00  0.00     0.169 HD
ATOM     22  H   UNK d   1      14.587  32.909  70.838  0.00  0.00     0.318 HD
ENDROOT
BRANCH  13  23
ATOM     23  C   UNK d   1      14.033  35.143  71.402  0.00  0.00     0.139 C 
BRANCH  23  24
ATOM     24  C   UNK d   1      12.900  34.480  70.784  0.00  0.00     0.217 C 
ATOM     25  O   UNK d   1      12.486  33.390  71.234  0.00  0.00    -0.274 OA
ATOM     26  N   UNK d   1      12.245  35.046  69.668  0.00  0.00    -0.370 N 
ATOM     27  H   UNK d   1      11.206  35.176  69.694  0.00  0.00     0.159 HD
ATOM     28  H   UNK d   1      12.725  35.352  68.801  0.00  0.00     0.159 HD
ENDBRANCH  23  24
ENDBRANCH  13  23
BRANCH  18  29
ATOM     29  C   UNK d   1      20.220  35.511  71.265  0.00  0.00     0.166 C 
BRANCH  29  30
ATOM     30  C   UNK d   1      20.569  35.634  69.807  0.00  0.00     0.140 C 
ATOM     31  O   UNK d   1      21.024  36.923  69.544  0.00  0.00    -0.384 OA
ATOM     32  C   UNK d   1      22.392  36.910  69.692  0.00  0.00     0.168 C 
ATOM     33  C   UNK d   1      22.885  35.513  69.386  0.00  0.00     0.029 C 
ATOM     34  C   UNK d   1      21.615  34.686  69.337  0.00  0.00     0.035 C 
ENDBRANCH  29  30
ENDBRANCH  18  29
TORSDOF 4
ENDMDL
