MODEL 1
REMARK VINA RESULT:    -8.263      0.000      0.000
REMARK INTER + INTRA:         -11.459
REMARK INTER:                 -10.678
REMARK INTRA:                  -0.781
REMARK UNBOUND:                -0.781
REMARK  5 active torsions:
REMARK  status: ('A' for Active; 'I' for Inactive)
REMARK    1  A    between atoms: C_5  and  O_8 
REMARK    2  A    between atoms: O_8  and  C_9 
REMARK    3  A    between atoms: C_9  and  C_10 
REMARK       I    between atoms: C_10  and  N_12 
REMARK    4  A    between atoms: N_15  and  C_18 
REMARK    5  A    between atoms: C_20  and  N_24 
ROOT
ATOM      1  C   UNK d   1      22.007  35.110  67.996  0.00  0.00     0.177 C 
ATOM      2  O   UNK d   1      22.534  33.919  67.927  0.00  0.00    -0.175 OA
ATOM      3  N   UNK d   1      21.739  35.578  69.272  0.00  0.00    -0.358 N 
ATOM      4  C   UNK d   1      22.061  34.679  70.421  0.00  0.00     0.144 C 
ATOM      5  C   UNK d   1      20.914  34.821  71.390  0.00  0.00     0.144 C 
ATOM      6  N   UNK d   1      19.705  35.336  70.771  0.00  0.00    -0.362 N 
ATOM      7  C   UNK d   1      19.770  36.652  70.195  0.00  0.00     0.144 C 
ATOM      8  C   UNK d   1      21.190  36.843  69.685  0.00  0.00     0.144 C 
ENDROOT
BRANCH   6   9
ATOM      9  C   UNK d   1      18.532  34.552  70.747  0.00  0.00     0.146 A 
ATOM     10  N   UNK d   1      17.300  35.127  70.667  0.00  0.00    -0.045 NA
ATOM     11  C   UNK d   1      16.170  34.434  70.638  0.00  0.00     0.726 A 
ATOM     12  N   UNK d   1      16.267  33.080  70.693  0.00  0.00    -0.075 NA
ATOM     13  C   UNK d   1      17.425  32.450  70.772  0.00  0.00     0.140 A 
ATOM     14  C   UNK d   1      18.607  33.184  70.802  0.00  0.00     0.071 A 
BRANCH  11  15
ATOM     15  N   UNK d   1      14.882  35.016  70.555  0.00  0.00    -0.210 N 
ATOM     16  C   UNK d   1      13.701  34.163  70.485  0.00  0.00     0.167 C 
ATOM     17  C   UNK d   1      12.930  34.647  69.253  0.00  0.00     0.188 C 
ATOM     18  O   UNK d   1      12.575  35.960  69.407  0.00  0.00    -0.388 OA
ATOM     19  C   UNK d   1      13.628  36.839  69.497  0.00  0.00     0.188 C 
ATOM     20  C   UNK d   1      14.654  36.440  70.533  0.00  0.00     0.167 C 
ENDBRANCH  11  15
ENDBRANCH   6   9
BRANCH   1  21
ATOM     21  C   UNK d   1      21.793  35.744  66.680  0.00  0.00     0.262 C 
BRANCH  21  22
ATOM     22  O   UNK d   1      22.174  36.933  66.376  0.00  0.00    -0.343 OA
BRANCH  22  23
ATOM     23  C   UNK d   1      22.522  38.135  66.050  0.00  0.00     0.069 A 
ATOM     24  C   UNK d   1      23.798  38.494  65.564  0.00  0.00     0.038 A 
ATOM     25  C   UNK d   1      24.103  39.780  65.236  0.00  0.00     0.026 A 
ATOM     26  C   UNK d   1      23.195  40.806  65.358  0.00  0.00     0.034 A 
ATOM     27 Cl   UNK d   1      23.603  42.450  64.935  0.00  0.00    -0.084 Cl
ATOM     28  C   UNK d   1      21.945  40.477  65.831  0.00  0.00     0.026 A 
ATOM     29  C   UNK d   1      21.605  39.201  66.168  0.00  0.00     0.038 A 
ENDBRANCH  22  23
ENDBRANCH  21  22
ENDBRANCH   1  21
TORSDOF 5
ENDMDL
