/Users/jonathanwahrer/Desktop/Msc/3_Semester/Drug_Design_Praktikum/waehrer_HTS_screening/HTS_experiment/out/docking_results/vina_output/4x21/2225_docked.pdbqt
 OpenBabel03212202583D

 29 32  0  0  0  0  0  0  0  0999 V2000
   22.0070   35.1100   67.9960 C   0  0  0  0  0  0  0  0  0  0  0  0
   22.5340   33.9190   67.9270 O   0  0  0  0  0  0  0  0  0  0  0  0
   21.7390   35.5780   69.2720 N   0  0  0  0  0  0  0  0  0  0  0  0
   22.0610   34.6790   70.4210 C   0  0  0  0  0  2  0  0  0  0  0  0
   20.9140   34.8210   71.3900 C   0  0  0  0  0  2  0  0  0  0  0  0
   19.7050   35.3360   70.7710 N   0  0  0  0  0  0  0  0  0  0  0  0
   19.7700   36.6520   70.1950 C   0  0  0  0  0  2  0  0  0  0  0  0
   21.1900   36.8430   69.6850 C   0  0  0  0  0  2  0  0  0  0  0  0
   18.5320   34.5520   70.7470 C   0  0  0  0  0  0  0  0  0  0  0  0
   17.3000   35.1270   70.6670 N   0  0  0  0  0  0  0  0  0  0  0  0
   16.1700   34.4340   70.6380 C   0  0  0  0  0  0  0  0  0  0  0  0
   16.2670   33.0800   70.6930 N   0  0  0  0  0  0  0  0  0  0  0  0
   17.4250   32.4500   70.7720 C   0  0  0  0  0  3  0  0  0  0  0  0
   18.6070   33.1840   70.8020 C   0  0  0  0  0  3  0  0  0  0  0  0
   14.8820   35.0160   70.5550 N   0  0  0  0  0  0  0  0  0  0  0  0
   13.7010   34.1630   70.4850 C   0  0  0  0  0  2  0  0  0  0  0  0
   12.9300   34.6470   69.2530 C   0  0  0  0  0  2  0  0  0  0  0  0
   12.5750   35.9600   69.4070 O   0  0  0  0  0  0  0  0  0  0  0  0
   13.6280   36.8390   69.4970 C   0  0  0  0  0  2  0  0  0  0  0  0
   14.6540   36.4400   70.5330 C   0  0  0  0  0  2  0  0  0  0  0  0
   21.7930   35.7440   66.6800 C   0  0  0  0  0  2  0  0  0  0  0  0
   22.1740   36.9330   66.3760 O   0  0  0  0  0  0  0  0  0  0  0  0
   22.5220   38.1350   66.0500 C   0  0  0  0  0  0  0  0  0  0  0  0
   23.7980   38.4940   65.5640 C   0  0  0  0  0  3  0  0  0  0  0  0
   24.1030   39.7800   65.2360 C   0  0  0  0  0  3  0  0  0  0  0  0
   23.1950   40.8060   65.3580 C   0  0  0  0  0  0  0  0  0  0  0  0
   23.6030   42.4500   64.9350 Cl  0  0  0  0  0  0  0  0  0  0  0  0
   21.9450   40.4770   65.8310 C   0  0  0  0  0  3  0  0  0  0  0  0
   21.6050   39.2010   66.1680 C   0  0  0  0  0  3  0  0  0  0  0  0
  1  3  1  0  0  0  0
  2  1  2  0  0  0  0
  3  8  1  0  0  0  0
  3  4  1  0  0  0  0
  4  5  1  0  0  0  0
  6  5  1  0  0  0  0
  7  6  1  0  0  0  0
  8  7  1  0  0  0  0
  9  6  1  0  0  0  0
  9 14  2  0  0  0  0
 10  9  1  0  0  0  0
 11 10  2  0  0  0  0
 11 12  1  0  0  0  0
 12 13  2  0  0  0  0
 13 14  1  0  0  0  0
 15 11  1  0  0  0  0
 16 15  1  0  0  0  0
 17 18  1  0  0  0  0
 17 16  1  0  0  0  0
 18 19  1  0  0  0  0
 19 20  1  0  0  0  0
 20 15  1  0  0  0  0
 21  1  1  0  0  0  0
 22 21  1  0  0  0  0
 23 29  1  0  0  0  0
 23 22  1  0  0  0  0
 24 23  2  0  0  0  0
 25 26  2  0  0  0  0
 25 24  1  0  0  0  0
 26 28  1  0  0  0  0
 27 26  1  0  0  0  0
 28 29  2  0  0  0  0
M  END
>  <Pose>
1

>  <Score>
-8.263

$$$$
