MODEL 1
REMARK VINA RESULT:    -8.981      0.000      0.000
REMARK INTER + INTRA:         -10.639
REMARK INTER:                 -10.557
REMARK INTRA:                  -0.082
REMARK UNBOUND:                -0.082
REMARK  3 active torsions:
REMARK  status: ('A' for Active; 'I' for Inactive)
REMARK    1  A    between atoms: C_5  and  N_8 
REMARK    2  A    between atoms: C_16  and  N_17 
REMARK       I    between atoms: N_20  and  C_23 
REMARK    3  A    between atoms: C_23  and  C_25 
ROOT
ATOM      1  N   UNK d   1      21.357  37.928  66.892  0.00  0.00    -0.195 N 
ATOM      2  N   UNK d   1      20.117  38.176  66.506  0.00  0.00    -0.058 NA
ATOM      3  N   UNK d   1      19.237  37.763  67.397  0.00  0.00    -0.124 NA
ATOM      4  C   UNK d   1      19.886  37.210  68.436  0.00  0.00     0.174 A 
ATOM      5  C   UNK d   1      21.220  37.323  68.099  0.00  0.00     0.188 A 
ATOM      6  N   UNK d   1      22.132  36.842  68.973  0.00  0.00    -0.220 NA
ATOM      7  C   UNK d   1      21.713  36.280  70.122  0.00  0.00     0.237 A 
ATOM      8  N   UNK d   1      20.401  36.171  70.447  0.00  0.00    -0.222 NA
ATOM      9  C   UNK d   1      19.452  36.633  69.613  0.00  0.00     0.162 A 
ENDROOT
BRANCH   9  10
ATOM     10  N   UNK d   1      18.067  36.528  69.939  0.00  0.00    -0.361 N 
ATOM     11  C   UNK d   1      17.645  35.299  70.583  0.00  0.00     0.144 C 
ATOM     12  C   UNK d   1      16.370  35.518  71.393  0.00  0.00     0.144 C 
ATOM     13  N   UNK d   1      15.501  36.440  70.754  0.00  0.00    -0.360 N 
ATOM     14  C   UNK d   1      16.095  37.805  70.622  0.00  0.00     0.144 C 
ATOM     15  C   UNK d   1      14.230  36.180  70.269  0.00  0.00     0.157 C 
ATOM     16  C   UNK d   1      17.213  37.627  69.612  0.00  0.00     0.144 C 
ATOM     17  O   UNK d   1      13.638  37.226  69.719  0.00  0.00    -0.177 OA
BRANCH  15  18
ATOM     18  C   UNK d   1      13.407  34.980  70.240  0.00  0.00     0.063 A 
ATOM     19  C   UNK d   1      12.900  34.496  68.934  0.00  0.00     0.013 A 
ATOM     20  C   UNK d   1      13.796  33.644  69.803  0.00  0.00     0.013 A 
ENDBRANCH  15  18
ENDBRANCH   9  10
BRANCH   1  21
ATOM     21  C   UNK d   1      22.556  38.230  66.194  0.00  0.00     0.062 A 
ATOM     22  C   UNK d   1      23.544  37.314  65.917  0.00  0.00     0.033 A 
ATOM     23  C   UNK d   1      24.689  37.664  65.237  0.00  0.00     0.026 A 
ATOM     24  C   UNK d   1      24.868  38.957  64.814  0.00  0.00     0.034 A 
ATOM     25 Cl   UNK d   1      26.313  39.393  63.956  0.00  0.00    -0.084 Cl
ATOM     26  C   UNK d   1      23.906  39.890  65.073  0.00  0.00     0.026 A 
ATOM     27  C   UNK d   1      22.764  39.519  65.757  0.00  0.00     0.033 A 
ENDBRANCH   1  21
TORSDOF 3
ENDMDL
