/Users/jonathanwahrer/Desktop/Msc/3_Semester/Drug_Design_Praktikum/waehrer_HTS_screening/HTS_experiment/out/docking_results/vina_output/4x21/2242_docked.pdbqt
 OpenBabel03212202583D

 32 35  0  0  0  0  0  0  0  0999 V2000
   21.1500   36.3390   68.2300 N   0  0  0  0  0  0  0  0  0  0  0  0
   21.2530   36.4590   69.6180 C   0  0  0  0  0  0  0  0  0  0  0  0
   22.0900   37.1840   70.1740 O   0  0  0  0  0  0  0  0  0  0  0  0
   20.3970   35.6870   67.8420 H   0  0  0  0  0  0  0  0  0  0  0  0
   20.3330   35.7030   70.5120 C   0  0  0  0  0  0  0  0  0  0  0  0
   19.0630   35.7110   70.2480 N   0  0  0  0  0  0  0  0  0  0  0  0
   18.1350   35.0300   71.0330 N   0  0  0  0  0  0  0  0  0  0  0  0
   18.5900   34.3050   72.1530 C   0  0  0  0  0  0  0  0  0  0  0  0
   17.7160   33.6250   72.7910 O   0  0  0  0  0  0  0  0  0  0  0  0
   20.0010   34.3130   72.5900 C   0  0  0  0  0  2  0  0  0  0  0  0
   20.8130   34.9800   71.6330 N   0  0  0  0  0  0  0  0  0  0  0  0
   21.8590   34.9480   71.7520 H   0  0  0  0  0  0  0  0  0  0  0  0
   16.7240   35.0670   70.7110 C   0  0  0  0  0  0  0  0  0  0  0  0
   16.0100   36.2400   70.7410 C   0  0  0  0  0  3  0  0  0  0  0  0
   14.6480   36.2500   70.4210 C   0  0  0  0  0  3  0  0  0  0  0  0
   13.9940   35.0860   70.0720 C   0  0  0  0  0  0  0  0  0  0  0  0
   14.7230   33.9190   70.0480 C   0  0  0  0  0  3  0  0  0  0  0  0
   12.5440   35.0440   69.7180 C   0  0  0  0  0  1  0  0  0  0  0  0
   16.0500   33.9170   70.3600 C   0  0  0  0  0  3  0  0  0  0  0  0
   21.9600   37.0060   67.3030 C   0  0  0  0  0  0  0  0  0  0  0  0
   23.0250   36.2990   66.7380 C   0  0  0  0  0  0  0  0  0  0  0  0
   23.3080   34.6380   67.2140 Cl  0  0  0  0  0  0  0  0  0  0  0  0
   23.8620   36.8650   65.8190 C   0  0  0  0  0  3  0  0  0  0  0  0
   23.7030   38.1560   65.4000 C   0  0  0  0  0  0  0  0  0  0  0  0
   22.6700   38.8830   65.9290 C   0  0  0  0  0  0  0  0  0  0  0  0
   24.5600   38.7700   64.4310 N   0  0  0  0  0  0  0  0  0  0  0  0
   21.8120   38.2960   66.8740 C   0  0  0  0  0  3  0  0  0  0  0  0
   22.4380   40.2050   65.5570 O   0  0  0  0  0  0  0  0  0  0  0  0
   22.9960   40.7730   64.3640 C   0  0  0  0  0  2  0  0  0  0  0  0
   24.3020   40.1190   64.0530 C   0  0  0  0  0  0  0  0  0  0  0  0
   25.1740   40.7860   63.4500 O   0  0  0  0  0  0  0  0  0  0  0  0
   25.3520   38.2440   64.0130 H   0  0  0  0  0  0  0  0  0  0  0  0
  1  2  1  0  0  0  0
  2  3  2  0  0  0  0
  2  5  1  0  0  0  0
  4  1  1  0  0  0  0
  5 11  1  0  0  0  0
  6  5  2  0  0  0  0
  6  7  1  0  0  0  0
  7  8  1  0  0  0  0
  8 10  1  0  0  0  0
  8  9  2  0  0  0  0
 11 12  1  0  0  0  0
 11 10  1  0  0  0  0
 13 14  1  0  0  0  0
 13  7  1  0  0  0  0
 15 14  2  0  0  0  0
 16 15  1  0  0  0  0
 17 16  2  0  0  0  0
 17 19  1  0  0  0  0
 18 16  1  0  0  0  0
 19 13  2  0  0  0  0
 20  1  1  0  0  0  0
 21 22  1  0  0  0  0
 21 20  2  0  0  0  0
 23 21  1  0  0  0  0
 24 23  2  0  0  0  0
 24 25  1  0  0  0  0
 25 27  2  0  0  0  0
 26 24  1  0  0  0  0
 27 20  1  0  0  0  0
 28 25  1  0  0  0  0
 29 28  1  0  0  0  0
 30 29  1  0  0  0  0
 30 26  1  0  0  0  0
 31 30  2  0  0  0  0
 32 26  1  0  0  0  0
M  END
>  <Pose>
1

>  <Score>
-9.499

$$$$
