MODEL 1
REMARK VINA RESULT:    -9.499      0.000      0.000
REMARK INTER + INTRA:         -11.464
REMARK INTER:                 -11.165
REMARK INTRA:                  -0.300
REMARK UNBOUND:                -0.300
REMARK  3 active torsions:
REMARK  status: ('A' for Active; 'I' for Inactive)
REMARK    1  A    between atoms: C_7  and  N_8 
REMARK       I    between atoms: N_8  and  C_9 
REMARK    2  A    between atoms: C_9  and  C_11 
REMARK    3  A    between atoms: N_13  and  C_18 
ROOT
ATOM      1  N   UNK d   1      21.150  36.339  68.230  0.00  0.00    -0.319 N 
ATOM      2  C   UNK d   1      21.253  36.459  69.618  0.00  0.00     0.293 C 
ATOM      3  O   UNK d   1      22.090  37.184  70.174  0.00  0.00    -0.264 OA
ATOM      4  H   UNK d   1      20.397  35.687  67.842  0.00  0.00     0.169 HD
ENDROOT
BRANCH   2   5
ATOM      5  C   UNK d   1      20.333  35.703  70.512  0.00  0.00     0.213 C 
ATOM      6  N   UNK d   1      19.063  35.711  70.248  0.00  0.00    -0.141 NA
ATOM      7  N   UNK d   1      18.135  35.030  71.033  0.00  0.00    -0.198 N 
ATOM      8  C   UNK d   1      18.590  34.305  72.153  0.00  0.00     0.262 C 
ATOM      9  O   UNK d   1      17.716  33.625  72.791  0.00  0.00    -0.269 OA
ATOM     10  C   UNK d   1      20.001  34.313  72.590  0.00  0.00     0.226 C 
ATOM     11  N   UNK d   1      20.813  34.980  71.633  0.00  0.00    -0.360 N 
ATOM     12  H   UNK d   1      21.859  34.948  71.752  0.00  0.00     0.161 HD
BRANCH   7  13
ATOM     13  C   UNK d   1      16.724  35.067  70.711  0.00  0.00     0.062 A 
ATOM     14  C   UNK d   1      16.010  36.240  70.741  0.00  0.00     0.032 A 
ATOM     15  C   UNK d   1      14.648  36.250  70.421  0.00  0.00     0.009 A 
ATOM     16  C   UNK d   1      13.994  35.086  70.072  0.00  0.00    -0.062 A 
ATOM     17  C   UNK d   1      14.723  33.919  70.048  0.00  0.00     0.009 A 
ATOM     18  C   UNK d   1      12.544  35.044  69.718  0.00  0.00     0.048 C 
ATOM     19  C   UNK d   1      16.050  33.917  70.360  0.00  0.00     0.032 A 
ENDBRANCH   7  13
ENDBRANCH   2   5
BRANCH   1  20
ATOM     20  C   UNK d   1      21.960  37.006  67.303  0.00  0.00     0.059 A 
ATOM     21  C   UNK d   1      23.025  36.299  66.738  0.00  0.00     0.063 A 
ATOM     22 Cl   UNK d   1      23.308  34.638  67.214  0.00  0.00    -0.082 Cl
ATOM     23  C   UNK d   1      23.862  36.865  65.819  0.00  0.00     0.058 A 
ATOM     24  C   UNK d   1      23.703  38.156  65.400  0.00  0.00     0.070 A 
ATOM     25  C   UNK d   1      22.670  38.883  65.929  0.00  0.00     0.098 A 
ATOM     26  N   UNK d   1      24.560  38.770  64.431  0.00  0.00    -0.323 N 
ATOM     27  C   UNK d   1      21.812  38.296  66.874  0.00  0.00     0.070 A 
ATOM     28  O   UNK d   1      22.438  40.205  65.557  0.00  0.00    -0.340 OA
ATOM     29  C   UNK d   1      22.996  40.773  64.364  0.00  0.00     0.278 C 
ATOM     30  C   UNK d   1      24.302  40.119  64.053  0.00  0.00     0.246 C 
ATOM     31  O   UNK d   1      25.174  40.786  63.450  0.00  0.00    -0.271 OA
ATOM     32  H   UNK d   1      25.352  38.244  64.013  0.00  0.00     0.169 HD
ENDBRANCH   1  20
TORSDOF 3
ENDMDL
