MODEL 1
REMARK VINA RESULT:    -8.835      0.000      0.000
REMARK INTER + INTRA:         -10.793
REMARK INTER:                 -10.385
REMARK INTRA:                  -0.408
REMARK UNBOUND:                -0.408
REMARK  3 active torsions:
REMARK  status: ('A' for Active; 'I' for Inactive)
REMARK    1  A    between atoms: S_1  and  N_4 
REMARK    2  A    between atoms: S_1  and  C_18 
REMARK    3  A    between atoms: C_21  and  O_24 
ROOT
ATOM      1  N   UNK d   1      20.836  36.099  68.057  0.00  0.00    -0.301 N 
ATOM      2  C   UNK d   1      21.898  35.238  67.788  0.00  0.00     0.140 C 
ATOM      3  C   UNK d   1      22.712  35.636  66.579  0.00  0.00     0.067 C 
ATOM      4  C   UNK d   1      22.690  37.092  66.303  0.00  0.00     0.040 A 
ATOM      5  C   UNK d   1      21.510  37.753  66.543  0.00  0.00     0.067 A 
ATOM      6  N   UNK d   1      21.396  39.068  66.321  0.00  0.00    -0.231 NA
ATOM      7  C   UNK d   1      22.479  39.766  65.846  0.00  0.00     0.154 A 
ATOM      8  N   UNK d   1      23.629  39.100  65.617  0.00  0.00    -0.202 N 
ATOM      9  N   UNK d   1      24.515  39.992  65.166  0.00  0.00    -0.301 N 
ATOM     10  C   UNK d   1      23.962  41.197  65.103  0.00  0.00     0.112 A 
ATOM     11  C   UNK d   1      22.641  41.099  65.536  0.00  0.00     0.071 A 
ATOM     12  C   UNK d   1      23.799  37.787  65.821  0.00  0.00     0.276 A 
ATOM     13  O   UNK d   1      24.870  37.169  65.608  0.00  0.00    -0.266 OA
ATOM     14  C   UNK d   1      20.366  36.981  67.055  0.00  0.00     0.195 C 
ATOM     15  H   UNK d   1      25.504  39.787  64.897  0.00  0.00     0.186 HD
ENDROOT
BRANCH   1  16
ATOM     16  S   UNK d   1      20.426  36.425  69.641  0.00  0.00     0.261 S 
ATOM     17  O   UNK d   1      20.997  35.351  70.540  0.00  0.00    -0.200 OA
ATOM     18  O   UNK d   1      21.010  37.728  70.101  0.00  0.00    -0.200 OA
BRANCH  16  19
ATOM     19  C   UNK d   1      18.705  36.474  69.951  0.00  0.00     0.081 A 
ATOM     20  C   UNK d   1      18.039  35.482  70.650  0.00  0.00     0.052 A 
ATOM     21  C   UNK d   1      16.672  35.572  70.866  0.00  0.00     0.068 A 
ATOM     22  C   UNK d   1      15.924  36.631  70.406  0.00  0.00     0.089 A 
ATOM     23 Cl   UNK d   1      15.846  34.307  71.754  0.00  0.00    -0.081 Cl
ATOM     24  C   UNK d   1      16.586  37.619  69.710  0.00  0.00     0.040 A 
ATOM     25  C   UNK d   1      17.943  37.530  69.495  0.00  0.00     0.028 A 
BRANCH  22  26
ATOM     26  O   UNK d   1      14.541  36.703  70.637  0.00  0.00    -0.354 OA
ATOM     27  C   UNK d   1      13.651  36.779  69.539  0.00  0.00     0.210 C 
ENDBRANCH  22  26
ENDBRANCH  16  19
ENDBRANCH   1  16
TORSDOF 3
ENDMDL
