MODEL 1
REMARK VINA RESULT:    -6.951      0.000      0.000
REMARK INTER + INTRA:          -9.114
REMARK INTER:                  -8.577
REMARK INTRA:                  -0.538
REMARK UNBOUND:                -0.538
REMARK  4 active torsions:
REMARK  status: ('A' for Active; 'I' for Inactive)
REMARK    1  A    between atoms: C_3  and  O_20 
REMARK    2  A    between atoms: C_5  and  C_8 
REMARK       I    between atoms: C_8  and  N_10 
REMARK    3  A    between atoms: N_10  and  C_11 
REMARK    4  A    between atoms: C_11  and  C_12 
ROOT
ATOM      1  C   UNK d   1      18.875  36.828  69.999  0.00  0.00     0.251 C 
ATOM      2  O   UNK d   1      18.848  37.606  69.004  0.00  0.00    -0.268 OA
ATOM      3  N   UNK d   1      20.078  36.609  70.739  0.00  0.00    -0.355 N 
ATOM      4  H   UNK d   1      20.050  35.972  71.534  0.00  0.00     0.162 HD
ENDROOT
BRANCH   1   5
ATOM      5  C   UNK d   1      17.667  36.149  70.391  0.00  0.00     0.034 A 
ATOM      6  C   UNK d   1      16.455  36.824  70.209  0.00  0.00     0.055 A 
ATOM      7  C   UNK d   1      15.235  36.283  70.546  0.00  0.00     0.090 A 
ATOM      8  C   UNK d   1      15.203  35.016  71.088  0.00  0.00     0.067 A 
ATOM      9 Cl   UNK d   1      13.654  34.302  71.527  0.00  0.00    -0.081 Cl
ATOM     10  C   UNK d   1      16.394  34.329  71.276  0.00  0.00     0.028 A 
ATOM     11  C   UNK d   1      17.625  34.895  70.928  0.00  0.00     0.019 A 
BRANCH   7  12
ATOM     12  O   UNK d   1      14.049  36.978  70.354  0.00  0.00    -0.354 OA
ATOM     13  C   UNK d   1      13.279  36.813  69.179  0.00  0.00     0.210 C 
ENDBRANCH   7  12
ENDBRANCH   1   5
BRANCH   3  14
ATOM     14  C   UNK d   1      21.259  37.304  70.318  0.00  0.00     0.160 C 
BRANCH  14  15
ATOM     15  C   UNK d   1      22.245  36.542  69.526  0.00  0.00     0.268 C 
ATOM     16  N   UNK d   1      22.163  36.640  68.102  0.00  0.00     0.100 N 
ATOM     17  C   UNK d   1      23.570  36.639  67.633  0.00  0.00     0.303 C 
ATOM     18  C   UNK d   1      21.593  35.483  67.441  0.00  0.00     0.303 C 
ATOM     19  C   UNK d   1      24.214  35.483  68.408  0.00  0.00     0.302 C 
ATOM     20  N   UNK d   1      23.235  34.509  68.849  0.00  0.00     0.094 N 
ATOM     21  C   UNK d   1      22.328  35.061  69.858  0.00  0.00     0.309 C 
ATOM     22  C   UNK d   1      22.393  34.213  67.703  0.00  0.00     0.302 C 
ENDBRANCH  14  15
ENDBRANCH   3  14
TORSDOF 4
ENDMDL
