MODEL 1
REMARK VINA RESULT:    -8.190      0.000      0.000
REMARK INTER + INTRA:          -9.980
REMARK INTER:                  -9.865
REMARK INTRA:                  -0.114
REMARK UNBOUND:                -0.114
REMARK  4 active torsions:
REMARK  status: ('A' for Active; 'I' for Inactive)
REMARK    1  A    between atoms: C_5  and  C_8 
REMARK    2  A    between atoms: C_8  and  O_25 
REMARK    3  A    between atoms: N_9  and  C_17 
REMARK    4  A    between atoms: C_20  and  O_23 
ROOT
ATOM      1  C   UNK d   1      21.092  36.366  70.699  0.00  0.00     0.283 C 
ATOM      2  N   UNK d   1      20.079  36.930  69.956  0.00  0.00     0.042 N 
ATOM      3  C   UNK d   1      20.530  36.848  68.582  0.00  0.00     0.210 C 
ATOM      4  C   UNK d   1      19.996  36.536  67.446  0.00  0.00     0.030 C 
ATOM      5  C   UNK d   1      20.722  36.544  66.164  0.00  0.00     0.032 C 
ATOM      6  C   UNK d   1      22.159  36.920  66.238  0.00  0.00     0.023 C 
ATOM      7  C   UNK d   1      22.533  37.709  67.447  0.00  0.00     0.125 C 
ATOM      8  N   UNK d   1      21.894  37.223  68.651  0.00  0.00    -0.356 N 
ATOM      9  C   UNK d   1      22.340  37.005  70.025  0.00  0.00     0.200 C 
ATOM     10  H   UNK d   1      20.142  38.000  70.126  0.00  0.00     0.299 HD
ENDROOT
BRANCH   1  11
ATOM     11  C   UNK d   1      21.372  34.945  70.743  0.00  0.00     0.007 A 
ATOM     12  C   UNK d   1      20.763  34.168  71.709  0.00  0.00     0.014 A 
ATOM     13  C   UNK d   1      21.022  32.832  71.790  0.00  0.00     0.024 A 
ATOM     14  C   UNK d   1      21.897  32.196  70.919  0.00  0.00     0.034 A 
ATOM     15 Cl   UNK d   1      22.246  30.488  71.001  0.00  0.00    -0.084 Cl
ATOM     16  C   UNK d   1      22.500  32.967  69.963  0.00  0.00     0.024 A 
ATOM     17  C   UNK d   1      22.239  34.324  69.879  0.00  0.00     0.014 A 
ENDBRANCH   1  11
BRANCH   1  18
ATOM     18  O   UNK d   1      21.147  36.905  72.015  0.00  0.00    -0.359 OA
ATOM     19  H   UNK d   1      21.979  36.543  72.415  0.00  0.00     0.213 HD
ENDBRANCH   1  18
BRANCH   2  20
ATOM     20  C   UNK d   1      18.734  36.627  70.105  0.00  0.00     0.146 A 
ATOM     21  C   UNK d   1      18.203  35.466  70.555  0.00  0.00     0.041 A 
ATOM     22  C   UNK d   1      16.822  35.316  70.662  0.00  0.00     0.039 A 
ATOM     23  C   UNK d   1      15.935  36.324  70.323  0.00  0.00     0.068 A 
ATOM     24  C   UNK d   1      16.505  37.494  69.869  0.00  0.00     0.039 A 
ATOM     25  C   UNK d   1      17.858  37.673  69.752  0.00  0.00     0.041 A 
BRANCH  23  26
ATOM     26  O   UNK d   1      14.568  36.132  70.445  0.00  0.00    -0.356 OA
ATOM     27  C   UNK d   1      13.695  36.853  69.614  0.00  0.00     0.210 C 
ENDBRANCH  23  26
ENDBRANCH   2  20
TORSDOF 4
ENDMDL
