MODEL 1
REMARK VINA RESULT:    -8.510      0.000      0.000
REMARK INTER + INTRA:         -12.819
REMARK INTER:                 -11.495
REMARK INTRA:                  -1.324
REMARK UNBOUND:                -1.324
REMARK  6 active torsions:
REMARK  status: ('A' for Active; 'I' for Inactive)
REMARK    1  A    between atoms: N_8  and  C_12 
REMARK    2  A    between atoms: C_12  and  C_13 
REMARK    3  A    between atoms: C_13  and  C_14 
REMARK       I    between atoms: C_14  and  N_16 
REMARK    4  A    between atoms: N_19  and  C_22 
REMARK    5  A    between atoms: C_22  and  C_23 
REMARK       I    between atoms: C_23  and  N_25 
REMARK    6  A    between atoms: N_25  and  C_26 
ROOT
ATOM      1  C   UNK d   1      18.166  32.837  72.843  0.00  0.00     0.221 C 
ATOM      2  O   UNK d   1      17.771  33.784  73.625  0.00  0.00    -0.273 OA
ATOM      3  N   UNK d   1      19.393  33.048  72.211  0.00  0.00    -0.349 N 
ATOM      4  C   UNK d   1      19.929  32.208  71.124  0.00  0.00     0.145 C 
ATOM      5  C   UNK d   1      19.782  33.227  69.950  0.00  0.00     0.137 C 
ATOM      6  N   UNK d   1      20.713  34.318  70.199  0.00  0.00    -0.401 N 
ATOM      7  C   UNK d   1      21.126  34.610  71.460  0.00  0.00     0.137 C 
ATOM      8  C   UNK d   1      20.296  34.095  72.601  0.00  0.00     0.145 C 
ENDROOT
BRANCH   1   9
ATOM      9  C   UNK d   1      17.278  31.702  72.773  0.00  0.00     0.123 C 
BRANCH   9  10
ATOM     10  C   UNK d   1      15.866  31.795  73.131  0.00  0.00     0.144 C 
BRANCH  10  11
ATOM     11  N   UNK d   1      14.930  32.146  72.077  0.00  0.00    -0.290 N 
ATOM     12  C   UNK d   1      14.603  33.316  71.536  0.00  0.00     0.073 A 
ATOM     13  C   UNK d   1      13.595  33.149  70.616  0.00  0.00     0.109 A 
ATOM     14  C   UNK d   1      15.126  34.603  71.751  0.00  0.00     0.034 A 
ATOM     15  C   UNK d   1      13.066  34.221  69.886  0.00  0.00     0.063 A 
ATOM     16  O   UNK d   1      13.332  31.869  70.626  0.00  0.00    -0.259 OA
ATOM     17  C   UNK d   1      13.565  35.479  70.087  0.00  0.00     0.036 A 
ATOM     18 Cl   UNK d   1      12.940  36.836  69.183  0.00  0.00    -0.084 Cl
ATOM     19  C   UNK d   1      14.580  35.639  71.012  0.00  0.00     0.026 A 
ATOM     20  C   UNK d   1      14.097  31.230  71.476  0.00  0.00     0.372 A 
ATOM     21  O   UNK d   1      14.085  29.989  71.718  0.00  0.00    -0.237 OA
ENDBRANCH  10  11
ENDBRANCH   9  10
ENDBRANCH   1   9
BRANCH   6  22
ATOM     22  C   UNK d   1      20.691  35.156  69.096  0.00  0.00     0.219 C 
BRANCH  22  23
ATOM     23  C   UNK d   1      20.098  36.525  69.430  0.00  0.00     0.235 C 
ATOM     24  O   UNK d   1      20.984  37.457  69.533  0.00  0.00    -0.272 OA
ATOM     25  N   UNK d   1      18.791  36.690  69.599  0.00  0.00    -0.355 N 
ATOM     26  H   UNK d   1      18.929  38.040  69.655  0.00  0.00     0.162 HD
BRANCH  25  27
ATOM     27  C   UNK d   1      17.400  36.865  69.778  0.00  0.00     0.084 A 
ATOM     28  C   UNK d   1      16.740  37.920  68.811  0.00  0.00     0.027 A 
ATOM     29  C   UNK d   1      16.904  38.226  70.220  0.00  0.00     0.027 A 
ENDBRANCH  25  27
ENDBRANCH  22  23
ENDBRANCH   6  22
TORSDOF 6
ENDMDL
