/Users/jonathanwahrer/Desktop/Msc/3_Semester/Drug_Design_Praktikum/waehrer_HTS_screening/HTS_experiment/out/docking_results/vina_output/4x21/2272_docked.pdbqt
 OpenBabel03212202593D

 29 32  0  0  0  0  0  0  0  0999 V2000
   18.1660   32.8370   72.8430 C   0  0  0  0  0  0  0  0  0  0  0  0
   17.7710   33.7840   73.6250 O   0  0  0  0  0  0  0  0  0  0  0  0
   19.3930   33.0480   72.2110 N   0  0  0  0  0  0  0  0  0  0  0  0
   19.9290   32.2080   71.1240 C   0  0  0  0  0  2  0  0  0  0  0  0
   19.7820   33.2270   69.9500 C   0  0  0  0  0  2  0  0  0  0  0  0
   20.7130   34.3180   70.1990 N   0  0  0  0  0  0  0  0  0  0  0  0
   21.1260   34.6100   71.4600 C   0  0  0  0  0  2  0  0  0  0  0  0
   20.2960   34.0950   72.6010 C   0  0  0  0  0  2  0  0  0  0  0  0
   17.2780   31.7020   72.7730 C   0  0  0  0  0  2  0  0  0  0  0  0
   15.8660   31.7950   73.1310 C   0  0  0  0  0  2  0  0  0  0  0  0
   14.9300   32.1460   72.0770 N   0  0  0  0  0  0  0  0  0  0  0  0
   14.6030   33.3160   71.5360 C   0  0  0  0  0  0  0  0  0  0  0  0
   13.5950   33.1490   70.6160 C   0  0  0  0  0  0  0  0  0  0  0  0
   15.1260   34.6030   71.7510 C   0  0  0  0  0  3  0  0  0  0  0  0
   13.0660   34.2210   69.8860 C   0  0  0  0  0  3  0  0  0  0  0  0
   13.3320   31.8690   70.6260 O   0  0  0  0  0  0  0  0  0  0  0  0
   13.5650   35.4790   70.0870 C   0  0  0  0  0  0  0  0  0  0  0  0
   12.9400   36.8360   69.1830 Cl  0  0  0  0  0  0  0  0  0  0  0  0
   14.5800   35.6390   71.0120 C   0  0  0  0  0  3  0  0  0  0  0  0
   14.0970   31.2300   71.4760 C   0  0  0  0  0  0  0  0  0  0  0  0
   14.0850   29.9890   71.7180 O   0  0  0  0  0  0  0  0  0  0  0  0
   20.6910   35.1560   69.0960 C   0  0  0  0  0  2  0  0  0  0  0  0
   20.0980   36.5250   69.4300 C   0  0  0  0  0  0  0  0  0  0  0  0
   20.9840   37.4570   69.5330 O   0  0  0  0  0  0  0  0  0  0  0  0
   18.7910   36.6900   69.5990 N   0  0  0  0  0  0  0  0  0  0  0  0
   18.9290   38.0400   69.6550 H   0  0  0  0  0  0  0  0  0  0  0  0
   17.4000   36.8650   69.7780 C   0  0  0  0  0  3  0  0  0  0  0  0
   16.7400   37.9200   68.8110 C   0  0  0  0  0  2  0  0  0  0  0  0
   16.9040   38.2260   70.2200 C   0  0  0  0  0  2  0  0  0  0  0  0
  1  2  2  0  0  0  0
  3  8  1  0  0  0  0
  3  1  1  0  0  0  0
  4  3  1  0  0  0  0
  5  6  1  0  0  0  0
  5  4  1  0  0  0  0
  6  7  1  0  0  0  0
  7  8  1  0  0  0  0
  9  1  1  0  0  0  0
  9 10  1  0  0  0  0
 11 10  1  0  0  0  0
 12 14  1  0  0  0  0
 12 11  1  0  0  0  0
 13 16  1  0  0  0  0
 13 12  2  0  0  0  0
 15 17  2  0  0  0  0
 15 13  1  0  0  0  0
 16 20  1  0  0  0  0
 17 19  1  0  0  0  0
 18 17  1  0  0  0  0
 19 14  2  0  0  0  0
 20 21  2  0  0  0  0
 20 11  1  0  0  0  0
 22 23  1  0  0  0  0
 22  6  1  0  0  0  0
 23 24  2  0  0  0  0
 23 25  1  0  0  0  0
 25 26  1  0  0  0  0
 25 27  1  0  0  0  0
 27 29  1  0  0  0  0
 28 27  1  0  0  0  0
 28 29  1  0  0  0  0
M  END
>  <Pose>
1

>  <Score>
-8.510

$$$$
