MODEL 1
REMARK VINA RESULT:    -7.839      0.000      0.000
REMARK INTER + INTRA:          -9.057
REMARK INTER:                  -8.756
REMARK INTRA:                  -0.301
REMARK UNBOUND:                -0.301
REMARK  2 active torsions:
REMARK  status: ('A' for Active; 'I' for Inactive)
REMARK    1  A    between atoms: C_3  and  N_17 
REMARK    2  A    between atoms: N_17  and  C_18 
ROOT
ATOM      1 Cl   UNK d   1      13.629  36.787  69.893  0.00  0.00    -0.076 Cl
ATOM      2  C   UNK d   1      14.482  35.440  70.616  0.00  0.00     0.135 A 
ATOM      3  C   UNK d   1      15.818  35.559  70.934  0.00  0.00     0.126 A 
ATOM      4  C   UNK d   1      16.424  34.461  71.504  0.00  0.00     0.291 A 
ATOM      5  O   UNK d   1      17.648  34.462  71.836  0.00  0.00    -0.264 OA
ATOM      6  N   UNK d   1      15.715  33.343  71.724  0.00  0.00    -0.241 N 
ATOM      7  N   UNK d   1      14.438  33.186  71.437  0.00  0.00    -0.242 N 
ATOM      8  C   UNK d   1      13.707  31.956  71.693  0.00  0.00     0.134 C 
ATOM      9  C   UNK d   1      14.095  30.845  70.740  0.00  0.00     0.031 C 
ATOM     10  C   UNK d   1      15.373  30.168  71.204  0.00  0.00     0.005 C 
ATOM     11  C   UNK d   1      16.526  31.144  71.252  0.00  0.00     0.031 C 
ATOM     12  C   UNK d   1      16.383  32.183  72.333  0.00  0.00     0.134 C 
ATOM     13  C   UNK d   1      15.443  31.656  73.358  0.00  0.00    -0.002 C 
ATOM     14  C   UNK d   1      14.158  31.499  73.061  0.00  0.00    -0.002 C 
ATOM     15  C   UNK d   1      13.814  34.261  70.870  0.00  0.00     0.287 A 
ATOM     16  O   UNK d   1      12.576  34.138  70.579  0.00  0.00    -0.265 OA
ENDROOT
BRANCH   3  17
ATOM     17  N   UNK d   1      16.572  36.744  70.697  0.00  0.00    -0.380 N 
ATOM     18  H   UNK d   1      16.436  37.500  71.434  0.00  0.00     0.160 HD
BRANCH  17  19
ATOM     19  C   UNK d   1      17.452  36.941  69.577  0.00  0.00     0.073 C 
ATOM     20  C   UNK d   1      17.031  38.128  68.727  0.00  0.00     0.031 C 
ATOM     21  C   UNK d   1      18.887  37.121  69.940  0.00  0.00     0.031 C 
ENDBRANCH  17  19
ENDBRANCH   3  17
TORSDOF 2
ENDMDL
