/Users/jonathanwahrer/Desktop/Msc/3_Semester/Drug_Design_Praktikum/waehrer_HTS_screening/HTS_experiment/out/docking_results/vina_output/4x21/2275_docked.pdbqt
 OpenBabel03212202593D

 21 23  0  0  1  0  0  0  0  0999 V2000
   13.6290   36.7870   69.8930 Cl  0  0  0  0  0  0  0  0  0  0  0  0
   14.4820   35.4400   70.6160 C   0  0  0  0  0  0  0  0  0  0  0  0
   15.8180   35.5590   70.9340 C   0  0  0  0  0  0  0  0  0  0  0  0
   16.4240   34.4610   71.5040 C   0  0  0  0  0  0  0  0  0  0  0  0
   17.6480   34.4620   71.8360 O   0  0  0  0  0  0  0  0  0  0  0  0
   15.7150   33.3430   71.7240 N   0  0  0  0  0  0  0  0  0  0  0  0
   14.4380   33.1860   71.4370 N   0  0  0  0  0  0  0  0  0  0  0  0
   13.7070   31.9560   71.6930 C   0  0  1  0  0  3  0  0  0  0  0  0
   14.0950   30.8450   70.7400 C   0  0  0  0  0  2  0  0  0  0  0  0
   15.3730   30.1680   71.2040 C   0  0  0  0  0  2  0  0  0  0  0  0
   16.5260   31.1440   71.2520 C   0  0  0  0  0  2  0  0  0  0  0  0
   16.3830   32.1830   72.3330 C   0  0  2  0  0  3  0  0  0  0  0  0
   15.4430   31.6560   73.3580 C   0  0  0  0  0  3  0  0  0  0  0  0
   14.1580   31.4990   73.0610 C   0  0  0  0  0  3  0  0  0  0  0  0
   13.8140   34.2610   70.8700 C   0  0  0  0  0  0  0  0  0  0  0  0
   12.5760   34.1380   70.5790 O   0  0  0  0  0  0  0  0  0  0  0  0
   16.5720   36.7440   70.6970 N   0  0  0  0  0  0  0  0  0  0  0  0
   16.4360   37.5000   71.4340 H   0  0  0  0  0  0  0  0  0  0  0  0
   17.4520   36.9410   69.5770 C   0  0  0  0  0  3  0  0  0  0  0  0
   17.0310   38.1280   68.7270 C   0  0  0  0  0  1  0  0  0  0  0  0
   18.8870   37.1210   69.9400 C   0  0  0  0  0  1  0  0  0  0  0  0
  1  2  1  0  0  0  0
  2 15  1  0  0  0  0
  2  3  2  0  0  0  0
  3  4  1  0  0  0  0
  4  6  1  0  0  0  0
  4  5  2  0  0  0  0
  6 12  1  0  0  0  0
  7  8  1  0  0  0  0
  7  6  1  0  0  0  0
  8  9  1  6  0  0  0
  8 14  1  0  0  0  0
  9 10  1  0  0  0  0
 10 11  1  0  0  0  0
 12 11  1  6  0  0  0
 12 13  1  0  0  0  0
 14 13  2  0  0  0  0
 15  7  1  0  0  0  0
 16 15  2  0  0  0  0
 17  3  1  0  0  0  0
 17 18  1  0  0  0  0
 19 21  1  0  0  0  0
 19 17  1  0  0  0  0
 20 19  1  0  0  0  0
M  END
>  <Pose>
1

>  <Score>
-7.839

$$$$
