MODEL 1
REMARK VINA RESULT:    -7.430      0.000      0.000
REMARK INTER + INTRA:          -8.609
REMARK INTER:                  -8.298
REMARK INTRA:                  -0.310
REMARK UNBOUND:                -0.310
REMARK  2 active torsions:
REMARK  status: ('A' for Active; 'I' for Inactive)
REMARK    1  A    between atoms: C_3  and  N_17 
REMARK    2  A    between atoms: N_17  and  C_18 
ROOT
ATOM      1 Cl   UNK d   1      13.683  36.234  69.691  0.00  0.00    -0.076 Cl
ATOM      2  C   UNK d   1      14.615  34.993  70.505  0.00  0.00     0.135 A 
ATOM      3  C   UNK d   1      15.903  35.299  70.889  0.00  0.00     0.126 A 
ATOM      4  C   UNK d   1      16.591  34.259  71.529  0.00  0.00     0.291 A 
ATOM      5  O   UNK d   1      17.760  34.481  71.897  0.00  0.00    -0.264 OA
ATOM      6  N   UNK d   1      16.014  33.070  71.738  0.00  0.00    -0.241 N 
ATOM      7  N   UNK d   1      14.776  32.783  71.367  0.00  0.00    -0.241 N 
ATOM      8  C   UNK d   1      14.300  31.442  71.677  0.00  0.00     0.139 C 
ATOM      9  C   UNK d   1      15.274  30.478  71.026  0.00  0.00     0.021 A 
ATOM     10  C   UNK d   1      16.657  30.811  71.389  0.00  0.00     0.021 A 
ATOM     11  C   UNK d   1      16.715  31.966  72.398  0.00  0.00     0.139 C 
ATOM     12  C   UNK d   1      15.800  31.570  73.523  0.00  0.00    -0.001 C 
ATOM     13  C   UNK d   1      14.558  31.300  73.159  0.00  0.00    -0.001 C 
ATOM     14  C   UNK d   1      16.015  29.497  71.856  0.00  0.00     0.015 A 
ATOM     15  C   UNK d   1      14.077  33.733  70.754  0.00  0.00     0.287 A 
ATOM     16  O   UNK d   1      12.900  33.471  70.397  0.00  0.00    -0.265 OA
ENDROOT
BRANCH   3  17
ATOM     17  N   UNK d   1      16.529  36.561  70.677  0.00  0.00    -0.380 N 
ATOM     18  H   UNK d   1      16.361  37.270  71.422  0.00  0.00     0.160 HD
BRANCH  17  19
ATOM     19  C   UNK d   1      17.332  36.904  69.561  0.00  0.00     0.073 C 
ATOM     20  C   UNK d   1      16.852  38.103  68.784  0.00  0.00     0.031 C 
ATOM     21  C   UNK d   1      18.783  37.181  69.929  0.00  0.00     0.031 C 
ENDBRANCH  17  19
ENDBRANCH   3  17
TORSDOF 2
ENDMDL
