/Users/jonathanwahrer/Desktop/Msc/3_Semester/Drug_Design_Praktikum/waehrer_HTS_screening/HTS_experiment/out/docking_results/vina_output/4x21/2281_docked.pdbqt
 OpenBabel03212203003D

 34 37  0  0  1  0  0  0  0  0999 V2000
   20.6410   34.3320   70.5470 N   0  0  0  0  0  0  0  0  0  0  0  0
   21.1310   35.5550   71.0260 C   0  0  0  0  0  2  0  0  0  0  0  0
   21.7120   36.3330   69.7880 C   0  0  0  0  0  2  0  0  0  0  0  0
   21.4250   35.8350   68.5370 N   0  0  0  0  0  0  0  0  0  0  0  0
   21.1650   34.4300   68.3770 C   0  0  0  0  0  2  0  0  0  0  0  0
   21.6600   33.6520   69.6400 C   0  0  0  0  0  2  0  0  0  0  0  0
   19.4080   33.6990   70.5540 C   0  0  2  0  0  3  0  0  0  0  0  0
   18.2170   34.2670   70.6910 C   0  0  1  0  0  3  0  0  0  0  0  0
   18.1050   36.0440   70.3690 Cl  0  0  0  0  0  0  0  0  0  0  0  0
   17.0590   33.5760   71.0500 C   0  0  0  0  0  0  0  0  0  0  0  0
   17.1320   32.2900   71.2560 N   0  0  0  0  0  0  0  0  0  0  0  0
   15.9860   34.2590   71.1740 O   0  0  0  0  0  0  0  0  0  0  0  0
   18.3300   31.6660   71.1080 N   0  0  0  0  0  0  0  0  0  0  0  0
   19.4290   32.2340   70.7810 C   0  0  0  0  0  3  0  0  0  0  0  0
   16.0650   31.5220   71.8950 C   0  0  0  0  0  0  0  0  0  0  0  0
   15.9570   31.3930   73.2430 C   0  0  0  0  0  3  0  0  0  0  0  0
   14.8740   30.7660   73.8190 C   0  0  0  0  0  3  0  0  0  0  0  0
   13.8510   30.2440   73.0300 C   0  0  0  0  0  3  0  0  0  0  0  0
   13.9930   30.3830   71.6490 C   0  0  0  0  0  3  0  0  0  0  0  0
   15.0550   30.9970   71.1090 C   0  0  0  0  0  3  0  0  0  0  0  0
   22.4810   36.0770   67.4970 C   0  0  0  0  0  2  0  0  0  0  0  0
   22.3490   37.4260   66.9680 C   0  0  0  0  0  0  0  0  0  0  0  0
   21.7780   38.3440   67.2520 O   0  0  0  0  0  0  0  0  0  0  0  0
   23.3280   37.6020   65.5790 N   0  0  0  0  0  0  0  0  0  0  0  0
   23.2320   39.1040   65.5550 C   0  0  0  0  0  0  0  0  0  0  0  0
   23.3730   36.8300   65.5960 H   0  0  0  0  0  0  0  0  0  0  0  0
   22.2880   39.7510   65.9170 O   0  0  0  0  0  0  0  0  0  0  0  0
   24.4580   39.6730   65.0430 N   0  0  0  0  0  0  0  0  0  0  0  0
   25.1940   38.9580   64.7270 H   0  0  0  0  0  0  0  0  0  0  0  0
   24.7770   41.0430   64.8930 C   0  0  0  0  0  3  0  0  0  0  0  0
   24.8550   41.9100   66.0830 C   0  0  0  0  0  2  0  0  0  0  0  0
   26.3100   41.9000   66.5630 C   0  0  0  0  0  2  0  0  0  0  0  0
   27.0500   41.7830   65.2510 C   0  0  0  0  0  2  0  0  0  0  0  0
   26.2030   41.0540   64.3040 C   0  0  0  0  0  2  0  0  0  0  0  0
  1  2  1  0  0  0  0
  3  2  1  0  0  0  0
  4  3  1  0  0  0  0
  5  4  1  0  0  0  0
  5  6  1  0  0  0  0
  6  1  1  0  0  0  0
  7  1  1  1  0  0  0
  7  8  1  0  0  0  0
  7 14  1  0  0  0  0
  8  9  1  6  0  0  0
  8 10  1  0  0  0  0
 10 12  2  0  0  0  0
 10 11  1  0  0  0  0
 11 15  1  0  0  0  0
 13 11  1  0  0  0  0
 14 13  2  0  0  0  0
 15 16  1  0  0  0  0
 16 17  2  0  0  0  0
 18 17  1  0  0  0  0
 19 18  2  0  0  0  0
 20 19  1  0  0  0  0
 20 15  2  0  0  0  0
 21  4  1  0  0  0  0
 22 23  2  0  0  0  0
 22 21  1  0  0  0  0
 24 26  1  0  0  0  0
 24 22  1  0  0  0  0
 25 24  1  0  0  0  0
 25 27  2  0  0  0  0
 28 25  1  0  0  0  0
 29 28  1  0  0  0  0
 30 28  1  0  0  0  0
 30 31  1  0  0  0  0
 31 32  1  0  0  0  0
 33 32  1  0  0  0  0
 34 30  1  0  0  0  0
 34 33  1  0  0  0  0
M  END
>  <Pose>
1

>  <Score>
-8.714

$$$$
