/Users/jonathanwahrer/Desktop/Msc/3_Semester/Drug_Design_Praktikum/waehrer_HTS_screening/HTS_experiment/out/docking_results/vina_output/4x21/2282_docked.pdbqt
 OpenBabel03212203003D

 31 34  0  0  1  0  0  0  0  0999 V2000
   20.0750   35.2610   70.6780 N   0  0  0  0  0  0  0  0  0  0  0  0
   20.2860   34.7290   72.0030 C   0  0  0  0  0  2  0  0  0  0  0  0
   19.1170   33.8860   72.4080 C   0  0  0  0  0  2  0  0  0  0  0  0
   18.3120   33.6760   71.2300 N   0  0  0  0  0  0  0  0  0  0  0  0
   17.6890   34.9000   70.8760 C   0  0  0  0  0  2  0  0  0  0  0  0
   18.7900   35.8240   70.3470 C   0  0  0  0  0  2  0  0  0  0  0  0
   21.0860   35.2560   69.6820 C   0  0  0  0  0  0  0  0  0  0  0  0
   22.0130   36.2880   69.5690 C   0  0  0  0  0  0  0  0  0  0  0  0
   21.8780   37.6110   70.7080 Cl  0  0  0  0  0  0  0  0  0  0  0  0
   22.9910   36.2550   68.5940 C   0  0  0  0  0  0  0  0  0  0  0  0
   23.0870   35.2340   67.7220 N   0  0  0  0  0  0  0  0  0  0  0  0
   23.8290   37.1950   68.4960 O   0  0  0  0  0  0  0  0  0  0  0  0
   22.1980   34.2640   67.8460 N   0  0  0  0  0  0  0  0  0  0  0  0
   21.2210   34.2320   68.7700 C   0  0  0  0  0  3  0  0  0  0  0  0
   24.1040   35.1990   66.7120 C   0  0  0  0  0  0  0  0  0  0  0  0
   25.2950   34.5530   66.9540 C   0  0  0  0  0  3  0  0  0  0  0  0
   26.2950   34.5120   65.9760 C   0  0  0  0  0  3  0  0  0  0  0  0
   26.1200   35.1110   64.7500 C   0  0  0  0  0  3  0  0  0  0  0  0
   24.9310   35.7590   64.4990 C   0  0  0  0  0  3  0  0  0  0  0  0
   23.9450   35.7940   65.4790 C   0  0  0  0  0  3  0  0  0  0  0  0
   17.5480   32.4930   71.1960 C   0  0  0  0  0  2  0  0  0  0  0  0
   16.1660   32.6400   71.6650 C   0  0  0  0  0  0  0  0  0  0  0  0
   15.9890   32.5400   72.9260 O   0  0  0  0  0  0  0  0  0  0  0  0
   15.0280   32.8820   70.8570 N   0  0  0  0  0  0  0  0  0  0  0  0
   15.1780   32.9730   69.8320 H   0  0  0  0  0  0  0  0  0  0  0  0
   13.6870   33.0200   71.3650 C   0  0  0  0  0  2  0  0  0  0  0  0
   13.1500   34.3690   71.0010 C   0  0  1  0  0  3  0  0  0  0  0  0
   14.0220   35.3360   71.4260 O   0  0  0  0  0  0  0  0  0  0  0  0
   14.4320   36.1200   70.3820 C   0  0  0  0  0  2  0  0  0  0  0  0
   13.2700   36.0480   69.4140 C   0  0  0  0  0  2  0  0  0  0  0  0
   13.0100   34.5340   69.4940 C   0  0  0  0  0  2  0  0  0  0  0  0
  1  2  1  0  0  0  0
  2  3  1  0  0  0  0
  4  3  1  0  0  0  0
  5  4  1  0  0  0  0
  6  1  1  0  0  0  0
  6  5  1  0  0  0  0
  7  1  1  0  0  0  0
  8  7  2  0  0  0  0
  8  9  1  0  0  0  0
 10  8  1  0  0  0  0
 11 13  1  0  0  0  0
 11 10  1  0  0  0  0
 12 10  2  0  0  0  0
 13 14  2  0  0  0  0
 14  7  1  0  0  0  0
 15 16  1  0  0  0  0
 15 11  1  0  0  0  0
 17 16  2  0  0  0  0
 18 17  1  0  0  0  0
 19 18  2  0  0  0  0
 19 20  1  0  0  0  0
 20 15  2  0  0  0  0
 21  4  1  0  0  0  0
 21 22  1  0  0  0  0
 22 23  2  0  0  0  0
 24 26  1  0  0  0  0
 24 22  1  0  0  0  0
 25 24  1  0  0  0  0
 27 26  1  6  0  0  0
 27 28  1  0  0  0  0
 29 28  1  0  0  0  0
 30 31  1  0  0  0  0
 30 29  1  0  0  0  0
 31 27  1  0  0  0  0
M  END
>  <Pose>
1

>  <Score>
-8.391

$$$$
