MODEL 1
REMARK VINA RESULT:    -8.391      0.000      0.000
REMARK INTER + INTRA:         -12.009
REMARK INTER:                 -11.335
REMARK INTRA:                  -0.675
REMARK UNBOUND:                -0.675
REMARK  6 active torsions:
REMARK  status: ('A' for Active; 'I' for Inactive)
REMARK    1  A    between atoms: C_3  and  N_15 
REMARK    2  A    between atoms: N_6  and  C_9 
REMARK    3  A    between atoms: N_18  and  C_21 
REMARK    4  A    between atoms: C_21  and  C_22 
REMARK       I    between atoms: C_22  and  N_24 
REMARK    5  A    between atoms: N_24  and  C_25 
REMARK    6  A    between atoms: C_25  and  C_26 
ROOT
ATOM      1  N   UNK d   1      20.075  35.261  70.678  0.00  0.00    -0.375 N 
ATOM      2  C   UNK d   1      20.286  34.729  72.003  0.00  0.00     0.153 C 
ATOM      3  C   UNK d   1      19.117  33.886  72.408  0.00  0.00     0.292 C 
ATOM      4  N   UNK d   1      18.312  33.676  71.230  0.00  0.00     0.100 NA
ATOM      5  C   UNK d   1      17.689  34.900  70.876  0.00  0.00     0.292 C 
ATOM      6  C   UNK d   1      18.790  35.824  70.347  0.00  0.00     0.153 C 
ENDROOT
BRANCH   1   7
ATOM      7  C   UNK d   1      21.086  35.256  69.682  0.00  0.00     0.077 A 
ATOM      8  C   UNK d   1      22.013  36.288  69.569  0.00  0.00     0.131 A 
ATOM      9 Cl   UNK d   1      21.878  37.611  70.708  0.00  0.00    -0.076 Cl
ATOM     10  C   UNK d   1      22.991  36.255  68.594  0.00  0.00     0.292 A 
ATOM     11  N   UNK d   1      23.087  35.234  67.722  0.00  0.00    -0.197 N 
ATOM     12  O   UNK d   1      23.829  37.195  68.496  0.00  0.00    -0.264 OA
ATOM     13  N   UNK d   1      22.198  34.264  67.846  0.00  0.00    -0.174 NA
ATOM     14  C   UNK d   1      21.221  34.232  68.770  0.00  0.00     0.170 A 
BRANCH  11  15
ATOM     15  C   UNK d   1      24.104  35.199  66.712  0.00  0.00     0.062 A 
ATOM     16  C   UNK d   1      25.295  34.553  66.954  0.00  0.00     0.032 A 
ATOM     17  C   UNK d   1      26.295  34.512  65.976  0.00  0.00     0.002 A 
ATOM     18  C   UNK d   1      26.120  35.111  64.750  0.00  0.00     0.000 A 
ATOM     19  C   UNK d   1      24.931  35.759  64.499  0.00  0.00     0.002 A 
ATOM     20  C   UNK d   1      23.945  35.794  65.479  0.00  0.00     0.032 A 
ENDBRANCH  11  15
ENDBRANCH   1   7
BRANCH   4  21
ATOM     21  C   UNK d   1      17.548  32.493  71.196  0.00  0.00     0.374 C 
BRANCH  21  22
ATOM     22  C   UNK d   1      16.166  32.640  71.665  0.00  0.00     0.246 C 
ATOM     23  O   UNK d   1      15.989  32.540  72.926  0.00  0.00    -0.272 OA
ATOM     24  N   UNK d   1      15.028  32.882  70.857  0.00  0.00    -0.357 N 
ATOM     25  H   UNK d   1      15.178  32.973  69.832  0.00  0.00     0.162 HD
BRANCH  24  26
ATOM     26  C   UNK d   1      13.687  33.020  71.365  0.00  0.00     0.154 C 
BRANCH  26  27
ATOM     27  C   UNK d   1      13.150  34.369  71.001  0.00  0.00     0.139 C 
ATOM     28  O   UNK d   1      14.022  35.336  71.426  0.00  0.00    -0.384 OA
ATOM     29  C   UNK d   1      14.432  36.120  70.382  0.00  0.00     0.168 C 
ATOM     30  C   UNK d   1      13.270  36.048  69.414  0.00  0.00     0.029 C 
ATOM     31  C   UNK d   1      13.010  34.534  69.494  0.00  0.00     0.035 C 
ENDBRANCH  26  27
ENDBRANCH  24  26
ENDBRANCH  21  22
ENDBRANCH   4  21
TORSDOF 6
ENDMDL
