/Users/jonathanwahrer/Desktop/Msc/3_Semester/Drug_Design_Praktikum/waehrer_HTS_screening/HTS_experiment/out/docking_results/vina_output/4x21/2285_docked.pdbqt
 OpenBabel03212203013D

 32 35  0  0  0  0  0  0  0  0999 V2000
   21.7510   36.6210   69.1660 N   0  0  0  0  0  0  0  0  0  0  0  0
   20.8200   37.2160   70.0770 C   0  0  0  0  0  2  0  0  0  0  0  0
   20.8350   36.5940   71.4850 C   0  0  0  0  0  2  0  0  0  0  0  0
   20.6070   35.1940   71.3130 N   0  0  0  0  0  0  0  0  0  0  0  0
   21.7580   34.6370   70.6580 C   0  0  0  0  0  2  0  0  0  0  0  0
   21.6440   35.1210   69.2380 C   0  0  0  0  0  2  0  0  0  0  0  0
   21.1090   36.9590   67.5410 S   0  0  0  0  0  0  0  0  0  0  0  0
   20.7560   35.6210   66.9190 O   0  0  0  0  0  0  0  0  0  0  0  0
   19.8820   37.7870   67.6820 O   0  0  0  0  0  0  0  0  0  0  0  0
   22.2640   37.7500   66.5420 C   0  0  0  0  0  0  0  0  0  0  0  0
   21.9590   39.0780   66.2160 C   0  0  0  0  0  3  0  0  0  0  0  0
   22.8190   39.9100   65.4960 C   0  0  0  0  0  0  0  0  0  0  0  0
   24.0420   39.3900   65.0840 C   0  0  0  0  0  0  0  0  0  0  0  0
   22.4800   41.2170   65.1880 O   0  0  0  0  0  0  0  0  0  0  0  0
   24.3260   38.0760   65.4080 C   0  0  0  0  0  3  0  0  0  0  0  0
   24.8460   40.2690   64.3820 O   0  0  0  0  0  0  0  0  0  0  0  0
   23.4640   37.2580   66.1280 C   0  0  0  0  0  3  0  0  0  0  0  0
   24.8650   41.6530   64.8250 C   0  0  0  0  0  2  0  0  0  0  0  0
   23.5100   42.1750   65.1710 C   0  0  0  0  0  2  0  0  0  0  0  0
   19.8690   34.5040   72.2590 C   0  0  0  0  0  2  0  0  0  0  0  0
   18.5400   34.0270   71.8680 C   0  0  0  0  0  0  0  0  0  0  0  0
   18.5900   32.9540   71.1200 O   0  0  0  0  0  0  0  0  0  0  0  0
   17.2840   34.4840   72.1430 N   0  0  0  0  0  0  0  0  0  0  0  0
   17.0710   35.3730   72.7070 H   0  0  0  0  0  0  0  0  0  0  0  0
   16.0420   33.8090   71.7580 C   0  0  0  0  0  2  0  0  0  0  0  0
   15.1550   34.7810   71.0870 C   0  0  0  0  0  0  0  0  0  0  0  0
   13.8710   34.4010   70.6330 C   0  0  0  0  0  0  0  0  0  0  0  0
   13.0890   35.2090   69.9000 C   0  0  0  0  0  3  0  0  0  0  0  0
   13.2750   32.7840   71.0810 Cl  0  0  0  0  0  0  0  0  0  0  0  0
   13.5360   36.5200   69.5440 C   0  0  0  0  0  3  0  0  0  0  0  0
   14.7510   36.8920   69.9570 C   0  0  0  0  0  3  0  0  0  0  0  0
   15.5890   36.0680   70.7190 C   0  0  0  0  0  3  0  0  0  0  0  0
  1  6  1  0  0  0  0
  1  2  1  0  0  0  0
  2  3  1  0  0  0  0
  4  3  1  0  0  0  0
  4 20  1  0  0  0  0
  5  4  1  0  0  0  0
  6  5  1  0  0  0  0
  7  9  2  0  0  0  0
  7  1  1  0  0  0  0
  8  7  2  0  0  0  0
 10  7  1  0  0  0  0
 11 10  1  0  0  0  0
 12 11  2  0  0  0  0
 13 15  2  0  0  0  0
 13 12  1  0  0  0  0
 14 12  1  0  0  0  0
 15 17  1  0  0  0  0
 16 18  1  0  0  0  0
 16 13  1  0  0  0  0
 17 10  2  0  0  0  0
 18 19  1  0  0  0  0
 19 14  1  0  0  0  0
 21 23  1  0  0  0  0
 21 20  1  0  0  0  0
 22 21  2  0  0  0  0
 23 24  1  0  0  0  0
 25 23  1  0  0  0  0
 26 25  1  0  0  0  0
 27 29  1  0  0  0  0
 27 26  2  0  0  0  0
 28 27  1  0  0  0  0
 30 28  2  0  0  0  0
 30 31  1  0  0  0  0
 31 32  2  0  0  0  0
 32 26  1  0  0  0  0
M  END
>  <Pose>
1

>  <Score>
-9.205

$$$$
