MODEL 1
REMARK VINA RESULT:    -8.557      0.000      0.000
REMARK INTER + INTRA:         -11.437
REMARK INTER:                 -10.557
REMARK INTRA:                  -0.880
REMARK UNBOUND:                -0.880
REMARK  4 active torsions:
REMARK  status: ('A' for Active; 'I' for Inactive)
REMARK    1  A    between atoms: S_1  and  N_4 
REMARK    2  A    between atoms: S_1  and  C_26 
REMARK       I    between atoms: N_7  and  C_10 
REMARK    3  A    between atoms: C_10  and  C_12 
REMARK    4  A    between atoms: C_12  and  N_13 
ROOT
ATOM      1  N   UNK d   1      19.532  36.476  70.555  0.00  0.00    -0.303 N 
ATOM      2  C   UNK d   1      20.814  36.791  71.073  0.00  0.00     0.155 C 
ATOM      3  C   UNK d   1      21.959  36.293  70.231  0.00  0.00     0.146 C 
ATOM      4  N   UNK d   1      21.696  36.431  68.814  0.00  0.00    -0.348 N 
ATOM      5  C   UNK d   1      20.545  37.236  68.453  0.00  0.00     0.146 C 
ATOM      6  C   UNK d   1      19.304  36.799  69.192  0.00  0.00     0.155 C 
ATOM      7  C   UNK d   1      22.535  35.801  67.887  0.00  0.00     0.238 C 
ATOM      8  O   UNK d   1      23.506  35.125  68.302  0.00  0.00    -0.272 OA
ENDROOT
BRANCH   7   9
ATOM      9  C   UNK d   1      22.319  35.902  66.420  0.00  0.00     0.239 C 
BRANCH   9  10
ATOM     10  N   UNK d   1      23.292  36.749  65.787  0.00  0.00    -0.259 N 
ATOM     11  C   UNK d   1      24.394  36.277  65.026  0.00  0.00     0.328 C 
ATOM     12  O   UNK d   1      24.654  35.045  64.812  0.00  0.00    -0.247 OA
ATOM     13  N   UNK d   1      25.182  37.349  64.526  0.00  0.00    -0.320 N 
ATOM     14  C   UNK d   1      24.702  38.557  65.169  0.00  0.00     0.118 C 
ATOM     15  C   UNK d   1      26.263  37.228  63.548  0.00  0.00     0.155 C 
ATOM     16  C   UNK d   1      24.451  39.665  64.187  0.00  0.00     0.041 C 
ATOM     17  C   UNK d   1      25.711  38.923  66.232  0.00  0.00     0.041 C 
ATOM     18  C   UNK d   1      23.398  38.166  65.759  0.00  0.00     0.257 C 
ATOM     19  C   UNK d   1      25.674  40.468  63.854  0.00  0.00     0.003 C 
ATOM     20  C   UNK d   1      26.430  40.944  65.060  0.00  0.00     0.000 C 
ATOM     21  C   UNK d   1      25.843  40.425  66.354  0.00  0.00     0.003 C 
ATOM     22  O   UNK d   1      22.502  38.935  66.180  0.00  0.00    -0.270 OA
ENDBRANCH   9  10
ENDBRANCH   7   9
BRANCH   1  23
ATOM     23  S   UNK d   1      18.918  34.951  71.029  0.00  0.00     0.267 S 
ATOM     24  O   UNK d   1      19.459  34.599  72.380  0.00  0.00    -0.200 OA
ATOM     25  O   UNK d   1      19.328  33.874  70.068  0.00  0.00    -0.200 OA
BRANCH  23  26
ATOM     26  C   UNK d   1      17.147  34.944  71.067  0.00  0.00     0.121 A 
ATOM     27  S   UNK d   1      16.099  33.688  71.524  0.00  0.00    -0.064 SA
ATOM     28  C   UNK d   1      14.608  34.469  71.283  0.00  0.00     0.075 A 
ATOM     29  C   UNK d   1      14.970  35.714  70.843  0.00  0.00     0.033 A 
ATOM     30 Cl   UNK d   1      12.960  33.852  71.530  0.00  0.00    -0.076 Cl
ATOM     31  C   UNK d   1      16.295  35.961  70.731  0.00  0.00     0.035 A 
ENDBRANCH  23  26
ENDBRANCH   1  23
TORSDOF 4
ENDMDL
