/Users/jonathanwahrer/Desktop/Msc/3_Semester/Drug_Design_Praktikum/waehrer_HTS_screening/HTS_experiment/out/docking_results/vina_output/4x21/2286_docked.pdbqt
 OpenBabel03212203013D

 31 34  0  0  0  0  0  0  0  0999 V2000
   19.5320   36.4760   70.5550 N   0  0  0  0  0  0  0  0  0  0  0  0
   20.8140   36.7910   71.0730 C   0  0  0  0  0  2  0  0  0  0  0  0
   21.9590   36.2930   70.2310 C   0  0  0  0  0  2  0  0  0  0  0  0
   21.6960   36.4310   68.8140 N   0  0  0  0  0  0  0  0  0  0  0  0
   20.5450   37.2360   68.4530 C   0  0  0  0  0  2  0  0  0  0  0  0
   19.3040   36.7990   69.1920 C   0  0  0  0  0  2  0  0  0  0  0  0
   22.5350   35.8010   67.8870 C   0  0  0  0  0  0  0  0  0  0  0  0
   23.5060   35.1250   68.3020 O   0  0  0  0  0  0  0  0  0  0  0  0
   22.3190   35.9020   66.4200 C   0  0  0  0  0  2  0  0  0  0  0  0
   23.2920   36.7490   65.7870 N   0  0  0  0  0  0  0  0  0  0  0  0
   24.3940   36.2770   65.0260 C   0  0  0  0  0  0  0  0  0  0  0  0
   24.6540   35.0450   64.8120 O   0  0  0  0  0  0  0  0  0  0  0  0
   25.1820   37.3490   64.5260 N   0  0  0  0  0  0  0  0  0  0  0  0
   24.7020   38.5570   65.1690 C   0  0  0  0  0  0  0  0  0  0  0  0
   26.2630   37.2280   63.5480 C   0  0  0  0  0  1  0  0  0  0  0  0
   24.4510   39.6650   64.1870 C   0  0  0  0  0  2  0  0  0  0  0  0
   25.7110   38.9230   66.2320 C   0  0  0  0  0  2  0  0  0  0  0  0
   23.3980   38.1660   65.7590 C   0  0  0  0  0  0  0  0  0  0  0  0
   25.6740   40.4680   63.8540 C   0  0  0  0  0  2  0  0  0  0  0  0
   26.4300   40.9440   65.0600 C   0  0  0  0  0  2  0  0  0  0  0  0
   25.8430   40.4250   66.3540 C   0  0  0  0  0  2  0  0  0  0  0  0
   22.5020   38.9350   66.1800 O   0  0  0  0  0  0  0  0  0  0  0  0
   18.9180   34.9510   71.0290 S   0  0  0  0  0  0  0  0  0  0  0  0
   19.4590   34.5990   72.3800 O   0  0  0  0  0  0  0  0  0  0  0  0
   19.3280   33.8740   70.0680 O   0  0  0  0  0  0  0  0  0  0  0  0
   17.1470   34.9440   71.0670 C   0  0  0  0  0  0  0  0  0  0  0  0
   16.0990   33.6880   71.5240 S   0  0  0  0  0  0  0  0  0  0  0  0
   14.6080   34.4690   71.2830 C   0  0  0  0  0  0  0  0  0  0  0  0
   14.9700   35.7140   70.8430 C   0  0  0  0  0  3  0  0  0  0  0  0
   12.9600   33.8520   71.5300 Cl  0  0  0  0  0  0  0  0  0  0  0  0
   16.2950   35.9610   70.7310 C   0  0  0  0  0  3  0  0  0  0  0  0
  1 23  1  0  0  0  0
  1  2  1  0  0  0  0
  3  2  1  0  0  0  0
  4  3  1  0  0  0  0
  5  4  1  0  0  0  0
  5  6  1  0  0  0  0
  6  1  1  0  0  0  0
  7  8  2  0  0  0  0
  7  4  1  0  0  0  0
  9  7  1  0  0  0  0
 10  9  1  0  0  0  0
 11 10  1  0  0  0  0
 12 11  2  0  0  0  0
 13 11  1  0  0  0  0
 13 14  1  0  0  0  0
 14 18  1  0  0  0  0
 14 17  1  0  0  0  0
 15 13  1  0  0  0  0
 16 14  1  0  0  0  0
 17 21  1  0  0  0  0
 18 10  1  0  0  0  0
 18 22  2  0  0  0  0
 19 16  1  0  0  0  0
 19 20  1  0  0  0  0
 20 21  1  0  0  0  0
 23 26  1  0  0  0  0
 23 24  2  0  0  0  0
 25 23  2  0  0  0  0
 26 27  1  0  0  0  0
 28 27  1  0  0  0  0
 28 30  1  0  0  0  0
 29 28  2  0  0  0  0
 31 29  1  0  0  0  0
 31 26  2  0  0  0  0
M  END
>  <Pose>
1

>  <Score>
-8.557

$$$$
