/Users/jonathanwahrer/Desktop/Msc/3_Semester/Drug_Design_Praktikum/waehrer_HTS_screening/HTS_experiment/out/docking_results/vina_output/4x21/2301_docked.pdbqt
 OpenBabel03212203023D

 24 27  0  0  1  0  0  0  0  0999 V2000
   20.5650   36.1030   70.2710 C   0  0  2  0  0  0  0  0  0  0  0  0
   21.0770   37.0790   69.2640 C   0  0  0  0  0  2  0  0  0  0  0  0
   20.9180   36.5170   67.8400 C   0  0  0  0  0  2  0  0  0  0  0  0
   21.8210   35.3570   67.8480 N   0  0  0  0  0  0  0  0  0  0  0  0
   21.4170   34.2970   68.7170 C   0  0  0  0  0  2  0  0  0  0  0  0
   21.1370   34.7440   70.1220 C   0  0  0  0  0  2  0  0  0  0  0  0
   19.0950   36.1680   70.3180 C   0  0  0  0  0  0  0  0  0  0  0  0
   18.3310   37.2360   69.9450 C   0  0  0  0  0  3  0  0  0  0  0  0
   16.9700   37.1580   70.0420 C   0  0  0  0  0  3  0  0  0  0  0  0
   16.2920   36.0380   70.5050 C   0  0  0  0  0  0  0  0  0  0  0  0
   14.5440   35.9810   70.6020 Cl  0  0  0  0  0  0  0  0  0  0  0  0
   17.0670   34.9690   70.8800 C   0  0  0  0  0  3  0  0  0  0  0  0
   18.4440   35.0300   70.7890 C   0  0  0  0  0  3  0  0  0  0  0  0
   20.9850   36.6010   71.5320 O   0  0  0  0  0  0  0  0  0  0  0  0
   21.4810   37.4580   71.3510 H   0  0  0  0  0  0  0  0  0  0  0  0
   22.9740   35.3850   67.0260 C   0  0  0  0  0  0  0  0  0  0  0  0
   24.0520   34.6620   67.3730 N   0  0  0  0  0  0  0  0  0  0  0  0
   25.1770   34.5970   66.6870 N   0  0  0  0  0  0  0  0  0  0  0  0
   26.3400   33.9580   66.8380 N   0  0  0  0  0  0  0  0  0  0  0  0
   25.2930   35.2890   65.5560 C   0  0  0  0  0  0  0  0  0  0  0  0
   27.1540   34.2380   65.8450 N   0  0  0  0  0  0  0  0  0  0  0  0
   26.5260   35.0550   65.0440 N   0  0  0  0  0  0  0  0  0  0  0  0
   24.2220   36.0580   65.1340 C   0  0  0  0  0  3  0  0  0  0  0  0
   23.0530   36.1150   65.8640 C   0  0  0  0  0  3  0  0  0  0  0  0
  1  7  1  0  0  0  0
  1 14  1  1  0  0  0
  2  1  1  0  0  0  0
  3  4  1  0  0  0  0
  3  2  1  0  0  0  0
  4  5  1  0  0  0  0
  5  6  1  0  0  0  0
  6  1  1  0  0  0  0
  7 13  1  0  0  0  0
  8  9  1  0  0  0  0
  8  7  2  0  0  0  0
  9 10  2  0  0  0  0
 10 11  1  0  0  0  0
 10 12  1  0  0  0  0
 13 12  2  0  0  0  0
 15 14  1  0  0  0  0
 16 17  2  0  0  0  0
 16  4  1  0  0  0  0
 18 19  1  0  0  0  0
 18 17  1  0  0  0  0
 20 18  1  0  0  0  0
 21 19  2  0  0  0  0
 22 20  2  0  0  0  0
 22 21  1  0  0  0  0
 23 20  1  0  0  0  0
 23 24  2  0  0  0  0
 24 16  1  0  0  0  0
M  END
>  <Pose>
1

>  <Score>
-8.176

$$$$
