MODEL 1
REMARK VINA RESULT:    -8.393      0.000      0.000
REMARK INTER + INTRA:         -10.585
REMARK INTER:                  -9.866
REMARK INTRA:                  -0.719
REMARK UNBOUND:                -0.719
REMARK  3 active torsions:
REMARK  status: ('A' for Active; 'I' for Inactive)
REMARK    1  A    between atoms: S_1  and  N_4 
REMARK    2  A    between atoms: S_1  and  C_22 
REMARK       I    between atoms: N_7  and  C_10 
REMARK    3  A    between atoms: C_10  and  C_12 
ROOT
ATOM      1  N   UNK d   1      20.710  33.579  71.553  0.00  0.00    -0.304 N 
ATOM      2  C   UNK d   1      20.375  34.935  71.767  0.00  0.00     0.155 C 
ATOM      3  C   UNK d   1      21.168  35.922  70.951  0.00  0.00     0.146 C 
ATOM      4  N   UNK d   1      21.349  35.511  69.587  0.00  0.00    -0.347 N 
ATOM      5  C   UNK d   1      21.009  34.147  69.266  0.00  0.00     0.146 C 
ATOM      6  C   UNK d   1      21.514  33.285  70.419  0.00  0.00     0.155 C 
ATOM      7  C   UNK d   1      21.842  36.419  68.636  0.00  0.00     0.243 C 
ATOM      8  O   UNK d   1      22.119  37.584  69.039  0.00  0.00    -0.271 OA
ENDROOT
BRANCH   7   9
ATOM      9  C   UNK d   1      22.056  36.093  67.199  0.00  0.00     0.190 C 
ATOM     10  N   UNK d   1      23.322  35.497  66.976  0.00  0.00    -0.320 N 
ATOM     11  C   UNK d   1      24.404  36.383  66.693  0.00  0.00     0.081 C 
ATOM     12  C   UNK d   1      23.910  34.176  66.947  0.00  0.00     0.222 C 
ATOM     13  S   UNK d   1      23.588  37.747  65.838  0.00  0.00    -0.135 SA
ATOM     14  C   UNK d   1      25.200  35.617  65.654  0.00  0.00     0.051 C 
ATOM     15  C   UNK d   1      25.229  36.800  67.844  0.00  0.00     0.051 C 
ATOM     16  C   UNK d   1      21.874  37.286  66.309  0.00  0.00     0.111 C 
ATOM     17  C   UNK d   1      25.240  34.248  66.346  0.00  0.00     0.106 C 
ATOM     18  O   UNK d   1      23.388  33.099  67.366  0.00  0.00    -0.273 OA
ENDBRANCH   7   9
BRANCH   1  19
ATOM     19  S   UNK d   1      19.489  32.453  71.901  0.00  0.00     0.260 S 
ATOM     20  O   UNK d   1      19.659  31.209  71.088  0.00  0.00    -0.200 OA
ATOM     21  O   UNK d   1      19.617  32.046  73.348  0.00  0.00    -0.200 OA
BRANCH  19  22
ATOM     22  C   UNK d   1      17.868  33.114  71.708  0.00  0.00     0.079 A 
ATOM     23  C   UNK d   1      17.223  33.041  70.493  0.00  0.00     0.027 A 
ATOM     24  C   UNK d   1      15.958  33.548  70.308  0.00  0.00     0.025 A 
ATOM     25  C   UNK d   1      15.271  34.159  71.341  0.00  0.00     0.034 A 
ATOM     26  C   UNK d   1      15.945  34.217  72.549  0.00  0.00     0.025 A 
ATOM     27 Cl   UNK d   1      13.660  34.816  71.140  0.00  0.00    -0.084 Cl
ATOM     28  C   UNK d   1      17.207  33.715  72.749  0.00  0.00     0.027 A 
ENDBRANCH  19  22
ENDBRANCH   1  19
TORSDOF 3
ENDMDL
