/Users/jonathanwahrer/Desktop/Msc/3_Semester/Drug_Design_Praktikum/waehrer_HTS_screening/HTS_experiment/out/docking_results/vina_output/4x21/2330_docked.pdbqt
 OpenBabel03212203023D

 28 31  0  0  0  0  0  0  0  0999 V2000
   19.7470   34.7490   70.8810 C   0  0  0  0  0  0  0  0  0  0  0  0
   20.3660   34.9560   71.9510 O   0  0  0  0  0  0  0  0  0  0  0  0
   18.5690   34.0010   70.9050 N   0  0  0  0  0  0  0  0  0  0  0  0
   18.1100   33.8930   69.9310 H   0  0  0  0  0  0  0  0  0  0  0  0
   20.3200   35.3250   69.6510 C   0  0  0  0  0  0  0  0  0  0  0  0
   19.8630   36.5130   69.1190 C   0  0  0  0  0  0  0  0  0  0  0  0
   18.5580   37.3330   69.9640 Cl  0  0  0  0  0  0  0  0  0  0  0  0
   20.4040   37.0560   67.9560 C   0  0  0  0  0  3  0  0  0  0  0  0
   21.4200   36.3860   67.3260 C   0  0  0  0  0  3  0  0  0  0  0  0
   21.9190   35.1780   67.8260 C   0  0  0  0  0  0  0  0  0  0  0  0
   21.3430   34.6980   68.9730 C   0  0  0  0  0  3  0  0  0  0  0  0
   22.9990   34.4980   67.1250 C   0  0  0  0  0  0  0  0  0  0  0  0
   23.4890   33.2690   67.3080 N   0  0  0  0  0  0  0  0  0  0  0  0
   24.4850   33.0610   66.4320 N   0  0  0  0  0  0  0  0  0  0  0  0
   24.6240   34.1530   65.7000 N   0  0  0  0  0  0  0  0  0  0  0  0
   25.0630   32.1960   66.3300 H   0  0  0  0  0  0  0  0  0  0  0  0
   23.7140   35.0320   66.1230 N   0  0  0  0  0  0  0  0  0  0  0  0
   17.8910   33.3730   71.9640 C   0  0  0  0  0  2  0  0  0  0  0  0
   16.6550   33.9400   72.5170 C   0  0  0  0  0  2  0  0  0  0  0  0
   15.4120   33.8440   71.7560 C   0  0  0  0  0  0  0  0  0  0  0  0
   14.8380   34.7880   71.0040 N   0  0  0  0  0  0  0  0  0  0  0  0
   13.7480   34.2770   70.4540 C   0  0  0  0  0  0  0  0  0  0  0  0
   15.1860   36.0660   70.7540 C   0  0  0  0  0  3  0  0  0  0  0  0
   13.6420   33.0070   70.8650 N   0  0  0  0  0  0  0  0  0  0  0  0
   12.9290   35.0040   69.6160 C   0  0  0  0  0  3  0  0  0  0  0  0
   14.6510   32.7490   71.6530 N   0  0  0  0  0  0  0  0  0  0  0  0
   13.2860   36.3160   69.3610 C   0  0  0  0  0  3  0  0  0  0  0  0
   14.4150   36.8360   69.9350 C   0  0  0  0  0  3  0  0  0  0  0  0
  1  3  1  0  0  0  0
  1  2  2  0  0  0  0
  3 18  1  0  0  0  0
  4  3  1  0  0  0  0
  5  1  1  0  0  0  0
  6  5  1  0  0  0  0
  6  7  1  0  0  0  0
  8  6  2  0  0  0  0
  9 10  2  0  0  0  0
  9  8  1  0  0  0  0
 10 11  1  0  0  0  0
 11  5  2  0  0  0  0
 12 13  2  0  0  0  0
 12 10  1  0  0  0  0
 14 13  1  0  0  0  0
 15 17  2  0  0  0  0
 15 14  1  0  0  0  0
 16 14  1  0  0  0  0
 17 12  1  0  0  0  0
 18 19  1  0  0  0  0
 20 19  1  0  0  0  0
 21 20  1  0  0  0  0
 22 24  2  0  0  0  0
 22 21  1  0  0  0  0
 23 21  1  0  0  0  0
 24 26  1  0  0  0  0
 25 22  1  0  0  0  0
 26 20  2  0  0  0  0
 27 25  2  0  0  0  0
 27 28  1  0  0  0  0
 28 23  2  0  0  0  0
M  END
>  <Pose>
1

>  <Score>
-8.868

$$$$
