MODEL 1
REMARK VINA RESULT:    -9.645      0.000      0.000
REMARK INTER + INTRA:         -11.969
REMARK INTER:                 -11.901
REMARK INTRA:                  -0.068
REMARK UNBOUND:                -0.068
REMARK  4 active torsions:
REMARK  status: ('A' for Active; 'I' for Inactive)
REMARK    1  A    between atoms: S_1  and  N_4 
REMARK    2  A    between atoms: S_1  and  C_18 
REMARK    3  A    between atoms: C_6  and  C_10 
REMARK       I    between atoms: C_10  and  N_12 
REMARK    4  A    between atoms: C_22  and  C_24 
ROOT
ATOM      1  S   UNK d   1      20.919  35.621  70.783  0.00  0.00     0.245 S 
ATOM      2  O   UNK d   1      21.213  36.814  71.696  0.00  0.00    -0.206 OA
ATOM      3  O   UNK d   1      22.064  34.644  71.070  0.00  0.00    -0.206 OA
ENDROOT
BRANCH   1   4
ATOM      4  N   UNK d   1      19.448  34.964  71.307  0.00  0.00    -0.206 NA
ATOM      5  C   UNK d   1      18.861  33.971  70.479  0.00  0.00     0.121 C 
ATOM      6  C   UNK d   1      17.571  33.416  71.036  0.00  0.00     0.092 C 
ATOM      7  C   UNK d   1      17.782  32.889  72.413  0.00  0.00     0.016 C 
ATOM      8  C   UNK d   1      18.494  33.898  73.298  0.00  0.00     0.016 C 
ATOM      9  C   UNK d   1      19.740  34.343  72.615  0.00  0.00     0.107 C 
BRANCH   6  10
ATOM     10  C   UNK d   1      16.409  34.315  70.881  0.00  0.00     0.225 C 
ATOM     11  O   UNK d   1      16.664  35.441  70.315  0.00  0.00    -0.273 OA
ATOM     12  N   UNK d   1      15.098  34.078  71.270  0.00  0.00    -0.348 N 
ATOM     13  C   UNK d   1      14.057  35.026  71.025  0.00  0.00     0.152 C 
ATOM     14  C   UNK d   1      14.714  32.870  71.959  0.00  0.00     0.152 C 
ATOM     15  C   UNK d   1      12.732  34.397  70.691  0.00  0.00     0.187 C 
ATOM     16  O   UNK d   1      12.554  33.129  71.149  0.00  0.00    -0.388 OA
ATOM     17  C   UNK d   1      13.630  32.273  71.045  0.00  0.00     0.187 C 
ENDBRANCH   6  10
ENDBRANCH   1   4
BRANCH   1  18
ATOM     18  C   UNK d   1      21.032  36.101  69.142  0.00  0.00     0.097 A 
ATOM     19  C   UNK d   1      20.112  36.927  68.545  0.00  0.00     0.057 A 
ATOM     20  C   UNK d   1      20.295  37.333  67.231  0.00  0.00     0.026 A 
ATOM     21 Cl   UNK d   1      18.639  37.455  69.329  0.00  0.00    -0.083 Cl
ATOM     22  C   UNK d   1      21.403  36.916  66.488  0.00  0.00     0.017 A 
ATOM     23  C   UNK d   1      22.332  36.086  67.074  0.00  0.00     0.016 A 
ATOM     24  C   UNK d   1      22.133  35.695  68.377  0.00  0.00     0.042 A 
BRANCH  23  25
ATOM     25  C   UNK d   1      23.496  35.635  66.322  0.00  0.00     0.189 A 
ATOM     26  N   UNK d   1      23.548  35.418  64.997  0.00  0.00    -0.106 NA
ATOM     27  O   UNK d   1      24.743  35.021  64.659  0.00  0.00    -0.196 OA
ATOM     28  C   UNK d   1      25.492  34.968  65.728  0.00  0.00     0.169 A 
ATOM     29  N   UNK d   1      24.728  35.347  66.770  0.00  0.00    -0.204 NA
ATOM     30  C   UNK d   1      26.938  34.560  65.798  0.00  0.00     0.102 C 
ENDBRANCH  23  25
ENDBRANCH   1  18
TORSDOF 4
ENDMDL
