/Users/jonathanwahrer/Desktop/Msc/3_Semester/Drug_Design_Praktikum/waehrer_HTS_screening/HTS_experiment/out/docking_results/vina_output/4x21/2334_docked.pdbqt
 OpenBabel03212203033D

 30 33  0  0  1  0  0  0  0  0999 V2000
   20.9190   35.6210   70.7830 S   0  0  0  0  0  0  0  0  0  0  0  0
   21.2130   36.8140   71.6960 O   0  0  0  0  0  0  0  0  0  0  0  0
   22.0640   34.6440   71.0700 O   0  0  0  0  0  0  0  0  0  0  0  0
   19.4480   34.9640   71.3070 N   0  0  0  0  0  0  0  0  0  0  0  0
   18.8610   33.9710   70.4790 C   0  0  0  0  0  2  0  0  0  0  0  0
   17.5710   33.4160   71.0360 C   0  0  1  0  0  3  0  0  0  0  0  0
   17.7820   32.8890   72.4130 C   0  0  0  0  0  2  0  0  0  0  0  0
   18.4940   33.8980   73.2980 C   0  0  0  0  0  2  0  0  0  0  0  0
   19.7400   34.3430   72.6150 C   0  0  0  0  0  2  0  0  0  0  0  0
   16.4090   34.3150   70.8810 C   0  0  0  0  0  0  0  0  0  0  0  0
   16.6640   35.4410   70.3150 O   0  0  0  0  0  0  0  0  0  0  0  0
   15.0980   34.0780   71.2700 N   0  0  0  0  0  0  0  0  0  0  0  0
   14.0570   35.0260   71.0250 C   0  0  0  0  0  2  0  0  0  0  0  0
   14.7140   32.8700   71.9590 C   0  0  0  0  0  2  0  0  0  0  0  0
   12.7320   34.3970   70.6910 C   0  0  0  0  0  2  0  0  0  0  0  0
   12.5540   33.1290   71.1490 O   0  0  0  0  0  0  0  0  0  0  0  0
   13.6300   32.2730   71.0450 C   0  0  0  0  0  2  0  0  0  0  0  0
   21.0320   36.1010   69.1420 C   0  0  0  0  0  0  0  0  0  0  0  0
   20.1120   36.9270   68.5450 C   0  0  0  0  0  0  0  0  0  0  0  0
   20.2950   37.3330   67.2310 C   0  0  0  0  0  3  0  0  0  0  0  0
   18.6390   37.4550   69.3290 Cl  0  0  0  0  0  0  0  0  0  0  0  0
   21.4030   36.9160   66.4880 C   0  0  0  0  0  3  0  0  0  0  0  0
   22.3320   36.0860   67.0740 C   0  0  0  0  0  0  0  0  0  0  0  0
   22.1330   35.6950   68.3770 C   0  0  0  0  0  3  0  0  0  0  0  0
   23.4960   35.6350   66.3220 C   0  0  0  0  0  0  0  0  0  0  0  0
   23.5480   35.4180   64.9970 N   0  0  0  0  0  0  0  0  0  0  0  0
   24.7430   35.0210   64.6590 O   0  0  0  0  0  0  0  0  0  0  0  0
   25.4920   34.9680   65.7280 C   0  0  0  0  0  0  0  0  0  0  0  0
   24.7280   35.3470   66.7700 N   0  0  0  0  0  0  0  0  0  0  0  0
   26.9380   34.5600   65.7980 C   0  0  0  0  0  1  0  0  0  0  0  0
  1  3  2  0  0  0  0
  1  4  1  0  0  0  0
  1  2  2  0  0  0  0
  4  9  1  0  0  0  0
  5  6  1  0  0  0  0
  5  4  1  0  0  0  0
  6 10  1  1  0  0  0
  6  7  1  0  0  0  0
  7  8  1  0  0  0  0
  9  8  1  0  0  0  0
 10 12  1  0  0  0  0
 11 10  2  0  0  0  0
 12 14  1  0  0  0  0
 13 12  1  0  0  0  0
 15 13  1  0  0  0  0
 15 16  1  0  0  0  0
 17 16  1  0  0  0  0
 17 14  1  0  0  0  0
 18  1  1  0  0  0  0
 19 18  1  0  0  0  0
 19 21  1  0  0  0  0
 20 19  2  0  0  0  0
 22 23  2  0  0  0  0
 22 20  1  0  0  0  0
 23 24  1  0  0  0  0
 24 18  2  0  0  0  0
 25 29  1  0  0  0  0
 25 23  1  0  0  0  0
 26 25  2  0  0  0  0
 27 26  1  0  0  0  0
 27 28  1  0  0  0  0
 28 30  1  0  0  0  0
 28 29  2  0  0  0  0
M  END
>  <Pose>
1

>  <Score>
-9.645

$$$$
