MODEL 1
REMARK VINA RESULT:    -8.844      0.000      0.000
REMARK INTER + INTRA:         -13.329
REMARK INTER:                 -12.463
REMARK INTRA:                  -0.866
REMARK UNBOUND:                -0.866
REMARK  7 active torsions:
REMARK  status: ('A' for Active; 'I' for Inactive)
REMARK    1  A    between atoms: S_1  and  N_4 
REMARK    2  A    between atoms: S_1  and  C_21 
REMARK    3  A    between atoms: C_6  and  C_10 
REMARK       I    between atoms: C_10  and  N_12 
REMARK    4  A    between atoms: N_12  and  C_13 
REMARK    5  A    between atoms: C_13  and  C_14 
REMARK    6  A    between atoms: C_14  and  N_15 
REMARK       I    between atoms: N_30  and  C_31 
REMARK    7  A    between atoms: C_31  and  C_33 
ROOT
ATOM      1  N   UNK d   1      18.725  32.123  72.123  0.00  0.00    -0.306 N 
ATOM      2  C   UNK d   1      19.481  32.791  71.140  0.00  0.00     0.149 C 
ATOM      3  C   UNK d   1      20.768  32.082  70.779  0.00  0.00     0.096 C 
ATOM      4  C   UNK d   1      21.329  31.249  71.867  0.00  0.00     0.017 C 
ATOM      5  C   UNK d   1      20.815  31.494  73.238  0.00  0.00     0.021 C 
ATOM      6  C   UNK d   1      19.347  31.822  73.336  0.00  0.00     0.135 C 
ENDROOT
BRANCH   1   7
ATOM      7  S   UNK d   1      17.164  31.654  71.796  0.00  0.00     0.262 S 
ATOM      8  O   UNK d   1      16.590  30.970  73.035  0.00  0.00    -0.200 OA
ATOM      9  O   UNK d   1      17.203  30.538  70.760  0.00  0.00    -0.200 OA
BRANCH   7  10
ATOM     10  C   UNK d   1      16.084  32.876  71.234  0.00  0.00     0.099 A 
ATOM     11  C   UNK d   1      16.556  34.149  70.953  0.00  0.00     0.057 A 
ATOM     12  C   UNK d   1      15.741  35.154  70.491  0.00  0.00     0.045 A 
ATOM     13  C   UNK d   1      14.382  34.883  70.296  0.00  0.00    -0.028 A 
ATOM     14  N   UNK d   1      15.916  36.512  70.114  0.00  0.00    -0.317 N 
ATOM     15  C   UNK d   1      13.929  33.635  70.574  0.00  0.00     0.030 A 
ATOM     16  C   UNK d   1      13.679  36.096  69.796  0.00  0.00     0.061 C 
ATOM     17  C   UNK d   1      14.753  32.624  71.039  0.00  0.00     0.035 A 
ATOM     18 Br   UNK d   1      13.994  30.887  71.405  0.00  0.00    -0.049 Br
ATOM     19  C   UNK d   1      14.624  37.197  70.234  0.00  0.00     0.137 C 
ATOM     20  C   UNK d   1      17.082  37.147  69.691  0.00  0.00     0.224 C 
ATOM     21  O   UNK d   1      17.042  38.377  69.342  0.00  0.00    -0.273 OA
BRANCH  20  22
ATOM     22  C   UNK d   1      18.387  36.494  69.611  0.00  0.00     0.099 C 
ATOM     23  C   UNK d   1      19.459  37.263  70.379  0.00  0.00     0.014 C 
ENDBRANCH  20  22
ENDBRANCH   7  10
ENDBRANCH   1   7
BRANCH   3  24
ATOM     24  C   UNK d   1      21.789  33.048  70.297  0.00  0.00     0.223 C 
ATOM     25  O   UNK d   1      21.855  34.166  70.863  0.00  0.00    -0.273 OA
ATOM     26  N   UNK d   1      22.673  32.697  69.209  0.00  0.00    -0.359 N 
ATOM     27  H   UNK d   1      22.530  31.765  68.812  0.00  0.00     0.162 HD
BRANCH  26  28
ATOM     28  C   UNK d   1      23.624  33.667  68.803  0.00  0.00     0.142 C 
BRANCH  28  29
ATOM     29  C   UNK d   1      23.310  34.542  67.650  0.00  0.00     0.136 C 
BRANCH  29  30
ATOM     30  N   UNK d   1      22.485  35.676  67.847  0.00  0.00    -0.407 N 
ATOM     31  C   UNK d   1      21.172  35.626  67.393  0.00  0.00     0.143 C 
ATOM     32  C   UNK d   1      20.810  36.560  66.275  0.00  0.00     0.187 C 
ATOM     33  O   UNK d   1      21.399  37.808  66.411  0.00  0.00    -0.388 OA
ATOM     34  C   UNK d   1      22.777  37.606  66.334  0.00  0.00     0.187 C 
ATOM     35  C   UNK d   1      23.190  36.915  67.612  0.00  0.00     0.143 C 
ENDBRANCH  29  30
ENDBRANCH  28  29
ENDBRANCH  26  28
ENDBRANCH   3  24
TORSDOF 7
ENDMDL
