/Users/jonathanwahrer/Desktop/Msc/3_Semester/Drug_Design_Praktikum/waehrer_HTS_screening/HTS_experiment/out/docking_results/vina_output/4x21/2345_docked.pdbqt
 OpenBabel03212203033D

 27 30  0  0  1  0  0  0  0  0999 V2000
   18.8470   37.3060   68.7620 C   0  0  0  0  0  0  0  0  0  0  0  0
   18.2320   37.2570   67.6320 O   0  0  0  0  0  0  0  0  0  0  0  0
   20.2380   37.1640   68.7140 N   0  0  0  0  0  0  0  0  0  0  0  0
   20.9110   36.9620   67.4410 C   0  0  0  0  0  2  0  0  0  0  0  0
   21.7280   35.6740   67.4660 C   0  0  0  0  0  2  0  0  0  0  0  0
   22.2610   35.4860   68.7830 N   0  0  0  0  0  0  0  0  0  0  0  0
   22.4750   36.6340   69.6090 C   0  0  0  0  0  2  0  0  0  0  0  0
   21.0740   37.2110   69.8900 C   0  0  0  0  0  2  0  0  0  0  0  0
   18.0180   37.5020   69.9570 C   0  0  2  0  0  3  0  0  0  0  0  0
   17.7940   36.2670   70.7850 C   0  0  0  0  0  2  0  0  0  0  0  0
   16.3760   35.9480   70.6720 N   0  0  0  0  0  0  0  0  0  0  0  0
   15.7250   37.2040   70.3820 C   0  0  0  0  0  0  0  0  0  0  0  0
   16.6820   38.1240   69.7250 C   0  0  0  0  0  2  0  0  0  0  0  0
   14.5020   37.3880   70.6890 O   0  0  0  0  0  0  0  0  0  0  0  0
   15.7450   34.6790   70.8140 C   0  0  0  0  0  0  0  0  0  0  0  0
   14.6500   34.3130   70.0600 C   0  0  0  0  0  3  0  0  0  0  0  0
   14.0330   33.0840   70.1990 C   0  0  0  0  0  3  0  0  0  0  0  0
   14.5040   32.1750   71.1090 C   0  0  0  0  0  0  0  0  0  0  0  0
   13.7280   30.6030   71.2980 Cl  0  0  0  0  0  0  0  0  0  0  0  0
   15.5880   32.5050   71.8730 C   0  0  0  0  0  3  0  0  0  0  0  0
   16.2070   33.7540   71.7260 C   0  0  0  0  0  3  0  0  0  0  0  0
   22.5630   34.1940   69.2650 C   0  0  0  0  0  0  0  0  0  0  0  0
   21.7020   33.3300   69.8710 N   0  0  0  0  0  0  0  0  0  0  0  0
   22.3610   32.2040   70.1770 C   0  0  0  0  0  3  0  0  0  0  0  0
   20.2840   33.5930   70.1450 C   0  0  0  0  0  1  0  0  0  0  0  0
   23.6650   32.3430   69.7660 C   0  0  0  0  0  3  0  0  0  0  0  0
   23.7440   33.5460   69.2260 N   0  0  0  0  0  0  0  0  0  0  0  0
  2  1  2  0  0  0  0
  3  1  1  0  0  0  0
  3  8  1  0  0  0  0
  4  5  1  0  0  0  0
  4  3  1  0  0  0  0
  5  6  1  0  0  0  0
  6 22  1  0  0  0  0
  6  7  1  0  0  0  0
  7  8  1  0  0  0  0
  9  1  1  6  0  0  0
  9 10  1  0  0  0  0
 11 10  1  0  0  0  0
 11 15  1  0  0  0  0
 12 11  1  0  0  0  0
 12 14  2  0  0  0  0
 13  9  1  0  0  0  0
 13 12  1  0  0  0  0
 15 21  1  0  0  0  0
 16 17  1  0  0  0  0
 16 15  2  0  0  0  0
 17 18  2  0  0  0  0
 18 19  1  0  0  0  0
 18 20  1  0  0  0  0
 21 20  2  0  0  0  0
 22 23  1  0  0  0  0
 23 25  1  0  0  0  0
 23 24  1  0  0  0  0
 26 24  2  0  0  0  0
 27 22  2  0  0  0  0
 27 26  1  0  0  0  0
M  END
>  <Pose>
1

>  <Score>
-8.280

$$$$
