MODEL 1
REMARK VINA RESULT:    -8.086      0.000      0.000
REMARK INTER + INTRA:          -8.844
REMARK INTER:                  -8.558
REMARK INTRA:                  -0.285
REMARK UNBOUND:                -0.285
REMARK  1 active torsions:
REMARK  status: ('A' for Active; 'I' for Inactive)
REMARK    1  A    between atoms: C_5  and  N_8 
ROOT
ATOM      1  N   UNK d   1      21.391  35.289  69.021  0.00  0.00    -0.231 N 
ATOM      2  C   UNK d   1      21.161  36.669  68.703  0.00  0.00     0.357 A 
ATOM      3  O   UNK d   1      22.000  37.274  67.978  0.00  0.00    -0.244 OA
ATOM      4  N   UNK d   1      19.989  37.260  69.236  0.00  0.00    -0.169 NA
ATOM      5  C   UNK d   1      19.147  36.676  69.967  0.00  0.00     0.202 A 
ATOM      6  C   UNK d   1      19.223  35.245  70.422  0.00  0.00     0.140 A 
ATOM      7  C   UNK d   1      19.404  35.332  71.911  0.00  0.00     0.269 C 
ATOM      8  N   UNK d   1      18.999  34.221  72.682  0.00  0.00    -0.043 N 
ATOM      9  C   UNK d   1      17.794  33.592  72.287  0.00  0.00     0.140 A 
ATOM     10  C   UNK d   1      17.317  33.765  71.027  0.00  0.00    -0.021 A 
ATOM     11  C   UNK d   1      16.130  33.129  70.675  0.00  0.00     0.016 A 
ATOM     12  C   UNK d   1      15.467  32.346  71.598  0.00  0.00    -0.061 A 
ATOM     13  C   UNK d   1      15.955  32.171  72.884  0.00  0.00     0.009 A 
ATOM     14  C   UNK d   1      17.145  32.813  73.224  0.00  0.00     0.038 A 
ATOM     15  C   UNK d   1      14.183  31.658  71.253  0.00  0.00     0.048 C 
ATOM     16  C   UNK d   1      17.973  34.584  69.985  0.00  0.00     0.070 C 
ATOM     17  C   UNK d   1      20.023  33.214  72.915  0.00  0.00     0.276 C 
ATOM     18  C   UNK d   1      20.432  34.626  69.826  0.00  0.00     0.251 A 
ATOM     19  O   UNK d   1      20.686  33.383  70.018  0.00  0.00    -0.271 OA
ATOM     20  O   UNK d   1      18.012  37.366  70.433  0.00  0.00    -0.173 OA
ATOM     21  H   UNK d   1      18.787  34.593  73.663  0.00  0.00     0.286 HD
ENDROOT
BRANCH   1  22
ATOM     22  C   UNK d   1      22.579  34.701  68.530  0.00  0.00     0.047 A 
ATOM     23  C   UNK d   1      23.766  34.725  69.265  0.00  0.00     0.032 A 
ATOM     24  C   UNK d   1      24.927  34.158  68.814  0.00  0.00     0.026 A 
ATOM     25  C   UNK d   1      24.993  33.516  67.577  0.00  0.00     0.034 A 
ATOM     26 Cl   UNK d   1      26.490  32.788  67.023  0.00  0.00    -0.084 Cl
ATOM     27  C   UNK d   1      23.820  33.493  66.847  0.00  0.00     0.026 A 
ATOM     28  C   UNK d   1      22.656  34.063  67.303  0.00  0.00     0.032 A 
ENDBRANCH   1  22
TORSDOF 1
ENDMDL
