/Users/jonathanwahrer/Desktop/Msc/3_Semester/Drug_Design_Praktikum/waehrer_HTS_screening/HTS_experiment/out/docking_results/vina_output/4x21/2350_docked.pdbqt
 OpenBabel03212203043D

 23 26  0  0  1  0  0  0  0  0999 V2000
   17.8300   34.7880   71.5450 N   0  0  0  0  0  0  0  0  0  0  0  0
   18.2480   34.2230   72.7980 C   0  0  0  0  0  0  0  0  0  0  0  0
   17.4500   33.9360   73.7260 O   0  0  0  0  0  0  0  0  0  0  0  0
   19.7200   34.0360   72.8260 C   0  0  1  0  0  3  0  0  0  0  0  0
   20.1440   32.6070   72.9200 C   0  0  1  0  0  3  0  0  0  0  0  0
   19.0840   31.7740   72.2310 C   0  0  1  0  0  3  0  0  0  0  0  0
   19.2220   32.2440   70.7840 C   0  0  1  0  0  3  0  0  0  0  0  0
   20.4160   33.1710   70.7590 C   0  0  1  0  0  3  0  0  0  0  0  0
   20.1600   34.4850   71.4260 C   0  0  1  0  0  3  0  0  0  0  0  0
   19.0010   35.2310   70.8780 C   0  0  0  0  0  0  0  0  0  0  0  0
   19.0820   36.1020   69.9780 O   0  0  0  0  0  0  0  0  0  0  0  0
   21.2560   32.4920   71.8640 C   0  0  0  0  0  2  0  0  0  0  0  0
   16.5160   34.9050   71.0160 C   0  0  0  0  0  0  0  0  0  0  0  0
   15.8110   33.7690   70.6020 C   0  0  0  0  0  3  0  0  0  0  0  0
   14.5440   33.8770   70.0820 C   0  0  0  0  0  3  0  0  0  0  0  0
   13.9220   35.1040   69.9500 C   0  0  0  0  0  0  0  0  0  0  0  0
   12.2970   35.2150   69.2760 Cl  0  0  0  0  0  0  0  0  0  0  0  0
   14.6000   36.2460   70.3520 C   0  0  0  0  0  3  0  0  0  0  0  0
   15.8660   36.1080   70.8690 C   0  0  0  0  0  3  0  0  0  0  0  0
   19.4830   30.4560   72.2800 O   0  0  0  0  0  0  0  0  0  0  0  0
   20.2230   30.2670   72.9020 H   0  0  0  0  0  0  0  0  0  0  0  0
   19.5430   31.1800   69.9430 O   0  0  0  0  0  0  0  0  0  0  0  0
   19.5630   31.5400   69.0050 H   0  0  0  0  0  0  0  0  0  0  0  0
  1  2  1  0  0  0  0
  2  3  2  0  0  0  0
  4  2  1  6  0  0  0
  4  5  1  0  0  0  0
  5 12  1  6  0  0  0
  6 20  1  6  0  0  0
  6  5  1  0  0  0  0
  7 22  1  6  0  0  0
  7  6  1  0  0  0  0
  8  7  1  0  0  0  0
  8  9  1  0  0  0  0
  8 12  1  1  0  0  0
  9 10  1  6  0  0  0
  9  4  1  0  0  0  0
 10  1  1  0  0  0  0
 11 10  2  0  0  0  0
 13  1  1  0  0  0  0
 14 13  2  0  0  0  0
 15 14  1  0  0  0  0
 16 15  2  0  0  0  0
 16 18  1  0  0  0  0
 17 16  1  0  0  0  0
 18 19  2  0  0  0  0
 19 13  1  0  0  0  0
 20 21  1  0  0  0  0
 23 22  1  0  0  0  0
M  END
>  <Pose>
1

>  <Score>
-7.641

$$$$
