MODEL 1
REMARK VINA RESULT:    -7.641      0.000      0.000
REMARK INTER + INTRA:          -9.004
REMARK INTER:                  -8.535
REMARK INTRA:                  -0.469
REMARK UNBOUND:                -0.469
REMARK  3 active torsions:
REMARK  status: ('A' for Active; 'I' for Inactive)
REMARK    1  A    between atoms: C_5  and  N_8 
REMARK    2  A    between atoms: C_13  and  O_21 
REMARK    3  A    between atoms: C_14  and  O_20 
ROOT
ATOM      1  N   UNK d   1      17.830  34.788  71.545  0.00  0.00    -0.252 N 
ATOM      2  C   UNK d   1      18.248  34.223  72.798  0.00  0.00     0.236 C 
ATOM      3  O   UNK d   1      17.450  33.936  73.726  0.00  0.00    -0.272 OA
ATOM      4  C   UNK d   1      19.720  34.036  72.826  0.00  0.00     0.099 C 
ATOM      5  C   UNK d   1      20.144  32.607  72.920  0.00  0.00     0.031 C 
ATOM      6  C   UNK d   1      19.084  31.774  72.231  0.00  0.00     0.152 C 
ATOM      7  C   UNK d   1      19.222  32.244  70.784  0.00  0.00     0.152 C 
ATOM      8  C   UNK d   1      20.416  33.171  70.759  0.00  0.00     0.031 C 
ATOM      9  C   UNK d   1      20.160  34.485  71.426  0.00  0.00     0.099 C 
ATOM     10  C   UNK d   1      19.001  35.231  70.878  0.00  0.00     0.236 C 
ATOM     11  O   UNK d   1      19.082  36.102  69.978  0.00  0.00    -0.272 OA
ATOM     12  C   UNK d   1      21.256  32.492  71.864  0.00  0.00     0.016 C 
ENDROOT
BRANCH   1  13
ATOM     13  C   UNK d   1      16.516  34.905  71.016  0.00  0.00     0.045 A 
ATOM     14  C   UNK d   1      15.811  33.769  70.602  0.00  0.00     0.032 A 
ATOM     15  C   UNK d   1      14.544  33.877  70.082  0.00  0.00     0.026 A 
ATOM     16  C   UNK d   1      13.922  35.104  69.950  0.00  0.00     0.034 A 
ATOM     17 Cl   UNK d   1      12.297  35.215  69.276  0.00  0.00    -0.084 Cl
ATOM     18  C   UNK d   1      14.600  36.246  70.352  0.00  0.00     0.026 A 
ATOM     19  C   UNK d   1      15.866  36.108  70.869  0.00  0.00     0.032 A 
ENDBRANCH   1  13
BRANCH   6  20
ATOM     20  O   UNK d   1      19.483  30.456  72.280  0.00  0.00    -0.393 OA
ATOM     21  H   UNK d   1      20.223  30.267  72.902  0.00  0.00     0.210 HD
ENDBRANCH   6  20
BRANCH   7  22
ATOM     22  O   UNK d   1      19.543  31.180  69.943  0.00  0.00    -0.393 OA
ATOM     23  H   UNK d   1      19.563  31.540  69.005  0.00  0.00     0.210 HD
ENDBRANCH   7  22
TORSDOF 3
ENDMDL
