MODEL 1
REMARK VINA RESULT:    -8.923      0.000      0.000
REMARK INTER + INTRA:         -12.758
REMARK INTER:                 -11.792
REMARK INTRA:                  -0.966
REMARK UNBOUND:                -0.966
REMARK  6 active torsions:
REMARK  status: ('A' for Active; 'I' for Inactive)
REMARK    1  A    between atoms: C_5  and  N_8 
REMARK    2  A    between atoms: C_14  and  C_17 
REMARK    3  A    between atoms: C_19  and  C_22 
REMARK    4  A    between atoms: C_24  and  O_31 
REMARK    5  A    between atoms: C_25  and  O_30 
REMARK    6  A    between atoms: C_26  and  O_28 
ROOT
ATOM      1  C   UNK d   1      19.837  33.107  71.159  0.00  0.00     0.041 C 
ATOM      2  C   UNK d   1      18.835  33.201  72.010  0.00  0.00     0.026 C 
ATOM      3  C   UNK d   1      17.575  32.759  71.363  0.00  0.00     0.134 C 
ATOM      4  N   UNK d   1      18.047  31.991  70.244  0.00  0.00    -0.228 NA
ATOM      5  N   UNK d   1      19.277  32.600  69.952  0.00  0.00    -0.323 N 
ATOM      6  H   UNK d   1      17.409  31.936  69.453  0.00  0.00     0.147 HD
ATOM      7  H   UNK d   1      19.695  32.659  69.003  0.00  0.00     0.180 HD
ENDROOT
BRANCH   1   8
ATOM      8  C   UNK d   1      21.283  33.450  71.391  0.00  0.00     0.221 C 
ATOM      9  C   UNK d   1      22.155  32.352  70.919  0.00  0.00     0.244 C 
ATOM     10  N   UNK d   1      22.593  32.329  69.575  0.00  0.00    -0.277 N 
ATOM     11  O   UNK d   1      22.495  31.454  71.713  0.00  0.00    -0.272 OA
ATOM     12  C   UNK d   1      22.524  33.478  68.781  0.00  0.00     0.336 C 
ATOM     13  H   UNK d   1      22.984  31.447  69.133  0.00  0.00     0.173 HD
ATOM     14  N   UNK d   1      22.014  34.696  69.304  0.00  0.00    -0.233 N 
ATOM     15  O   UNK d   1      22.913  33.486  67.561  0.00  0.00    -0.246 OA
ATOM     16  C   UNK d   1      21.578  34.703  70.655  0.00  0.00     0.251 C 
ATOM     17  O   UNK d   1      21.438  35.788  71.245  0.00  0.00    -0.271 OA
BRANCH  14  18
ATOM     18  C   UNK d   1      21.952  35.852  68.481  0.00  0.00     0.047 A 
ATOM     19  C   UNK d   1      23.080  36.589  68.229  0.00  0.00     0.032 A 
ATOM     20  C   UNK d   1      23.053  37.715  67.431  0.00  0.00     0.026 A 
ATOM     21  C   UNK d   1      21.875  38.128  66.863  0.00  0.00     0.034 A 
ATOM     22 Cl   UNK d   1      21.816  39.568  65.837  0.00  0.00    -0.084 Cl
ATOM     23  C   UNK d   1      20.731  37.404  67.101  0.00  0.00     0.026 A 
ATOM     24  C   UNK d   1      20.778  36.264  67.913  0.00  0.00     0.032 A 
ENDBRANCH  14  18
ENDBRANCH   1   8
BRANCH   3  25
ATOM     25  C   UNK d   1      16.792  33.937  71.009  0.00  0.00    -0.030 A 
ATOM     26  C   UNK d   1      15.420  33.822  70.957  0.00  0.00     0.049 A 
ATOM     27  C   UNK d   1      14.591  34.879  70.635  0.00  0.00     0.104 A 
ATOM     28  C   UNK d   1      15.190  36.113  70.350  0.00  0.00     0.133 A 
ATOM     29  C   UNK d   1      16.558  36.276  70.388  0.00  0.00     0.104 A 
ATOM     30  C   UNK d   1      17.322  35.175  70.718  0.00  0.00     0.049 A 
BRANCH  27  31
ATOM     31  O   UNK d   1      13.208  34.774  70.581  0.00  0.00    -0.353 OA
ATOM     32  C   UNK d   1      12.603  33.851  71.464  0.00  0.00     0.210 C 
ENDBRANCH  27  31
BRANCH  28  33
ATOM     33  O   UNK d   1      14.407  37.197  70.024  0.00  0.00    -0.356 OA
ATOM     34  H   UNK d   1      14.464  37.598  69.098  0.00  0.00     0.218 HD
ENDBRANCH  28  33
BRANCH  29  35
ATOM     35  O   UNK d   1      17.090  37.498  70.101  0.00  0.00    -0.353 OA
ATOM     36  C   UNK d   1      17.473  37.967  68.841  0.00  0.00     0.210 C 
ENDBRANCH  29  35
ENDBRANCH   3  25
TORSDOF 6
ENDMDL
