/Users/jonathanwahrer/Desktop/Msc/3_Semester/Drug_Design_Praktikum/waehrer_HTS_screening/HTS_experiment/out/docking_results/vina_output/4x21/2357_docked.pdbqt
 OpenBabel03212203043D

 36 39  0  0  1  0  0  0  0  0999 V2000
   19.8370   33.1070   71.1590 C   0  0  2  0  0  3  0  0  0  0  0  0
   18.8350   33.2010   72.0100 C   0  0  0  0  0  2  0  0  0  0  0  0
   17.5750   32.7590   71.3630 C   0  0  2  0  0  3  0  0  0  0  0  0
   18.0470   31.9910   70.2440 N   0  0  0  0  0  0  0  0  0  0  0  0
   19.2770   32.6000   69.9520 N   0  0  0  0  0  0  0  0  0  0  0  0
   17.4090   31.9360   69.4530 H   0  0  0  0  0  0  0  0  0  0  0  0
   19.6950   32.6590   69.0030 H   0  0  0  0  0  0  0  0  0  0  0  0
   21.2830   33.4500   71.3910 C   0  0  1  0  0  3  0  0  0  0  0  0
   22.1550   32.3520   70.9190 C   0  0  0  0  0  0  0  0  0  0  0  0
   22.5930   32.3290   69.5750 N   0  0  0  0  0  0  0  0  0  0  0  0
   22.4950   31.4540   71.7130 O   0  0  0  0  0  0  0  0  0  0  0  0
   22.5240   33.4780   68.7810 C   0  0  0  0  0  0  0  0  0  0  0  0
   22.9840   31.4470   69.1330 H   0  0  0  0  0  0  0  0  0  0  0  0
   22.0140   34.6960   69.3040 N   0  0  0  0  0  0  0  0  0  0  0  0
   22.9130   33.4860   67.5610 O   0  0  0  0  0  0  0  0  0  0  0  0
   21.5780   34.7030   70.6550 C   0  0  0  0  0  0  0  0  0  0  0  0
   21.4380   35.7880   71.2450 O   0  0  0  0  0  0  0  0  0  0  0  0
   21.9520   35.8520   68.4810 C   0  0  0  0  0  0  0  0  0  0  0  0
   23.0800   36.5890   68.2290 C   0  0  0  0  0  3  0  0  0  0  0  0
   23.0530   37.7150   67.4310 C   0  0  0  0  0  3  0  0  0  0  0  0
   21.8750   38.1280   66.8630 C   0  0  0  0  0  0  0  0  0  0  0  0
   21.8160   39.5680   65.8370 Cl  0  0  0  0  0  0  0  0  0  0  0  0
   20.7310   37.4040   67.1010 C   0  0  0  0  0  3  0  0  0  0  0  0
   20.7780   36.2640   67.9130 C   0  0  0  0  0  3  0  0  0  0  0  0
   16.7920   33.9370   71.0090 C   0  0  0  0  0  0  0  0  0  0  0  0
   15.4200   33.8220   70.9570 C   0  0  0  0  0  3  0  0  0  0  0  0
   14.5910   34.8790   70.6350 C   0  0  0  0  0  0  0  0  0  0  0  0
   15.1900   36.1130   70.3500 C   0  0  0  0  0  0  0  0  0  0  0  0
   16.5580   36.2760   70.3880 C   0  0  0  0  0  0  0  0  0  0  0  0
   17.3220   35.1750   70.7180 C   0  0  0  0  0  3  0  0  0  0  0  0
   13.2080   34.7740   70.5810 O   0  0  0  0  0  0  0  0  0  0  0  0
   12.6030   33.8510   71.4640 C   0  0  0  0  0  1  0  0  0  0  0  0
   14.4070   37.1970   70.0240 O   0  0  0  0  0  0  0  0  0  0  0  0
   14.4640   37.5980   69.0980 H   0  0  0  0  0  0  0  0  0  0  0  0
   17.0900   37.4980   70.1010 O   0  0  0  0  0  0  0  0  0  0  0  0
   17.4730   37.9670   68.8410 C   0  0  0  0  0  1  0  0  0  0  0  0
  1  8  1  0  0  0  0
  1  2  1  1  0  0  0
  3 25  1  6  0  0  0
  3  2  1  0  0  0  0
  4  3  1  0  0  0  0
  5  4  1  0  0  0  0
  5  1  1  0  0  0  0
  6  4  1  0  0  0  0
  7  5  1  0  0  0  0
  8 16  1  6  0  0  0
  9  8  1  0  0  0  0
  9 11  2  0  0  0  0
 10  9  1  0  0  0  0
 12 14  1  0  0  0  0
 12 10  1  0  0  0  0
 13 10  1  0  0  0  0
 14 16  1  0  0  0  0
 15 12  2  0  0  0  0
 16 17  2  0  0  0  0
 18 14  1  0  0  0  0
 19 18  1  0  0  0  0
 20 19  2  0  0  0  0
 21 23  2  0  0  0  0
 21 20  1  0  0  0  0
 22 21  1  0  0  0  0
 23 24  1  0  0  0  0
 24 18  2  0  0  0  0
 26 25  1  0  0  0  0
 27 26  2  0  0  0  0
 28 29  2  0  0  0  0
 28 27  1  0  0  0  0
 29 30  1  0  0  0  0
 30 25  2  0  0  0  0
 31 27  1  0  0  0  0
 31 32  1  0  0  0  0
 33 28  1  0  0  0  0
 34 33  1  0  0  0  0
 35 29  1  0  0  0  0
 36 35  1  0  0  0  0
M  END
>  <Pose>
1

>  <Score>
-8.923

$$$$
