MODEL 1
REMARK VINA RESULT:    -8.892      0.000      0.000
REMARK INTER + INTRA:         -12.406
REMARK INTER:                 -11.231
REMARK INTRA:                  -1.175
REMARK UNBOUND:                -1.175
REMARK  5 active torsions:
REMARK  status: ('A' for Active; 'I' for Inactive)
REMARK    1  A    between atoms: C_5  and  N_8 
REMARK    2  A    between atoms: C_14  and  C_17 
REMARK    3  A    between atoms: C_19  and  C_22 
REMARK    4  A    between atoms: C_24  and  O_30 
REMARK    5  A    between atoms: C_25  and  O_28 
ROOT
ATOM      1  N   UNK d   1      16.526  32.274  71.805  0.00  0.00    -0.233 N 
ATOM      2  C   UNK d   1      15.560  31.457  71.159  0.00  0.00     0.336 C 
ATOM      3  O   UNK d   1      15.937  30.345  70.686  0.00  0.00    -0.246 OA
ATOM      4  N   UNK d   1      14.210  31.859  71.040  0.00  0.00    -0.277 N 
ATOM      5  C   UNK d   1      13.781  33.100  71.567  0.00  0.00     0.244 C 
ATOM      6  O   UNK d   1      12.539  33.404  71.630  0.00  0.00    -0.272 OA
ATOM      7  C   UNK d   1      14.735  34.092  72.063  0.00  0.00     0.221 C 
ATOM      8  C   UNK d   1      16.060  33.513  72.321  0.00  0.00     0.251 C 
ATOM      9  O   UNK d   1      16.884  34.147  73.065  0.00  0.00    -0.271 OA
ATOM     10  H   UNK d   1      13.510  31.239  70.557  0.00  0.00     0.173 HD
ENDROOT
BRANCH   7  11
ATOM     11  C   UNK d   1      14.800  35.257  71.132  0.00  0.00     0.041 C 
ATOM     12  C   UNK d   1      15.170  36.482  71.395  0.00  0.00     0.026 C 
ATOM     13  C   UNK d   1      15.057  37.255  70.133  0.00  0.00     0.134 C 
ATOM     14  N   UNK d   1      14.187  36.446  69.306  0.00  0.00    -0.228 NA
ATOM     15  N   UNK d   1      14.441  35.147  69.759  0.00  0.00    -0.323 N 
ATOM     16  H   UNK d   1      13.181  36.710  69.434  0.00  0.00     0.147 HD
ATOM     17  H   UNK d   1      14.364  34.290  69.152  0.00  0.00     0.180 HD
BRANCH  13  18
ATOM     18  C   UNK d   1      16.390  37.404  69.488  0.00  0.00    -0.032 A 
ATOM     19  C   UNK d   1      16.583  38.182  68.369  0.00  0.00     0.048 A 
ATOM     20  C   UNK d   1      17.816  38.326  67.761  0.00  0.00     0.099 A 
ATOM     21  C   UNK d   1      18.916  37.677  68.275  0.00  0.00     0.101 A 
ATOM     22  C   UNK d   1      18.745  36.897  69.392  0.00  0.00     0.040 A 
ATOM     23  C   UNK d   1      17.512  36.759  69.989  0.00  0.00     0.012 A 
BRANCH  20  24
ATOM     24  O   UNK d   1      17.947  39.122  66.639  0.00  0.00    -0.358 OA
ATOM     25  H   UNK d   1      17.732  40.098  66.666  0.00  0.00     0.217 HD
ENDBRANCH  20  24
BRANCH  21  26
ATOM     26  O   UNK d   1      20.157  37.807  67.684  0.00  0.00    -0.353 OA
ATOM     27  C   UNK d   1      20.591  36.841  66.755  0.00  0.00     0.210 C 
ENDBRANCH  21  26
ENDBRANCH  13  18
ENDBRANCH   7  11
BRANCH   1  28
ATOM     28  C   UNK d   1      17.889  31.894  71.942  0.00  0.00     0.047 A 
ATOM     29  C   UNK d   1      18.333  31.111  73.000  0.00  0.00     0.032 A 
ATOM     30  C   UNK d   1      19.638  30.744  73.136  0.00  0.00     0.026 A 
ATOM     31  C   UNK d   1      20.569  31.157  72.195  0.00  0.00     0.034 A 
ATOM     32 Cl   UNK d   1      22.258  30.705  72.334  0.00  0.00    -0.084 Cl
ATOM     33  C   UNK d   1      20.160  31.940  71.127  0.00  0.00     0.026 A 
ATOM     34  C   UNK d   1      18.816  32.303  71.010  0.00  0.00     0.032 A 
ENDBRANCH   1  28
TORSDOF 5
ENDMDL
