MODEL 1
REMARK VINA RESULT:    -8.993      0.000      0.000
REMARK INTER + INTRA:         -11.825
REMARK INTER:                 -10.833
REMARK INTRA:                  -0.992
REMARK UNBOUND:                -0.992
REMARK  4 active torsions:
REMARK  status: ('A' for Active; 'I' for Inactive)
REMARK    1  A    between atoms: C_5  and  N_8 
REMARK    2  A    between atoms: C_14  and  C_17 
REMARK    3  A    between atoms: C_19  and  C_22 
REMARK    4  A    between atoms: C_24  and  O_28 
ROOT
ATOM      1  N   UNK d   1      22.105  34.471  69.071  0.00  0.00    -0.233 N 
ATOM      2  C   UNK d   1      22.741  33.184  69.124  0.00  0.00     0.336 C 
ATOM      3  O   UNK d   1      23.818  32.951  68.493  0.00  0.00    -0.246 OA
ATOM      4  N   UNK d   1      22.107  32.190  69.915  0.00  0.00    -0.277 N 
ATOM      5  C   UNK d   1      20.881  32.483  70.623  0.00  0.00     0.244 C 
ATOM      6  O   UNK d   1      20.627  31.781  71.610  0.00  0.00    -0.272 OA
ATOM      7  C   UNK d   1      20.028  33.558  70.154  0.00  0.00     0.221 C 
ATOM      8  C   UNK d   1      20.903  34.710  69.784  0.00  0.00     0.251 C 
ATOM      9  O   UNK d   1      20.641  35.907  70.068  0.00  0.00    -0.271 OA
ATOM     10  H   UNK d   1      22.550  31.256  69.966  0.00  0.00     0.173 HD
ENDROOT
BRANCH   7  11
ATOM     11  C   UNK d   1      18.906  33.942  70.980  0.00  0.00     0.041 C 
ATOM     12  C   UNK d   1      17.714  34.359  70.620  0.00  0.00     0.026 C 
ATOM     13  C   UNK d   1      16.863  34.644  71.802  0.00  0.00     0.134 C 
ATOM     14  N   UNK d   1      17.630  34.082  72.889  0.00  0.00    -0.228 NA
ATOM     15  N   UNK d   1      18.934  33.932  72.423  0.00  0.00    -0.323 N 
ATOM     16  H   UNK d   1      17.220  33.197  73.260  0.00  0.00     0.147 HD
ATOM     17  H   UNK d   1      19.753  33.837  73.060  0.00  0.00     0.180 HD
BRANCH  13  18
ATOM     18  C   UNK d   1      15.568  33.955  71.762  0.00  0.00    -0.033 A 
ATOM     19  C   UNK d   1      14.480  34.637  71.238  0.00  0.00     0.045 A 
ATOM     20  C   UNK d   1      13.253  34.019  71.186  0.00  0.00     0.066 A 
ATOM     21  C   UNK d   1      13.071  32.734  71.640  0.00  0.00     0.036 A 
ATOM     22  C   UNK d   1      14.140  32.044  72.162  0.00  0.00     0.003 A 
ATOM     23  C   UNK d   1      15.383  32.675  72.215  0.00  0.00     0.009 A 
BRANCH  20  24
ATOM     24  O   UNK d   1      12.146  34.697  70.658  0.00  0.00    -0.361 OA
ATOM     25  H   UNK d   1      11.506  34.201  70.063  0.00  0.00     0.217 HD
ENDBRANCH  20  24
ENDBRANCH  13  18
ENDBRANCH   7  11
BRANCH   1  26
ATOM     26  C   UNK d   1      22.746  35.486  68.266  0.00  0.00     0.047 A 
ATOM     27  C   UNK d   1      22.335  35.753  66.974  0.00  0.00     0.032 A 
ATOM     28  C   UNK d   1      22.929  36.714  66.179  0.00  0.00     0.026 A 
ATOM     29  C   UNK d   1      23.987  37.455  66.687  0.00  0.00     0.034 A 
ATOM     30 Cl   UNK d   1      24.715  38.658  65.662  0.00  0.00    -0.084 Cl
ATOM     31  C   UNK d   1      24.419  37.205  67.987  0.00  0.00     0.026 A 
ATOM     32  C   UNK d   1      23.801  36.234  68.753  0.00  0.00     0.032 A 
ENDBRANCH   1  26
TORSDOF 4
ENDMDL
