MODEL 1
REMARK VINA RESULT:    -9.107      0.000      0.000
REMARK INTER + INTRA:         -12.120
REMARK INTER:                 -10.705
REMARK INTRA:                  -1.416
REMARK UNBOUND:                -1.416
REMARK  3 active torsions:
REMARK  status: ('A' for Active; 'I' for Inactive)
REMARK    1  A    between atoms: C_5  and  N_8 
REMARK    2  A    between atoms: C_14  and  C_17 
REMARK    3  A    between atoms: C_19  and  C_22 
ROOT
ATOM      1  N   UNK d   1      18.379  32.957  71.341  0.00  0.00    -0.233 N 
ATOM      2  C   UNK d   1      18.913  31.989  70.456  0.00  0.00     0.336 C 
ATOM      3  O   UNK d   1      18.160  31.381  69.654  0.00  0.00    -0.246 OA
ATOM      4  N   UNK d   1      20.325  31.719  70.491  0.00  0.00    -0.277 N 
ATOM      5  C   UNK d   1      21.179  32.405  71.397  0.00  0.00     0.244 C 
ATOM      6  O   UNK d   1      22.315  31.934  71.653  0.00  0.00    -0.272 OA
ATOM      7  C   UNK d   1      20.717  33.656  72.019  0.00  0.00     0.221 C 
ATOM      8  C   UNK d   1      19.259  33.621  72.231  0.00  0.00     0.251 C 
ATOM      9  O   UNK d   1      18.754  34.208  73.249  0.00  0.00    -0.271 OA
ATOM     10  H   UNK d   1      20.761  31.014  69.858  0.00  0.00     0.173 HD
ENDROOT
BRANCH   7  11
ATOM     11  C   UNK d   1      21.086  34.842  71.174  0.00  0.00     0.041 C 
ATOM     12  C   UNK d   1      20.782  36.099  71.362  0.00  0.00     0.026 C 
ATOM     13  C   UNK d   1      21.360  36.905  70.275  0.00  0.00     0.135 C 
ATOM     14  N   UNK d   1      22.312  36.025  69.658  0.00  0.00    -0.228 NA
ATOM     15  N   UNK d   1      21.867  34.737  69.995  0.00  0.00    -0.323 N 
ATOM     16  H   UNK d   1      23.270  36.192  69.979  0.00  0.00     0.147 HD
ATOM     17  H   UNK d   1      22.112  33.895  69.425  0.00  0.00     0.180 HD
BRANCH  13  18
ATOM     18  C   UNK d   1      20.258  37.212  69.328  0.00  0.00    -0.018 A 
ATOM     19  C   UNK d   1      20.531  37.461  68.004  0.00  0.00     0.125 A 
ATOM     20  N   UNK d   1      19.525  37.743  67.131  0.00  0.00    -0.273 NA
ATOM     21  C   UNK d   1      18.237  37.795  67.506  0.00  0.00     0.116 A 
ATOM     22  C   UNK d   1      17.928  37.551  68.825  0.00  0.00     0.020 A 
ATOM     23  C   UNK d   1      18.951  37.258  69.737  0.00  0.00     0.012 A 
ENDBRANCH  13  18
ENDBRANCH   7  11
BRANCH   1  24
ATOM     24  C   UNK d   1      16.963  33.256  71.342  0.00  0.00     0.047 A 
ATOM     25  C   UNK d   1      16.046  32.449  71.979  0.00  0.00     0.032 A 
ATOM     26  C   UNK d   1      14.688  32.749  71.971  0.00  0.00     0.026 A 
ATOM     27  C   UNK d   1      14.211  33.869  71.323  0.00  0.00     0.034 A 
ATOM     28 Cl   UNK d   1      12.499  34.253  71.311  0.00  0.00    -0.084 Cl
ATOM     29  C   UNK d   1      15.132  34.673  70.687  0.00  0.00     0.026 A 
ATOM     30  C   UNK d   1      16.482  34.374  70.696  0.00  0.00     0.032 A 
ENDBRANCH   1  24
TORSDOF 3
ENDMDL
