MODEL 1
REMARK VINA RESULT:    -8.728      0.000      0.000
REMARK INTER + INTRA:         -12.337
REMARK INTER:                 -11.534
REMARK INTRA:                  -0.803
REMARK UNBOUND:                -0.803
REMARK  6 active torsions:
REMARK  status: ('A' for Active; 'I' for Inactive)
REMARK    1  A    between atoms: C_4  and  C_8 
REMARK    2  A    between atoms: C_8  and  N_9 
REMARK    3  A    between atoms: N_16  and  C_18 
REMARK    4  A    between atoms: C_18  and  C_19 
REMARK    5  A    between atoms: C_21  and  O_25 
REMARK    6  A    between atoms: C_30  and  O_32 
ROOT
ATOM      1  N   UNK d   1      24.178  36.876  66.523  0.00  0.00    -0.280 N 
ATOM      2  C   UNK d   1      25.144  36.567  67.521  0.00  0.00     0.260 C 
ATOM      3  O   UNK d   1      26.366  36.859  67.318  0.00  0.00    -0.270 OA
ATOM      4  C   UNK d   1      24.809  35.923  68.795  0.00  0.00     0.319 C 
ATOM      5  N   UNK d   1      23.483  35.408  68.879  0.00  0.00     0.127 N 
ATOM      6  C   UNK d   1      22.476  36.122  68.163  0.00  0.00     0.292 A 
ATOM      7  C   UNK d   1      21.817  37.258  68.907  0.00  0.00     0.326 A 
ATOM      8  N   UNK d   1      20.600  36.514  68.956  0.00  0.00     0.098 N 
ATOM      9  C   UNK d   1      21.147  35.396  68.296  0.00  0.00     0.326 A 
ATOM     10  C   UNK d   1      22.845  36.440  66.760  0.00  0.00     0.270 C 
ATOM     11  O   UNK d   1      22.043  36.342  65.796  0.00  0.00    -0.270 OA
ATOM     12  C   UNK d   1      23.503  34.041  68.443  0.00  0.00     0.307 C 
ATOM     13  C   UNK d   1      24.926  33.671  68.135  0.00  0.00     0.149 C 
ATOM     14  C   UNK d   1      25.712  34.687  68.914  0.00  0.00     0.079 C 
ENDROOT
BRANCH   8  15
ATOM     15  C   UNK d   1      19.920  36.373  70.192  0.00  0.00     0.311 C 
BRANCH  15  16
ATOM     16  C   UNK d   1      18.457  36.482  70.141  0.00  0.00    -0.028 A 
ATOM     17  C   UNK d   1      17.675  35.490  70.679  0.00  0.00     0.045 A 
ATOM     18  C   UNK d   1      16.280  35.569  70.645  0.00  0.00     0.068 A 
ATOM     19  C   UNK d   1      15.686  36.662  70.058  0.00  0.00     0.037 A 
ATOM     20  C   UNK d   1      16.445  37.669  69.512  0.00  0.00     0.003 A 
ATOM     21  C   UNK d   1      17.833  37.560  69.564  0.00  0.00     0.009 A 
BRANCH  18  22
ATOM     22  O   UNK d   1      15.490  34.573  71.185  0.00  0.00    -0.356 OA
ATOM     23  C   UNK d   1      14.088  34.765  71.214  0.00  0.00     0.210 C 
ENDBRANCH  18  22
ENDBRANCH  15  16
ENDBRANCH   8  15
BRANCH   1  24
ATOM     24  C   UNK d   1      24.522  37.599  65.311  0.00  0.00     0.173 C 
BRANCH  24  25
ATOM     25  C   UNK d   1      24.282  39.070  65.509  0.00  0.00    -0.038 A 
ATOM     26  C   UNK d   1      25.278  39.892  65.986  0.00  0.00     0.032 A 
ATOM     27  C   UNK d   1      25.083  41.244  66.177  0.00  0.00     0.034 A 
ATOM     28 Cl   UNK d   1      26.373  42.258  66.785  0.00  0.00    -0.084 Cl
ATOM     29  C   UNK d   1      23.863  41.809  65.889  0.00  0.00     0.024 A 
ATOM     30  C   UNK d   1      22.881  40.970  65.414  0.00  0.00     0.002 A 
ATOM     31  C   UNK d   1      23.060  39.637  65.221  0.00  0.00     0.009 A 
ENDBRANCH  24  25
ENDBRANCH   1  24
BRANCH  13  32
ATOM     32  O   UNK d   1      25.237  32.367  68.495  0.00  0.00    -0.394 OA
ATOM     33  H   UNK d   1      26.190  32.352  68.753  0.00  0.00     0.210 HD
ENDBRANCH  13  32
TORSDOF 6
ENDMDL
