/Users/jonathanwahrer/Desktop/Msc/3_Semester/Drug_Design_Praktikum/waehrer_HTS_screening/HTS_experiment/out/docking_results/vina_output/4x21/2365_docked.pdbqt
 OpenBabel03212203063D

 32 36  0  0  1  0  0  0  0  0999 V2000
   21.0820   32.6040   69.8760 N   0  0  0  0  0  0  0  0  0  0  0  0
   20.4980   33.4540   70.8280 C   0  0  0  0  0  0  0  0  0  0  0  0
   21.1990   34.3990   71.2990 O   0  0  0  0  0  0  0  0  0  0  0  0
   20.5150   31.8180   69.4760 H   0  0  0  0  0  0  0  0  0  0  0  0
   19.1080   33.3220   71.3250 C   0  0  1  0  0  0  0  0  0  0  0  0
   18.2740   34.5140   70.9010 C   0  0  0  0  0  2  0  0  0  0  0  0
   16.8670   34.3920   71.4140 C   0  0  1  0  0  0  0  0  0  0  0  0
   16.2580   33.1500   70.7600 C   0  0  0  0  0  2  0  0  0  0  0  0
   16.7970   34.2100   72.8980 C   0  0  0  0  0  2  0  0  0  0  0  0
   17.0580   31.9430   71.1370 C   0  0  1  0  0  3  0  0  0  0  0  0
   18.4930   32.0960   70.6870 C   0  0  0  0  0  2  0  0  0  0  0  0
   17.0180   31.7730   72.6380 C   0  0  0  0  0  2  0  0  0  0  0  0
   17.6290   33.0060   73.2610 C   0  0  1  0  0  3  0  0  0  0  0  0
   19.0630   33.1570   72.8280 C   0  0  0  0  0  2  0  0  0  0  0  0
   16.1420   35.5650   70.9650 N   0  0  0  0  0  0  0  0  0  0  0  0
   16.5930   36.7100   70.4840 N   0  0  0  0  0  0  0  0  0  0  0  0
   15.6280   37.5280   70.1880 N   0  0  0  0  0  0  0  0  0  0  0  0
   14.4860   36.9280   70.4750 C   0  0  0  0  0  3  0  0  0  0  0  0
   14.8050   35.6970   70.9620 N   0  0  0  0  0  0  0  0  0  0  0  0
   22.3810   32.7810   69.4560 N   0  0  0  0  0  0  0  0  0  0  0  0
   22.7720   33.5900   68.3620 C   0  0  0  0  0  0  0  0  0  0  0  0
   21.9220   34.2210   67.6840 O   0  0  0  0  0  0  0  0  0  0  0  0
   23.1550   32.2820   69.9780 H   0  0  0  0  0  0  0  0  0  0  0  0
   24.1990   33.7420   67.9550 C   0  0  1  0  0  3  0  0  0  0  0  0
   25.1150   32.8800   68.7560 C   0  0  0  0  0  1  0  0  0  0  0  0
   24.3230   33.4700   66.4740 C   0  0  0  0  0  2  0  0  0  0  0  0
   24.6470   34.6550   65.7160 N   0  0  0  0  0  0  0  0  0  0  0  0
   24.5500   35.9510   66.1100 C   0  0  0  0  0  3  0  0  0  0  0  0
   24.9600   36.7780   65.0830 C   0  0  0  0  0  0  0  0  0  0  0  0
   25.0520   38.6810   65.0320 Br  0  0  0  0  0  0  0  0  0  0  0  0
   25.3120   35.9120   64.0460 C   0  0  0  0  0  3  0  0  0  0  0  0
   25.1010   34.6610   64.4920 N   0  0  0  0  0  0  0  0  0  0  0  0
  1  2  1  0  0  0  0
  2  3  2  0  0  0  0
  4  1  1  0  0  0  0
  5  2  1  6  0  0  0
  5 14  1  0  0  0  0
  6  5  1  0  0  0  0
  6  7  1  0  0  0  0
  7  8  1  6  0  0  0
  7  9  1  0  0  0  0
  8 10  1  0  0  0  0
  9 13  1  0  0  0  0
 10 11  1  1  0  0  0
 10 12  1  0  0  0  0
 11  5  1  0  0  0  0
 13 12  1  6  0  0  0
 14 13  1  0  0  0  0
 15  7  1  0  0  0  0
 16 15  1  0  0  0  0
 17 18  1  0  0  0  0
 17 16  2  0  0  0  0
 18 19  2  0  0  0  0
 19 15  1  0  0  0  0
 20  1  1  0  0  0  0
 20 23  1  0  0  0  0
 21 20  1  0  0  0  0
 22 21  2  0  0  0  0
 24 21  1  0  0  0  0
 24 25  1  1  0  0  0
 26 24  1  0  0  0  0
 27 28  1  0  0  0  0
 27 26  1  0  0  0  0
 29 28  2  0  0  0  0
 30 29  1  0  0  0  0
 31 32  2  0  0  0  0
 31 29  1  0  0  0  0
 32 27  1  0  0  0  0
M  END
>  <Pose>
1

>  <Score>
-8.733

$$$$
