MODEL 1
REMARK VINA RESULT:    -9.494      0.000      0.000
REMARK INTER + INTRA:         -13.284
REMARK INTER:                 -11.991
REMARK INTRA:                  -1.293
REMARK UNBOUND:                -1.293
REMARK  5 active torsions:
REMARK  status: ('A' for Active; 'I' for Inactive)
REMARK    1  A    between atoms: C_5  and  C_8 
REMARK    2  A    between atoms: C_8  and  O_33 
REMARK       I    between atoms: N_11  and  C_14 
REMARK    3  A    between atoms: C_14  and  C_16 
REMARK    4  A    between atoms: C_16  and  N_17 
REMARK       I    between atoms: N_17  and  C_18 
REMARK    5  A    between atoms: C_20  and  C_21 
ROOT
ATOM      1  C   UNK d   1      23.621  33.844  69.864  0.00  0.00     0.172 C 
ATOM      2  C   UNK d   1      24.613  33.355  70.776  0.00  0.00     0.042 C 
ENDROOT
BRANCH   1   3
ATOM      3  C   UNK d   1      23.879  33.695  68.371  0.00  0.00     0.242 C 
ATOM      4  N   UNK d   1      23.943  34.842  67.544  0.00  0.00    -0.350 N 
ATOM      5  C   UNK d   1      23.828  34.875  66.123  0.00  0.00     0.129 C 
ATOM      6  C   UNK d   1      24.464  36.092  68.133  0.00  0.00     0.129 C 
ATOM      7  C   UNK d   1      23.188  36.112  65.545  0.00  0.00     0.062 C 
ATOM      8  C   UNK d   1      22.903  37.222  66.467  0.00  0.00     0.088 C 
ATOM      9  C   UNK d   1      23.710  37.265  67.741  0.00  0.00     0.062 C 
ATOM     10  O   UNK d   1      24.034  32.568  67.908  0.00  0.00    -0.271 OA
BRANCH   8  11
ATOM     11  C   UNK d   1      23.063  38.566  65.867  0.00  0.00    -0.024 A 
ATOM     12  C   UNK d   1      21.983  39.427  65.994  0.00  0.00     0.012 A 
ATOM     13  C   UNK d   1      22.020  40.738  65.495  0.00  0.00     0.024 A 
ATOM     14  C   UNK d   1      23.152  41.199  64.863  0.00  0.00     0.034 A 
ATOM     15 Cl   UNK d   1      23.224  42.865  64.241  0.00  0.00    -0.084 Cl
ATOM     16  C   UNK d   1      24.230  40.340  64.737  0.00  0.00     0.024 A 
ATOM     17  C   UNK d   1      24.165  39.045  65.237  0.00  0.00     0.012 A 
ENDBRANCH   8  11
BRANCH   8  18
ATOM     18  O   UNK d   1      21.530  37.107  66.842  0.00  0.00    -0.385 OA
ATOM     19  H   UNK d   1      20.946  37.529  66.189  0.00  0.00     0.211 HD
ENDBRANCH   8  18
ENDBRANCH   1   3
BRANCH   1  20
ATOM     20  N   UNK d   1      22.205  33.728  70.122  0.00  0.00    -0.356 N 
ATOM     21  C   UNK d   1      21.366  34.781  70.481  0.00  0.00     0.177 C 
ATOM     22  O   UNK d   1      22.113  35.935  70.616  0.00  0.00    -0.172 OA
ATOM     23  C   UNK d   1      20.023  35.032  70.716  0.00  0.00     0.090 C 
ATOM     24  H   UNK d   1      21.896  32.699  70.062  0.00  0.00     0.162 HD
BRANCH  23  25
ATOM     25  C   UNK d   1      18.784  34.637  70.689  0.00  0.00     0.063 A 
ATOM     26  N   UNK d   1      18.477  33.228  70.965  0.00  0.00    -0.297 N 
ATOM     27  N   UNK d   1      17.190  32.735  71.050  0.00  0.00    -0.265 N 
ATOM     28  H   UNK d   1      19.314  32.598  71.102  0.00  0.00     0.187 HD
ATOM     29  C   UNK d   1      16.078  33.544  70.878  0.00  0.00     0.271 A 
ATOM     30  H   UNK d   1      17.043  31.708  71.252  0.00  0.00     0.190 HD
ATOM     31  O   UNK d   1      14.890  33.138  70.939  0.00  0.00    -0.266 OA
ATOM     32  C   UNK d   1      16.287  34.984  70.594  0.00  0.00     0.046 A 
ATOM     33  C   UNK d   1      17.584  35.434  70.521  0.00  0.00     0.008 A 
ATOM     34  C   UNK d   1      15.185  35.798  70.499  0.00  0.00     0.018 A 
ATOM     35  C   UNK d   1      17.731  36.815  70.353  0.00  0.00     0.015 A 
ATOM     36  C   UNK d   1      16.627  37.650  70.256  0.00  0.00     0.001 A 
ATOM     37  C   UNK d   1      15.351  37.155  70.324  0.00  0.00     0.001 A 
ENDBRANCH  23  25
ENDBRANCH   1  20
TORSDOF 5
ENDMDL
