MODEL 1
REMARK VINA RESULT:    -8.065      0.000      0.000
REMARK INTER + INTRA:         -10.174
REMARK INTER:                  -9.480
REMARK INTRA:                  -0.694
REMARK UNBOUND:                -0.694
REMARK  3 active torsions:
REMARK  status: ('A' for Active; 'I' for Inactive)
REMARK    1  A    between atoms: C_3  and  N_15 
REMARK    2  A    between atoms: N_6  and  C_9 
REMARK       I    between atoms: N_18  and  C_21 
REMARK    3  A    between atoms: C_21  and  C_23 
ROOT
ATOM      1 Cl   UNK d   1      20.622  33.383  70.136  0.00  0.00    -0.076 Cl
ATOM      2  C   UNK d   1      19.009  33.816  70.693  0.00  0.00     0.131 A 
ATOM      3  C   UNK d   1      18.683  35.151  70.733  0.00  0.00     0.077 A 
ATOM      4  C   UNK d   1      17.407  35.458  71.177  0.00  0.00     0.170 A 
ATOM      5  N   UNK d   1      16.564  34.475  71.540  0.00  0.00    -0.174 NA
ATOM      6  N   UNK d   1      16.865  33.187  71.506  0.00  0.00    -0.197 N 
ATOM      7  C   UNK d   1      18.096  32.854  71.080  0.00  0.00     0.292 A 
ATOM      8  O   UNK d   1      18.454  31.644  71.021  0.00  0.00    -0.264 OA
ENDROOT
BRANCH   3   9
ATOM      9  N   UNK d   1      19.630  36.118  70.334  0.00  0.00    -0.375 N 
ATOM     10  C   UNK d   1      19.497  36.850  69.079  0.00  0.00     0.143 C 
ATOM     11  C   UNK d   1      20.664  36.351  68.205  0.00  0.00     0.145 C 
ATOM     12  N   UNK d   1      21.902  36.476  68.910  0.00  0.00    -0.347 N 
ATOM     13  C   UNK d   1      21.855  37.123  70.238  0.00  0.00     0.145 C 
ATOM     14  C   UNK d   1      23.146  36.018  68.402  0.00  0.00     0.248 C 
ATOM     15  C   UNK d   1      20.803  36.472  71.113  0.00  0.00     0.143 C 
ATOM     16  O   UNK d   1      24.218  36.151  69.065  0.00  0.00    -0.270 OA
BRANCH  14  17
ATOM     17  C   UNK d   1      23.280  35.367  67.088  0.00  0.00     0.213 C 
ATOM     18  O   UNK d   1      24.384  35.814  66.428  0.00  0.00    -0.376 OA
ATOM     19  C   UNK d   1      24.873  34.778  65.642  0.00  0.00     0.168 C 
ATOM     20  C   UNK d   1      24.748  33.600  66.598  0.00  0.00     0.029 C 
ATOM     21  C   UNK d   1      23.384  33.863  67.201  0.00  0.00     0.043 C 
ENDBRANCH  14  17
ENDBRANCH   3   9
BRANCH   6  22
ATOM     22  C   UNK d   1      15.920  32.184  71.907  0.00  0.00     0.062 A 
ATOM     23  C   UNK d   1      15.923  31.703  73.200  0.00  0.00     0.032 A 
ATOM     24  C   UNK d   1      15.008  30.726  73.605  0.00  0.00     0.002 A 
ATOM     25  C   UNK d   1      14.089  30.228  72.716  0.00  0.00     0.000 A 
ATOM     26  C   UNK d   1      14.075  30.696  71.427  0.00  0.00     0.002 A 
ATOM     27  C   UNK d   1      14.980  31.657  71.046  0.00  0.00     0.032 A 
ENDBRANCH   6  22
TORSDOF 3
ENDMDL
