MODEL 1
REMARK VINA RESULT:    -8.659      0.000      0.000
REMARK INTER + INTRA:         -11.770
REMARK INTER:                 -11.190
REMARK INTRA:                  -0.580
REMARK UNBOUND:                -0.580
REMARK  5 active torsions:
REMARK  status: ('A' for Active; 'I' for Inactive)
REMARK    1  A    between atoms: C_3  and  N_15 
REMARK    2  A    between atoms: N_6  and  C_9 
REMARK       I    between atoms: N_18  and  C_21 
REMARK    3  A    between atoms: C_21  and  C_23 
REMARK    4  A    between atoms: C_23  and  O_24 
REMARK    5  A    between atoms: O_24  and  C_25 
ROOT
ATOM      1  N   UNK d   1      18.902  34.411  71.737  0.00  0.00    -0.375 N 
ATOM      2  C   UNK d   1      19.427  33.694  72.866  0.00  0.00     0.143 C 
ATOM      3  C   UNK d   1      18.585  32.481  73.193  0.00  0.00     0.145 C 
ATOM      4  N   UNK d   1      17.187  32.707  72.924  0.00  0.00    -0.347 N 
ATOM      5  C   UNK d   1      16.736  34.057  72.689  0.00  0.00     0.145 C 
ATOM      6  C   UNK d   1      17.484  34.589  71.494  0.00  0.00     0.143 C 
ATOM      7  C   UNK d   1      16.281  31.616  72.893  0.00  0.00     0.244 C 
ATOM      8  O   UNK d   1      16.673  30.423  73.099  0.00  0.00    -0.271 OA
ENDROOT
BRANCH   1   9
ATOM      9  C   UNK d   1      19.823  34.979  70.804  0.00  0.00     0.077 A 
ATOM     10  C   UNK d   1      20.557  34.206  69.927  0.00  0.00     0.131 A 
ATOM     11 Cl   UNK d   1      20.355  32.470  69.952  0.00  0.00    -0.076 Cl
ATOM     12  C   UNK d   1      21.432  34.832  69.052  0.00  0.00     0.292 A 
ATOM     13  N   UNK d   1      21.606  36.165  69.009  0.00  0.00    -0.197 N 
ATOM     14  O   UNK d   1      22.101  34.140  68.256  0.00  0.00    -0.264 OA
ATOM     15  N   UNK d   1      20.894  36.890  69.856  0.00  0.00    -0.174 NA
ATOM     16  C   UNK d   1      20.028  36.345  70.731  0.00  0.00     0.170 A 
BRANCH  13  17
ATOM     17  C   UNK d   1      22.525  36.753  68.083  0.00  0.00     0.062 A 
ATOM     18  C   UNK d   1      23.863  36.878  68.397  0.00  0.00     0.032 A 
ATOM     19  C   UNK d   1      24.756  37.444  67.510  0.00  0.00     0.002 A 
ATOM     20  C   UNK d   1      24.357  37.911  66.275  0.00  0.00     0.000 A 
ATOM     21  C   UNK d   1      23.021  37.789  65.955  0.00  0.00     0.002 A 
ATOM     22  C   UNK d   1      22.135  37.224  66.843  0.00  0.00     0.032 A 
ENDBRANCH  13  17
ENDBRANCH   1   9
BRANCH   7  23
ATOM     23  C   UNK d   1      14.831  31.794  72.621  0.00  0.00     0.280 C 
BRANCH  23  24
ATOM     24  O   UNK d   1      14.581  32.072  71.270  0.00  0.00    -0.324 OA
BRANCH  24  25
ATOM     25  C   UNK d   1      13.802  33.154  70.907  0.00  0.00     0.194 A 
ATOM     26  N   UNK d   1      12.550  33.466  71.261  0.00  0.00    -0.103 NA
ATOM     27  O   UNK d   1      12.186  34.571  70.697  0.00  0.00    -0.216 OA
ATOM     28  C   UNK d   1      13.147  35.066  69.944  0.00  0.00     0.079 A 
ATOM     29  C   UNK d   1      14.198  34.178  70.059  0.00  0.00     0.094 A 
ATOM     30  C   UNK d   1      13.023  36.319  69.178  0.00  0.00     0.079 C 
ENDBRANCH  24  25
ENDBRANCH  23  24
ENDBRANCH   7  23
TORSDOF 5
ENDMDL
