MODEL 1
REMARK VINA RESULT:    -8.237      0.000      0.000
REMARK INTER + INTRA:         -12.459
REMARK INTER:                 -11.127
REMARK INTRA:                  -1.332
REMARK UNBOUND:                -1.332
REMARK  6 active torsions:
REMARK  status: ('A' for Active; 'I' for Inactive)
REMARK    1  A    between atoms: C_5  and  C_8 
REMARK    2  A    between atoms: N_9  and  C_28 
REMARK    3  A    between atoms: C_15  and  C_17 
REMARK    4  A    between atoms: C_25  and  O_26 
REMARK    5  A    between atoms: C_28  and  C_29 
REMARK    6  A    between atoms: C_29  and  N_30 
ROOT
ATOM      1  C   UNK d   1      24.390  35.976  68.207  0.00  0.00     0.161 C 
ATOM      2  N   UNK d   1      24.730  34.719  67.609  0.00  0.00    -0.331 N 
ATOM      3  C   UNK d   1      23.559  33.974  67.310  0.00  0.00     0.295 C 
ATOM      4  O   UNK d   1      23.408  32.927  66.635  0.00  0.00    -0.264 OA
ATOM      5  C   UNK d   1      22.408  34.645  67.957  0.00  0.00     0.251 C 
ATOM      6  O   UNK d   1      21.205  34.282  67.919  0.00  0.00    -0.282 OA
ATOM      7  C   UNK d   1      22.975  35.798  68.631  0.00  0.00     0.064 C 
ATOM      8  C   UNK d   1      22.273  36.561  69.479  0.00  0.00     0.153 C 
ATOM      9  O   UNK d   1      22.987  37.646  70.004  0.00  0.00    -0.188 OA
ENDROOT
BRANCH   1  10
ATOM     10  C   UNK d   1      24.644  37.144  67.380  0.00  0.00    -0.030 A 
ATOM     11  C   UNK d   1      25.747  37.934  67.641  0.00  0.00     0.011 A 
ATOM     12  C   UNK d   1      26.073  39.046  66.922  0.00  0.00     0.019 A 
ATOM     13  C   UNK d   1      25.284  39.428  65.876  0.00  0.00     0.011 A 
ATOM     14 Br   UNK d   1      25.787  40.993  64.899  0.00  0.00    -0.051 Br
ATOM     15  C   UNK d   1      24.172  38.683  65.565  0.00  0.00     0.019 A 
ATOM     16  C   UNK d   1      23.864  37.552  66.319  0.00  0.00     0.011 A 
ENDBRANCH   1  10
BRANCH   8  17
ATOM     17  C   UNK d   1      20.885  36.295  69.840  0.00  0.00     0.114 A 
ATOM     18  O   UNK d   1      20.367  35.382  70.586  0.00  0.00    -0.304 OA
ATOM     19  C   UNK d   1      19.073  35.437  70.692  0.00  0.00     0.119 A 
ATOM     20  C   UNK d   1      18.635  36.511  69.933  0.00  0.00     0.003 A 
ATOM     21  C   UNK d   1      18.133  34.680  71.369  0.00  0.00     0.102 A 
ATOM     22  C   UNK d   1      19.811  37.042  69.400  0.00  0.00     0.054 A 
ATOM     23  C   UNK d   1      17.292  36.798  69.868  0.00  0.00     0.014 A 
ATOM     24  C   UNK d   1      16.373  36.032  70.548  0.00  0.00     0.004 A 
ATOM     25  C   UNK d   1      16.803  34.954  71.311  0.00  0.00     0.040 A 
BRANCH  21  26
ATOM     26  O   UNK d   1      18.592  33.617  72.118  0.00  0.00    -0.353 OA
ATOM     27  C   UNK d   1      17.880  33.020  73.193  0.00  0.00     0.210 C 
ENDBRANCH  21  26
ENDBRANCH   8  17
BRANCH   2  28
ATOM     28  C   UNK d   1      26.059  34.244  67.334  0.00  0.00     0.155 C 
BRANCH  28  29
ATOM     29  C   UNK d   1      26.593  33.393  68.472  0.00  0.00     0.254 C 
BRANCH  29  30
ATOM     30  N   UNK d   1      26.124  32.051  68.449  0.00  0.00    -0.077 N 
ATOM     31  C   UNK d   1      27.112  31.046  68.199  0.00  0.00     0.269 C 
ATOM     32  C   UNK d   1      25.372  31.741  69.657  0.00  0.00     0.269 C 
ATOM     33  H   UNK d   1      25.422  31.977  67.653  0.00  0.00     0.279 HD
ENDBRANCH  29  30
ENDBRANCH  28  29
ENDBRANCH   2  28
TORSDOF 6
ENDMDL
