MODEL 1
REMARK VINA RESULT:    -8.742      0.000      0.000
REMARK INTER + INTRA:         -10.312
REMARK INTER:                  -9.764
REMARK INTRA:                  -0.548
REMARK UNBOUND:                -0.548
REMARK  2 active torsions:
REMARK  status: ('A' for Active; 'I' for Inactive)
REMARK    1  A    between atoms: C_7  and  C_11 
REMARK    2  A    between atoms: C_11  and  N_12 
ROOT
ATOM      1  N   UNK d   1      21.634  35.554  69.912  0.00  0.00    -0.328 N 
ATOM      2  C   UNK d   1      22.139  35.811  68.696  0.00  0.00     0.151 A 
ATOM      3  C   UNK d   1      22.773  34.689  68.175  0.00  0.00     0.167 A 
ATOM      4  N   UNK d   1      22.633  33.734  69.124  0.00  0.00    -0.223 NA
ATOM      5  C   UNK d   1      21.958  34.244  70.158  0.00  0.00     0.213 A 
ATOM      6  N   UNK d   1      23.373  34.666  66.967  0.00  0.00    -0.286 N 
ATOM      7  C   UNK d   1      23.336  35.811  66.261  0.00  0.00     0.332 A 
ATOM      8  O   UNK d   1      23.893  35.808  65.128  0.00  0.00    -0.246 OA
ATOM      9  N   UNK d   1      22.739  36.922  66.718  0.00  0.00    -0.269 N 
ATOM     10  C   UNK d   1      22.137  36.948  67.925  0.00  0.00     0.282 A 
ATOM     11  O   UNK d   1      21.579  37.971  68.368  0.00  0.00    -0.265 OA
ATOM     12  C   UNK d   1      22.702  38.156  65.953  0.00  0.00     0.164 C 
ATOM     13  C   UNK d   1      24.016  33.460  66.480  0.00  0.00     0.163 C 
ENDROOT
BRANCH   1  14
ATOM     14  C   UNK d   1      20.882  36.403  70.814  0.00  0.00     0.189 C 
BRANCH  14  15
ATOM     15  C   UNK d   1      19.399  36.236  70.648  0.00  0.00     0.060 A 
ATOM     16  N   UNK d   1      18.795  35.188  71.235  0.00  0.00    -0.233 NA
ATOM     17  C   UNK d   1      17.448  34.996  71.122  0.00  0.00     0.137 A 
ATOM     18  N   UNK d   1      16.688  35.850  70.420  0.00  0.00    -0.272 N 
ATOM     19  C   UNK d   1      16.876  33.899  71.747  0.00  0.00     0.052 A 
ATOM     20  C   UNK d   1      15.357  35.662  70.308  0.00  0.00     0.121 A 
ATOM     21  C   UNK d   1      17.242  36.934  69.802  0.00  0.00     0.255 A 
ATOM     22  C   UNK d   1      14.784  34.581  70.921  0.00  0.00     0.027 A 
ATOM     23 Br   UNK d   1      12.902  34.342  70.745  0.00  0.00    -0.050 Br
ATOM     24  C   UNK d   1      15.525  33.680  71.651  0.00  0.00     0.024 A 
ATOM     25  C   UNK d   1      18.603  37.098  69.935  0.00  0.00     0.103 A 
ATOM     26  O   UNK d   1      16.503  37.699  69.163  0.00  0.00    -0.268 OA
ENDBRANCH  14  15
ENDBRANCH   1  14
TORSDOF 2
ENDMDL
