/Users/jonathanwahrer/Desktop/Msc/3_Semester/Drug_Design_Praktikum/waehrer_HTS_screening/HTS_experiment/out/docking_results/vina_output/4x21/2416_docked.pdbqt
 OpenBabel03212203083D

 34 37  0  0  1  0  0  0  0  0999 V2000
   15.1890   32.1110   71.7800 N   0  0  0  0  0  0  0  0  0  0  0  0
   15.5730   32.0700   73.1170 C   0  0  0  0  0  2  0  0  0  0  0  0
   16.7120   31.0540   73.2780 C   0  0  0  0  0  2  0  0  0  0  0  0
   17.6370   31.1760   72.1490 N   0  0  0  0  0  0  0  0  0  0  0  0
   17.0620   30.9930   70.8310 C   0  0  0  0  0  2  0  0  0  0  0  0
   15.5390   30.9810   71.0240 C   0  0  0  0  0  2  0  0  0  0  0  0
   19.0090   31.4780   72.3730 C   0  0  0  0  0  0  0  0  0  0  0  0
   19.3800   31.6340   73.5600 O   0  0  0  0  0  0  0  0  0  0  0  0
   19.9410   31.6000   71.2530 C   0  0  0  0  0  2  0  0  0  0  0  0
   21.1190   32.5250   71.5220 C   0  0  2  0  0  3  0  0  0  0  0  0
   20.7310   33.8270   71.9970 N   0  0  0  0  0  0  0  0  0  0  0  0
   20.7850   35.1180   71.4070 C   0  0  0  0  0  0  0  0  0  0  0  0
   20.3170   33.8820   72.9800 H   0  0  0  0  0  0  0  0  0  0  0  0
   20.7660   36.1460   72.1340 O   0  0  0  0  0  0  0  0  0  0  0  0
   20.8700   35.4340   69.9650 C   0  0  0  0  0  0  0  0  0  0  0  0
   21.3820   34.6130   68.9550 C   0  0  0  0  0  0  0  0  0  0  0  0
   20.3710   36.6680   69.6320 C   0  0  0  0  0  3  0  0  0  0  0  0
   21.3790   35.0550   67.6620 C   0  0  0  0  0  3  0  0  0  0  0  0
   21.9290   33.3150   69.1340 N   0  0  0  0  0  0  0  0  0  0  0  0
   20.8790   36.3050   67.2950 C   0  0  0  0  0  3  0  0  0  0  0  0
   20.3730   37.1000   68.3240 C   0  0  0  0  0  3  0  0  0  0  0  0
   22.0050   32.5450   70.3380 C   0  0  0  0  0  0  0  0  0  0  0  0
   22.3090   32.8870   68.2910 H   0  0  0  0  0  0  0  0  0  0  0  0
   23.0180   31.7600   70.3500 O   0  0  0  0  0  0  0  0  0  0  0  0
   14.1290   33.2430   71.1970 S   0  0  0  0  0  0  0  0  0  0  0  0
   13.4000   32.6610   70.0000 O   0  0  0  0  0  0  0  0  0  0  0  0
   13.0440   33.6380   72.1780 O   0  0  0  0  0  0  0  0  0  0  0  0
   14.9030   34.7280   70.6320 C   0  0  0  0  0  0  0  0  0  0  0  0
   14.1770   35.7450   70.0570 C   0  0  0  0  0  3  0  0  0  0  0  0
   14.8260   36.8820   69.6280 C   0  0  0  0  0  3  0  0  0  0  0  0
   16.1920   37.0640   69.7440 C   0  0  0  0  0  0  0  0  0  0  0  0
   16.9220   36.0350   70.3250 C   0  0  0  0  0  3  0  0  0  0  0  0
   17.0160   38.4910   69.2080 Cl  0  0  0  0  0  0  0  0  0  0  0  0
   16.2690   34.9020   70.7520 C   0  0  0  0  0  3  0  0  0  0  0  0
  1  2  1  0  0  0  0
  2  3  1  0  0  0  0
  4  7  1  0  0  0  0
  4  3  1  0  0  0  0
  5  6  1  0  0  0  0
  5  4  1  0  0  0  0
  6  1  1  0  0  0  0
  7  8  2  0  0  0  0
  9  7  1  0  0  0  0
 10  9  1  6  0  0  0
 10 11  1  0  0  0  0
 11 13  1  0  0  0  0
 12 11  1  0  0  0  0
 12 14  2  0  0  0  0
 15 12  1  0  0  0  0
 16 19  1  0  0  0  0
 16 15  2  0  0  0  0
 17 15  1  0  0  0  0
 18 16  1  0  0  0  0
 19 22  1  0  0  0  0
 20 18  2  0  0  0  0
 20 21  1  0  0  0  0
 21 17  2  0  0  0  0
 22 24  2  0  0  0  0
 22 10  1  0  0  0  0
 23 19  1  0  0  0  0
 25  1  1  0  0  0  0
 25 27  2  0  0  0  0
 26 25  2  0  0  0  0
 28 34  1  0  0  0  0
 28 25  1  0  0  0  0
 29 28  2  0  0  0  0
 30 31  2  0  0  0  0
 30 29  1  0  0  0  0
 31 32  1  0  0  0  0
 32 34  2  0  0  0  0
 33 31  1  0  0  0  0
M  END
>  <Pose>
1

>  <Score>
-9.317

$$$$
