/Users/jonathanwahrer/Desktop/Msc/3_Semester/Drug_Design_Praktikum/waehrer_HTS_screening/HTS_experiment/out/docking_results/vina_output/4x21/2419_docked.pdbqt
 OpenBabel03212203093D

 32 36  0  0  1  0  0  0  0  0999 V2000
   19.6910   34.1700   70.1960 C   0  0  0  0  0  0  0  0  0  0  0  0
   20.6950   33.4590   69.5170 C   0  0  0  0  0  3  0  0  0  0  0  0
   21.4290   34.3580   68.8730 N   0  0  0  0  0  0  0  0  0  0  0  0
   22.5160   34.4050   68.0430 C   0  0  0  0  0  0  0  0  0  0  0  0
   22.6980   35.7360   67.7610 C   0  0  0  0  0  0  0  0  0  0  0  0
   21.7550   36.4080   68.4030 N   0  0  0  0  0  0  0  0  0  0  0  0
   20.9520   35.5580   69.1050 C   0  0  1  0  0  3  0  0  0  0  0  0
   19.8670   35.4690   69.9300 N   0  0  0  0  0  0  0  0  0  0  0  0
   23.7330   36.1680   66.9280 C   0  0  0  0  0  3  0  0  0  0  0  0
   24.5950   35.2450   66.3750 C   0  0  0  0  0  3  0  0  0  0  0  0
   24.3910   33.9170   66.6740 C   0  0  0  0  0  3  0  0  0  0  0  0
   23.3630   33.4790   67.5010 C   0  0  0  0  0  3  0  0  0  0  0  0
   21.6620   37.4400   68.3470 H   0  0  0  0  0  0  0  0  0  0  0  0
   19.1410   36.6340   70.3330 C   0  0  0  0  0  2  0  0  0  0  0  0
   18.2200   37.2350   69.3490 C   0  0  0  0  0  2  0  0  0  0  0  0
   16.7740   37.3240   69.6820 C   0  0  0  0  0  2  0  0  0  0  0  0
   16.4010   36.3990   70.7290 N   0  0  0  0  0  4  0  0  0  0  0  0
   17.1420   35.8080   71.0990 H   0  0  0  0  0  0  0  0  0  0  0  0
   16.1330   37.0250   71.5740 H   0  0  0  0  0  0  0  0  0  0  0  0
   15.2100   35.6580   70.4330 C   0  0  0  0  0  3  0  0  0  0  0  0
   14.6100   34.9250   71.6000 C   0  0  0  0  0  2  0  0  0  0  0  0
   13.6930   33.8490   71.0000 C   0  0  0  0  0  2  0  0  0  0  0  0
   12.6130   34.5230   70.2270 C   0  0  0  0  0  2  0  0  0  0  0  0
   13.1220   35.5110   69.2030 C   0  0  0  0  0  2  0  0  0  0  0  0
   14.0890   36.5090   69.8510 C   0  0  0  0  0  2  0  0  0  0  0  0
   18.6800   33.5210   71.0020 C   0  0  0  0  0  0  0  0  0  0  0  0
   17.8760   32.5670   70.4120 C   0  0  0  0  0  3  0  0  0  0  0  0
   16.9070   31.9040   71.1090 C   0  0  0  0  0  3  0  0  0  0  0  0
   16.6860   32.1540   72.4280 C   0  0  0  0  0  0  0  0  0  0  0  0
   15.3210   31.2220   73.4180 Br  0  0  0  0  0  0  0  0  0  0  0  0
   17.4610   33.0910   73.0510 C   0  0  0  0  0  3  0  0  0  0  0  0
   18.4620   33.7700   72.3140 C   0  0  0  0  0  3  0  0  0  0  0  0
  1 26  1  0  0  0  0
  2  1  2  0  0  0  0
  3  7  1  0  0  0  0
  3  2  1  0  0  0  0
  4  3  1  0  0  0  0
  5  4  1  0  0  0  0
  5  6  1  0  0  0  0
  7  6  1  6  0  0  0
  7  8  1  0  0  0  0
  8  1  1  0  0  0  0
  8 14  1  0  0  0  0
  9  5  2  0  0  0  0
 10 11  2  0  0  0  0
 10  9  1  0  0  0  0
 11 12  1  0  0  0  0
 12  4  2  0  0  0  0
 13  6  1  0  0  0  0
 15 16  1  0  0  0  0
 15 14  1  0  0  0  0
 16 17  1  0  0  0  0
 17 18  1  0  0  0  0
 17 19  1  0  0  0  0
 20 17  1  0  0  0  0
 20 21  1  0  0  0  0
 22 21  1  0  0  0  0
 23 22  1  0  0  0  0
 24 25  1  0  0  0  0
 24 23  1  0  0  0  0
 25 20  1  0  0  0  0
 26 32  1  0  0  0  0
 27 26  2  0  0  0  0
 27 28  1  0  0  0  0
 28 29  2  0  0  0  0
 29 31  1  0  0  0  0
 29 30  1  0  0  0  0
 32 31  2  0  0  0  0
M  END
>  <Pose>
1

>  <Score>
-8.796

$$$$
