MODEL 1
REMARK VINA RESULT:    -8.051      0.000      0.000
REMARK INTER + INTRA:         -11.437
REMARK INTER:                 -10.405
REMARK INTRA:                  -1.032
REMARK UNBOUND:                -1.032
REMARK  5 active torsions:
REMARK  status: ('A' for Active; 'I' for Inactive)
REMARK    1  A    between atoms: C_7  and  N_11 
REMARK    2  A    between atoms: C_13  and  C_17 
REMARK       I    between atoms: C_17  and  N_19 
REMARK    3  A    between atoms: N_19  and  C_20 
REMARK    4  A    between atoms: C_20  and  C_21 
REMARK    5  A    between atoms: C_21  and  N_22 
ROOT
ATOM      1  N   UNK d   1      14.870  31.391  71.913  0.00  0.00    -0.299 N 
ATOM      2  C   UNK d   1      15.709  30.541  71.070  0.00  0.00     0.148 C 
ATOM      3  C   UNK d   1      16.775  30.059  72.028  0.00  0.00     0.105 C 
ATOM      4  C   UNK d   1      15.962  29.738  73.277  0.00  0.00     0.119 C 
ATOM      5  C   UNK d   1      14.806  30.695  73.161  0.00  0.00     0.226 C 
ATOM      6  O   UNK d   1      13.904  30.867  74.034  0.00  0.00    -0.273 OA
ENDROOT
BRANCH   3   7
ATOM      7  C   UNK d   1      17.773  31.116  72.322  0.00  0.00     0.223 C 
ATOM      8  O   UNK d   1      17.760  31.643  73.462  0.00  0.00    -0.273 OA
ATOM      9  N   UNK d   1      18.728  31.546  71.373  0.00  0.00    -0.359 N 
ATOM     10  H   UNK d   1      18.707  31.083  70.429  0.00  0.00     0.162 HD
BRANCH   9  11
ATOM     11  C   UNK d   1      19.701  32.571  71.652  0.00  0.00     0.152 C 
BRANCH  11  12
ATOM     12  C   UNK d   1      19.943  33.391  70.402  0.00  0.00     0.292 C 
BRANCH  12  13
ATOM     13  N   UNK d   1      20.942  34.415  70.587  0.00  0.00     0.094 N 
ATOM     14  C   UNK d   1      21.013  35.183  69.349  0.00  0.00     0.298 C 
ATOM     15  C   UNK d   1      19.934  36.262  69.332  0.00  0.00     0.198 C 
ATOM     16  O   UNK d   1      20.152  37.245  70.269  0.00  0.00    -0.388 OA
ATOM     17  C   UNK d   1      20.957  36.754  71.270  0.00  0.00     0.198 C 
ATOM     18  C   UNK d   1      20.598  35.333  71.650  0.00  0.00     0.298 C 
ENDBRANCH  12  13
ENDBRANCH  11  12
ENDBRANCH   9  11
ENDBRANCH   3   7
BRANCH   1  19
ATOM     19  C   UNK d   1      14.263  32.622  71.556  0.00  0.00     0.165 A 
ATOM     20  N   UNK d   1      12.970  32.948  71.428  0.00  0.00    -0.155 NA
ATOM     21  N   UNK d   1      12.846  34.217  71.070  0.00  0.00    -0.275 N 
ATOM     22  C   UNK d   1      14.082  34.778  70.948  0.00  0.00     0.065 A 
ATOM     23  H   UNK d   1      11.987  34.793  70.884  0.00  0.00     0.189 HD
ATOM     24  C   UNK d   1      14.553  36.013  70.616  0.00  0.00     0.051 A 
ATOM     25  C   UNK d   1      14.972  33.778  71.253  0.00  0.00     0.040 A 
ATOM     26  C   UNK d   1      15.903  36.285  70.578  0.00  0.00     0.013 A 
ATOM     27 Br   UNK d   1      16.537  38.018  70.111  0.00  0.00    -0.051 Br
ATOM     28  C   UNK d   1      16.813  35.273  70.887  0.00  0.00     0.020 A 
ATOM     29  C   UNK d   1      16.339  34.025  71.223  0.00  0.00     0.019 A 
ENDBRANCH   1  19
TORSDOF 5
ENDMDL
