MODEL 1
REMARK VINA RESULT:    -7.975      0.000      0.000
REMARK INTER + INTRA:          -9.558
REMARK INTER:                  -8.907
REMARK INTRA:                  -0.650
REMARK UNBOUND:                -0.650
REMARK  2 active torsions:
REMARK  status: ('A' for Active; 'I' for Inactive)
REMARK    1  A    between atoms: C_4  and  C_8 
REMARK       I    between atoms: C_8  and  N_10 
REMARK    2  A    between atoms: N_13  and  C_16 
ROOT
ATOM      1  C   UNK d   1      21.099  36.804  69.203  0.00  0.00     0.204 C 
ATOM      2  O   UNK d   1      21.608  37.383  70.275  0.00  0.00    -0.170 OA
ATOM      3  N   UNK d   1      21.937  35.966  68.484  0.00  0.00    -0.355 N 
ATOM      4  C   UNK d   1      23.339  35.827  68.947  0.00  0.00     0.145 C 
ATOM      5  C   UNK d   1      24.200  36.319  67.815  0.00  0.00     0.144 C 
ATOM      6  N   UNK d   1      23.491  36.626  66.614  0.00  0.00    -0.362 N 
ATOM      7  C   UNK d   1      22.286  35.936  66.175  0.00  0.00     0.144 C 
ATOM      8  C   UNK d   1      21.661  35.182  67.338  0.00  0.00     0.145 C 
ENDROOT
BRANCH   1   9
ATOM      9  C   UNK d   1      19.723  37.170  68.987  0.00  0.00     0.089 A 
ATOM     10  N   UNK d   1      19.096  37.618  67.899  0.00  0.00    -0.342 N 
ATOM     11  C   UNK d   1      17.770  37.827  68.128  0.00  0.00     0.126 A 
ATOM     12  H   UNK d   1      19.475  37.827  66.953  0.00  0.00     0.167 HD
ATOM     13 Cl   UNK d   1      16.552  38.405  67.011  0.00  0.00    -0.063 Cl
ATOM     14  C   UNK d   1      17.505  37.502  69.431  0.00  0.00     0.074 A 
ATOM     15  C   UNK d   1      18.711  37.099  69.953  0.00  0.00     0.061 A 
ATOM     16 Cl   UNK d   1      15.953  37.589  70.236  0.00  0.00    -0.081 Cl
ENDBRANCH   1   9
BRANCH   6  17
ATOM     17  C   UNK d   1      23.956  37.667  65.764  0.00  0.00     0.142 A 
ATOM     18  N   UNK d   1      25.100  37.537  65.067  0.00  0.00    -0.224 NA
ATOM     19  C   UNK d   1      25.559  38.518  64.255  0.00  0.00     0.237 A 
ATOM     20  N   UNK d   1      24.874  39.666  64.122  0.00  0.00    -0.222 NA
ATOM     21  C   UNK d   1      23.723  39.874  64.783  0.00  0.00     0.162 A 
ATOM     22  N   UNK d   1      22.864  40.909  64.823  0.00  0.00    -0.256 N 
ATOM     23  C   UNK d   1      23.263  38.849  65.618  0.00  0.00     0.076 A 
ATOM     24  N   UNK d   1      21.891  40.573  65.645  0.00  0.00    -0.182 NA
ATOM     25  C   UNK d   1      22.958  42.180  64.105  0.00  0.00     0.182 C 
ATOM     26  C   UNK d   1      22.096  39.333  66.147  0.00  0.00     0.158 A 
ENDBRANCH   6  17
TORSDOF 2
ENDMDL
