/Users/jonathanwahrer/Desktop/Msc/3_Semester/Drug_Design_Praktikum/waehrer_HTS_screening/HTS_experiment/out/docking_results/vina_output/4x21/2432_docked.pdbqt
 OpenBabel03212203093D

 26 29  0  0  0  0  0  0  0  0999 V2000
   21.0990   36.8040   69.2030 C   0  0  0  0  0  0  0  0  0  0  0  0
   21.6080   37.3830   70.2750 O   0  0  0  0  0  0  0  0  0  0  0  0
   21.9370   35.9660   68.4840 N   0  0  0  0  0  0  0  0  0  0  0  0
   23.3390   35.8270   68.9470 C   0  0  0  0  0  2  0  0  0  0  0  0
   24.2000   36.3190   67.8150 C   0  0  0  0  0  2  0  0  0  0  0  0
   23.4910   36.6260   66.6140 N   0  0  0  0  0  0  0  0  0  0  0  0
   22.2860   35.9360   66.1750 C   0  0  0  0  0  2  0  0  0  0  0  0
   21.6610   35.1820   67.3380 C   0  0  0  0  0  2  0  0  0  0  0  0
   19.7230   37.1700   68.9870 C   0  0  0  0  0  0  0  0  0  0  0  0
   19.0960   37.6180   67.8990 N   0  0  0  0  0  0  0  0  0  0  0  0
   17.7700   37.8270   68.1280 C   0  0  0  0  0  0  0  0  0  0  0  0
   19.4750   37.8270   66.9530 H   0  0  0  0  0  0  0  0  0  0  0  0
   16.5520   38.4050   67.0110 Cl  0  0  0  0  0  0  0  0  0  0  0  0
   17.5050   37.5020   69.4310 C   0  0  0  0  0  0  0  0  0  0  0  0
   18.7110   37.0990   69.9530 C   0  0  0  0  0  3  0  0  0  0  0  0
   15.9530   37.5890   70.2360 Cl  0  0  0  0  0  0  0  0  0  0  0  0
   23.9560   37.6670   65.7640 C   0  0  0  0  0  0  0  0  0  0  0  0
   25.1000   37.5370   65.0670 N   0  0  0  0  0  0  0  0  0  0  0  0
   25.5590   38.5180   64.2550 C   0  0  0  0  0  3  0  0  0  0  0  0
   24.8740   39.6660   64.1220 N   0  0  0  0  0  0  0  0  0  0  0  0
   23.7230   39.8740   64.7830 C   0  0  0  0  0  0  0  0  0  0  0  0
   22.8640   40.9090   64.8230 N   0  0  0  0  0  0  0  0  0  0  0  0
   23.2630   38.8490   65.6180 C   0  0  0  0  0  0  0  0  0  0  0  0
   21.8910   40.5730   65.6450 N   0  0  0  0  0  0  0  0  0  0  0  0
   22.9580   42.1800   64.1050 C   0  0  0  0  0  1  0  0  0  0  0  0
   22.0960   39.3330   66.1470 C   0  0  0  0  0  3  0  0  0  0  0  0
  1  2  2  0  0  0  0
  3  4  1  0  0  0  0
  3  1  1  0  0  0  0
  5  4  1  0  0  0  0
  6  5  1  0  0  0  0
  7  6  1  0  0  0  0
  7  8  1  0  0  0  0
  8  3  1  0  0  0  0
  9  1  1  0  0  0  0
  9 15  2  0  0  0  0
 10 11  1  0  0  0  0
 10  9  1  0  0  0  0
 11 14  2  0  0  0  0
 12 10  1  0  0  0  0
 13 11  1  0  0  0  0
 14 15  1  0  0  0  0
 14 16  1  0  0  0  0
 17  6  1  0  0  0  0
 18 17  2  0  0  0  0
 19 18  1  0  0  0  0
 20 19  2  0  0  0  0
 20 21  1  0  0  0  0
 21 22  1  0  0  0  0
 21 23  2  0  0  0  0
 22 24  1  0  0  0  0
 23 17  1  0  0  0  0
 23 26  1  0  0  0  0
 24 26  2  0  0  0  0
 25 22  1  0  0  0  0
M  END
>  <Pose>
1

>  <Score>
-7.975

$$$$
