MODEL 1
REMARK VINA RESULT:    -8.364      0.000      0.000
REMARK INTER + INTRA:         -12.449
REMARK INTER:                 -10.809
REMARK INTRA:                  -1.640
REMARK UNBOUND:                -1.640
REMARK  5 active torsions:
REMARK  status: ('A' for Active; 'I' for Inactive)
REMARK    1  A    between atoms: C_5  and  C_8 
REMARK    2  A    between atoms: N_15  and  C_16 
REMARK    3  A    between atoms: C_16  and  C_17 
REMARK    4  A    between atoms: C_17  and  C_18 
REMARK    5  A    between atoms: C_18  and  N_19 
ROOT
ATOM      1  C   UNK d   1      19.002  34.564  70.533  0.00  0.00     0.078 A 
ATOM      2  C   UNK d   1      20.096  34.019  69.838  0.00  0.00     0.146 A 
ATOM      3  N   UNK d   1      20.732  34.996  69.195  0.00  0.00    -0.153 N 
ATOM      4  C   UNK d   1      21.787  35.239  68.375  0.00  0.00     0.083 A 
ATOM      5  C   UNK d   1      21.786  36.569  68.124  0.00  0.00     0.077 A 
ATOM      6  N   UNK d   1      20.747  37.096  68.788  0.00  0.00    -0.189 N 
ATOM      7  C   UNK d   1      20.081  36.131  69.460  0.00  0.00     0.692 A 
ATOM      8  N   UNK d   1      19.012  35.881  70.285  0.00  0.00    -0.180 N 
ATOM      9  C   UNK d   1      22.752  37.132  67.309  0.00  0.00     0.032 A 
ATOM     10  C   UNK d   1      23.737  36.347  66.733  0.00  0.00     0.002 A 
ATOM     11  C   UNK d   1      23.738  34.982  66.991  0.00  0.00     0.002 A 
ATOM     12  C   UNK d   1      22.762  34.456  67.807  0.00  0.00     0.033 A 
ATOM     13  H   UNK d   1      20.473  38.113  68.784  0.00  0.00     0.184 HD
ENDROOT
BRANCH   8  14
ATOM     14  C   UNK d   1      18.103  36.883  70.732  0.00  0.00     0.149 C 
BRANCH  14  15
ATOM     15  C   UNK d   1      16.976  37.210  69.786  0.00  0.00     0.048 C 
BRANCH  15  16
ATOM     16  C   UNK d   1      15.917  36.211  69.643  0.00  0.00     0.236 C 
BRANCH  16  17
ATOM     17  N   UNK d   1      14.728  36.317  70.436  0.00  0.00    -0.071 N 
ATOM     18  C   UNK d   1      13.526  36.404  69.627  0.00  0.00     0.235 C 
ATOM     19  C   UNK d   1      12.904  35.128  69.244  0.00  0.00     0.028 C 
ATOM     20  C   UNK d   1      13.398  33.910  69.932  0.00  0.00     0.003 C 
ATOM     21  C   UNK d   1      13.795  34.206  71.335  0.00  0.00     0.028 C 
ATOM     22  C   UNK d   1      14.642  35.409  71.524  0.00  0.00     0.235 C 
ATOM     23  H   UNK d   1      14.778  37.274  70.852  0.00  0.00     0.279 HD
ENDBRANCH  16  17
ENDBRANCH  15  16
ENDBRANCH  14  15
ENDBRANCH   8  14
BRANCH   1  24
ATOM     24  C   UNK d   1      18.094  33.723  71.322  0.00  0.00    -0.007 A 
ATOM     25  C   UNK d   1      17.406  32.701  70.670  0.00  0.00     0.015 A 
ATOM     26  C   UNK d   1      16.534  31.838  71.304  0.00  0.00     0.020 A 
ATOM     27  C   UNK d   1      16.303  31.956  72.643  0.00  0.00     0.011 A 
ATOM     28 Br   UNK d   1      15.115  30.795  73.559  0.00  0.00    -0.051 Br
ATOM     29  C   UNK d   1      16.964  32.949  73.313  0.00  0.00     0.020 A 
ATOM     30  C   UNK d   1      17.856  33.832  72.657  0.00  0.00     0.015 A 
ENDBRANCH   1  24
TORSDOF 5
ENDMDL
