MODEL 1
REMARK VINA RESULT:    -8.700      0.000      0.000
REMARK INTER + INTRA:         -13.183
REMARK INTER:                 -11.752
REMARK INTRA:                  -1.431
REMARK UNBOUND:                -1.431
REMARK  6 active torsions:
REMARK  status: ('A' for Active; 'I' for Inactive)
REMARK    1  A    between atoms: S_1  and  N_4 
REMARK    2  A    between atoms: N_7  and  C_10 
REMARK    3  A    between atoms: C_10  and  C_11 
REMARK    4  A    between atoms: C_16  and  C_19 
REMARK    5  A    between atoms: C_19  and  N_20 
REMARK    6  A    between atoms: N_23  and  C_26 
ROOT
ATOM      1  C   UNK d   1      21.078  37.231  67.941  0.00  0.00     0.178 C 
ATOM      2  C   UNK d   1      19.637  37.601  68.053  0.00  0.00     0.276 C 
ATOM      3  O   UNK d   1      18.965  38.004  67.074  0.00  0.00    -0.264 OA
ATOM      4  O   UNK d   1      19.119  37.457  69.337  0.00  0.00    -0.290 OA
ATOM      5  C   UNK d   1      19.576  36.551  70.272  0.00  0.00     0.158 C 
ATOM      6  C   UNK d   1      20.600  35.744  69.918  0.00  0.00     0.028 C 
ATOM      7  C   UNK d   1      21.154  35.872  68.588  0.00  0.00     0.174 C 
ATOM      8  O   UNK d   1      21.672  34.917  67.984  0.00  0.00    -0.292 OA
ENDROOT
BRANCH   6   9
ATOM      9  C   UNK d   1      21.132  34.742  70.851  0.00  0.00     0.161 C 
BRANCH   9  10
ATOM     10  N   UNK d   1      20.224  33.748  71.254  0.00  0.00    -0.405 N 
ATOM     11  C   UNK d   1      19.541  32.968  70.313  0.00  0.00     0.137 C 
ATOM     12  C   UNK d   1      18.263  32.365  70.939  0.00  0.00     0.142 C 
ATOM     13  N   UNK d   1      17.616  33.471  71.596  0.00  0.00    -0.378 N 
ATOM     14  C   UNK d   1      18.314  33.959  72.777  0.00  0.00     0.142 C 
ATOM     15  C   UNK d   1      19.808  33.720  72.608  0.00  0.00     0.137 C 
BRANCH  13  16
ATOM     16  C   UNK d   1      16.416  34.041  71.127  0.00  0.00     0.031 A 
ATOM     17  C   UNK d   1      16.159  35.393  71.128  0.00  0.00     0.053 A 
ATOM     18  C   UNK d   1      14.969  35.896  70.654  0.00  0.00     0.036 A 
ATOM     19  C   UNK d   1      13.976  35.086  70.156  0.00  0.00     0.024 A 
ATOM     20 Cl   UNK d   1      14.702  37.618  70.682  0.00  0.00    -0.084 Cl
ATOM     21  C   UNK d   1      14.203  33.734  70.142  0.00  0.00     0.004 A 
ATOM     22  C   UNK d   1      15.401  33.223  70.620  0.00  0.00     0.029 A 
ENDBRANCH  13  16
ENDBRANCH   9  10
ENDBRANCH   6   9
BRANCH   1  23
ATOM     23  C   UNK d   1      21.569  37.198  66.537  0.00  0.00     0.139 C 
BRANCH  23  24
ATOM     24  N   UNK d   1      22.683  38.071  66.414  0.00  0.00    -0.409 N 
ATOM     25  C   UNK d   1      22.356  39.456  66.179  0.00  0.00     0.132 C 
ATOM     26  C   UNK d   1      22.780  39.783  64.760  0.00  0.00     0.126 C 
ATOM     27  N   UNK d   1      24.203  39.786  64.698  0.00  0.00    -0.208 NA
ATOM     28  C   UNK d   1      24.778  38.768  65.515  0.00  0.00     0.126 C 
ATOM     29  C   UNK d   1      23.823  37.591  65.727  0.00  0.00     0.132 C 
BRANCH  27  30
ATOM     30  S   UNK d   1      24.918  41.320  64.848  0.00  0.00     0.207 S 
ATOM     31  O   UNK d   1      25.948  41.609  63.777  0.00  0.00    -0.212 OA
ATOM     32  O   UNK d   1      23.827  42.368  64.669  0.00  0.00    -0.212 OA
ATOM     33  C   UNK d   1      25.659  41.607  66.411  0.00  0.00     0.180 C 
ENDBRANCH  27  30
ENDBRANCH  23  24
ENDBRANCH   1  23
TORSDOF 6
ENDMDL
