/Users/jonathanwahrer/Desktop/Msc/3_Semester/Drug_Design_Praktikum/waehrer_HTS_screening/HTS_experiment/out/docking_results/vina_output/4x21/2447_docked.pdbqt
 OpenBabel03212203103D

 33 36  0  0  1  0  0  0  0  0999 V2000
   21.0780   37.2310   67.9410 C   0  0  1  0  0  3  0  0  0  0  0  0
   19.6370   37.6010   68.0530 C   0  0  0  0  0  0  0  0  0  0  0  0
   18.9650   38.0040   67.0740 O   0  0  0  0  0  0  0  0  0  0  0  0
   19.1190   37.4570   69.3370 O   0  0  0  0  0  0  0  0  0  0  0  0
   19.5760   36.5510   70.2720 C   0  0  0  0  0  3  0  0  0  0  0  0
   20.6000   35.7440   69.9180 C   0  0  0  0  0  0  0  0  0  0  0  0
   21.1540   35.8720   68.5880 C   0  0  0  0  0  0  0  0  0  0  0  0
   21.6720   34.9170   67.9840 O   0  0  0  0  0  0  0  0  0  0  0  0
   21.1320   34.7420   70.8510 C   0  0  0  0  0  2  0  0  0  0  0  0
   20.2240   33.7480   71.2540 N   0  0  0  0  0  0  0  0  0  0  0  0
   19.5410   32.9680   70.3130 C   0  0  0  0  0  2  0  0  0  0  0  0
   18.2630   32.3650   70.9390 C   0  0  0  0  0  2  0  0  0  0  0  0
   17.6160   33.4710   71.5960 N   0  0  0  0  0  0  0  0  0  0  0  0
   18.3140   33.9590   72.7770 C   0  0  0  0  0  2  0  0  0  0  0  0
   19.8080   33.7200   72.6080 C   0  0  0  0  0  2  0  0  0  0  0  0
   16.4160   34.0410   71.1270 C   0  0  0  0  0  0  0  0  0  0  0  0
   16.1590   35.3930   71.1280 C   0  0  0  0  0  3  0  0  0  0  0  0
   14.9690   35.8960   70.6540 C   0  0  0  0  0  0  0  0  0  0  0  0
   13.9760   35.0860   70.1560 C   0  0  0  0  0  3  0  0  0  0  0  0
   14.7020   37.6180   70.6820 Cl  0  0  0  0  0  0  0  0  0  0  0  0
   14.2030   33.7340   70.1420 C   0  0  0  0  0  3  0  0  0  0  0  0
   15.4010   33.2230   70.6200 C   0  0  0  0  0  3  0  0  0  0  0  0
   21.5690   37.1980   66.5370 C   0  0  0  0  0  2  0  0  0  0  0  0
   22.6830   38.0710   66.4140 N   0  0  0  0  0  0  0  0  0  0  0  0
   22.3560   39.4560   66.1790 C   0  0  0  0  0  2  0  0  0  0  0  0
   22.7800   39.7830   64.7600 C   0  0  0  0  0  2  0  0  0  0  0  0
   24.2030   39.7860   64.6980 N   0  0  0  0  0  0  0  0  0  0  0  0
   24.7780   38.7680   65.5150 C   0  0  0  0  0  2  0  0  0  0  0  0
   23.8230   37.5910   65.7270 C   0  0  0  0  0  2  0  0  0  0  0  0
   24.9180   41.3200   64.8480 S   0  0  0  0  0  0  0  0  0  0  0  0
   25.9480   41.6090   63.7770 O   0  0  0  0  0  0  0  0  0  0  0  0
   23.8270   42.3680   64.6690 O   0  0  0  0  0  0  0  0  0  0  0  0
   25.6590   41.6070   66.4110 C   0  0  0  0  0  1  0  0  0  0  0  0
  1 23  1  6  0  0  0
  1  2  1  0  0  0  0
  1  7  1  0  0  0  0
  2  4  1  0  0  0  0
  3  2  2  0  0  0  0
  4  5  1  0  0  0  0
  6  5  2  0  0  0  0
  6  9  1  0  0  0  0
  7  6  1  0  0  0  0
  8  7  2  0  0  0  0
  9 10  1  0  0  0  0
 10 15  1  0  0  0  0
 11 12  1  0  0  0  0
 11 10  1  0  0  0  0
 12 13  1  0  0  0  0
 13 14  1  0  0  0  0
 15 14  1  0  0  0  0
 16 17  1  0  0  0  0
 16 13  1  0  0  0  0
 18 20  1  0  0  0  0
 18 17  2  0  0  0  0
 19 18  1  0  0  0  0
 21 19  2  0  0  0  0
 21 22  1  0  0  0  0
 22 16  2  0  0  0  0
 24 23  1  0  0  0  0
 25 24  1  0  0  0  0
 26 25  1  0  0  0  0
 27 26  1  0  0  0  0
 27 30  1  0  0  0  0
 27 28  1  0  0  0  0
 28 29  1  0  0  0  0
 29 24  1  0  0  0  0
 30 33  1  0  0  0  0
 31 30  2  0  0  0  0
 32 30  2  0  0  0  0
M  END
>  <Pose>
1

>  <Score>
-8.700

$$$$
