/Users/jonathanwahrer/Desktop/Msc/3_Semester/Drug_Design_Praktikum/waehrer_HTS_screening/HTS_experiment/out/docking_results/vina_output/5l4q/0003_docked.pdbqt
 OpenBabel03142213543D

 38 41  0  0  0  0  0  0  0  0999 V2000
  -21.7510   -1.3120  -34.6340 C   0  0  0  0  0  0  0  0  0  0  0  0
  -22.8600   -2.0850  -34.8640 N   0  0  0  0  0  0  0  0  0  0  0  0
  -23.2700   -1.9020  -36.0890 N   0  0  0  0  0  0  0  0  0  0  0  0
  -22.5020   -1.0380  -36.7310 N   0  0  0  0  0  0  0  0  0  0  0  0
  -21.5570   -0.6570  -35.8550 C   0  0  0  0  0  0  0  0  0  0  0  0
  -21.0200   -1.2480  -33.3830 C   0  0  0  0  0  0  0  0  0  0  0  0
  -21.0590   -0.2720  -32.3960 N   0  0  0  0  0  0  0  0  0  0  0  0
  -21.6330    0.6040  -32.3910 H   0  0  0  0  0  0  0  0  0  0  0  0
  -20.2290   -2.2450  -33.1760 O   0  0  0  0  0  0  0  0  0  0  0  0
  -20.2200   -0.4690  -31.2470 N   0  0  0  0  0  0  0  0  0  0  0  0
  -20.7380   -0.3950  -30.0730 C   0  0  0  0  0  3  0  0  0  0  0  0
  -19.9800   -0.5790  -28.8450 C   0  0  0  0  0  0  0  0  0  0  0  0
  -19.9800   -1.7780  -28.1840 C   0  0  0  0  0  3  0  0  0  0  0  0
  -19.2610   -1.9730  -27.0090 C   0  0  0  0  0  0  0  0  0  0  0  0
  -18.5140   -0.9250  -26.4760 C   0  0  0  0  0  0  0  0  0  0  0  0
  -19.2900   -3.6500  -26.1260 Br  0  0  0  0  0  0  0  0  0  0  0  0
  -18.5090    0.2730  -27.1290 C   0  0  0  0  0  0  0  0  0  0  0  0
  -17.5050    1.7240  -26.4390 Br  0  0  0  0  0  0  0  0  0  0  0  0
  -19.2370    0.4490  -28.3070 C   0  0  0  0  0  0  0  0  0  0  0  0
  -17.8050   -1.1400  -25.3040 O   0  0  0  0  0  0  0  0  0  0  0  0
  -17.8810   -0.5050  -24.5270 H   0  0  0  0  0  0  0  0  0  0  0  0
  -19.2450    1.6580  -28.9840 O   0  0  0  0  0  0  0  0  0  0  0  0
  -19.6690    2.4750  -28.5630 H   0  0  0  0  0  0  0  0  0  0  0  0
  -20.4470    0.2680  -36.1040 C   0  0  0  0  0  2  0  0  0  0  0  0
  -20.6130    1.5890  -35.4920 N   0  0  0  0  0  0  0  0  0  0  0  0
  -20.7540    2.5900  -36.5690 C   0  0  0  0  0  2  0  0  0  0  0  0
  -19.7030    2.3710  -37.6010 C   0  0  0  0  0  2  0  0  0  0  0  0
  -18.4660    2.3610  -37.0050 O   0  0  0  0  0  0  0  0  0  0  0  0
  -18.4670    2.7480  -35.6900 C   0  0  0  0  0  2  0  0  0  0  0  0
  -19.3540    1.9300  -34.7890 C   0  0  0  0  0  2  0  0  0  0  0  0
  -22.6860   -0.6680  -38.0860 C   0  0  0  0  0  0  0  0  0  0  0  0
  -22.9020    0.5530  -38.6190 N   0  0  0  0  0  0  0  0  0  0  0  0
  -23.0060    0.4570  -39.9180 O   0  0  0  0  0  0  0  0  0  0  0  0
  -22.8690   -0.7890  -40.2950 N   0  0  0  0  0  0  0  0  0  0  0  0
  -22.6680   -1.5150  -39.1830 C   0  0  0  0  0  0  0  0  0  0  0  0
  -22.4740   -2.9130  -39.1720 N   0  0  0  0  0  0  0  0  0  0  0  0
  -21.7860   -3.3280  -39.8260 H   0  0  0  0  0  0  0  0  0  0  0  0
  -22.9930   -3.5440  -38.5350 H   0  0  0  0  0  0  0  0  0  0  0  0
  1  6  1  0  0  0  0
  2  1  1  0  0  0  0
  3  2  2  0  0  0  0
  4  3  1  0  0  0  0
  4  5  1  0  0  0  0
  5  1  2  0  0  0  0
  6  9  2  0  0  0  0
  6  7  1  0  0  0  0
  7  8  1  0  0  0  0
  7 10  1  0  0  0  0
 10 11  2  0  0  0  0
 11 12  1  0  0  0  0
 12 19  2  0  0  0  0
 12 13  1  0  0  0  0
 13 14  2  0  0  0  0
 14 15  1  0  0  0  0
 14 16  1  0  0  0  0
 15 20  1  0  0  0  0
 17 15  2  0  0  0  0
 17 18  1  0  0  0  0
 19 17  1  0  0  0  0
 20 21  1  0  0  0  0
 22 23  1  0  0  0  0
 22 19  1  0  0  0  0
 24  5  1  0  0  0  0
 24 25  1  0  0  0  0
 25 30  1  0  0  0  0
 26 25  1  0  0  0  0
 27 28  1  0  0  0  0
 27 26  1  0  0  0  0
 28 29  1  0  0  0  0
 29 30  1  0  0  0  0
 31  4  1  0  0  0  0
 32 31  2  0  0  0  0
 33 32  1  0  0  0  0
 34 33  1  0  0  0  0
 34 35  2  0  0  0  0
 35 36  1  0  0  0  0
 35 31  1  0  0  0  0
 36 38  1  0  0  0  0
 37 36  1  0  0  0  0
M  END
>  <Pose>
1

>  <Score>
-9.045

$$$$
