MODEL 1
REMARK VINA RESULT:    -9.045      0.000      0.000
REMARK INTER + INTRA:         -14.645
REMARK INTER:                 -13.010
REMARK INTRA:                  -1.635
REMARK UNBOUND:                -1.635
REMARK  9 active torsions:
REMARK  status: ('A' for Active; 'I' for Inactive)
REMARK    1  A    between atoms: C_3  and  O_33 
REMARK    2  A    between atoms: C_6  and  C_9 
REMARK    3  A    between atoms: C_7  and  O_8 
REMARK    4  A    between atoms: N_10  and  N_11 
REMARK       I    between atoms: N_11  and  C_12 
REMARK    5  A    between atoms: C_12  and  C_14 
REMARK    6  A    between atoms: N_17  and  C_26 
REMARK    7  A    between atoms: C_18  and  C_19 
REMARK    8  A    between atoms: C_19  and  N_20 
REMARK    9  A    between atoms: C_30  and  N_31 
ROOT
ATOM      1  C   UNK d   1     -21.751  -1.312 -34.634  0.00  0.00     0.176 A 
ATOM      2  N   UNK d   1     -22.860  -2.085 -34.864  0.00  0.00    -0.124 NA
ATOM      3  N   UNK d   1     -23.270  -1.902 -36.089  0.00  0.00    -0.058 NA
ATOM      4  N   UNK d   1     -22.502  -1.038 -36.731  0.00  0.00    -0.191 N 
ATOM      5  C   UNK d   1     -21.557  -0.657 -35.855  0.00  0.00     0.104 A 
ENDROOT
BRANCH   1   6
ATOM      6  C   UNK d   1     -21.020  -1.248 -33.383  0.00  0.00     0.294 C 
ATOM      7  N   UNK d   1     -21.059  -0.272 -32.396  0.00  0.00    -0.242 N 
ATOM      8  H   UNK d   1     -21.633   0.604 -32.391  0.00  0.00     0.192 HD
ATOM      9  O   UNK d   1     -20.229  -2.245 -33.176  0.00  0.00    -0.264 OA
BRANCH   7  10
ATOM     10  N   UNK d   1     -20.220  -0.469 -31.247  0.00  0.00    -0.183 NA
ATOM     11  C   UNK d   1     -20.738  -0.395 -30.073  0.00  0.00     0.153 C 
BRANCH  11  12
ATOM     12  C   UNK d   1     -19.980  -0.579 -28.845  0.00  0.00     0.019 A 
ATOM     13  C   UNK d   1     -19.980  -1.778 -28.184  0.00  0.00     0.038 A 
ATOM     14  C   UNK d   1     -19.261  -1.973 -27.009  0.00  0.00     0.046 A 
ATOM     15  C   UNK d   1     -18.514  -0.925 -26.476  0.00  0.00     0.103 A 
ATOM     16 Br   UNK d   1     -19.290  -3.650 -26.126  0.00  0.00    -0.048 Br
ATOM     17  C   UNK d   1     -18.509   0.273 -27.129  0.00  0.00     0.079 A 
ATOM     18 Br   UNK d   1     -17.505   1.724 -26.439  0.00  0.00    -0.045 Br
ATOM     19  C   UNK d   1     -19.237   0.449 -28.307  0.00  0.00     0.097 A 
BRANCH  15  20
ATOM     20  O   UNK d   1     -17.805  -1.140 -25.304  0.00  0.00    -0.358 OA
ATOM     21  H   UNK d   1     -17.881  -0.505 -24.527  0.00  0.00     0.217 HD
ENDBRANCH  15  20
BRANCH  19  22
ATOM     22  O   UNK d   1     -19.245   1.658 -28.984  0.00  0.00    -0.358 OA
ATOM     23  H   UNK d   1     -19.669   2.475 -28.563  0.00  0.00     0.217 HD
ENDBRANCH  19  22
ENDBRANCH  11  12
ENDBRANCH   7  10
ENDBRANCH   1   6
BRANCH   5  24
ATOM     24  C   UNK d   1     -20.447   0.268 -36.104  0.00  0.00     0.334 C 
BRANCH  24  25
ATOM     25  N   UNK d   1     -20.613   1.589 -35.492  0.00  0.00     0.098 N 
ATOM     26  C   UNK d   1     -20.754   2.590 -36.569  0.00  0.00     0.299 C 
ATOM     27  C   UNK d   1     -19.703   2.371 -37.601  0.00  0.00     0.198 C 
ATOM     28  O   UNK d   1     -18.466   2.361 -37.005  0.00  0.00    -0.388 OA
ATOM     29  C   UNK d   1     -18.467   2.748 -35.690  0.00  0.00     0.198 C 
ATOM     30  C   UNK d   1     -19.354   1.930 -34.789  0.00  0.00     0.299 C 
ENDBRANCH  24  25
ENDBRANCH   5  24
BRANCH   4  31
ATOM     31  C   UNK d   1     -22.686  -0.668 -38.086  0.00  0.00     0.229 A 
ATOM     32  N   UNK d   1     -22.902   0.553 -38.619  0.00  0.00    -0.081 NA
ATOM     33  O   UNK d   1     -23.006   0.457 -39.918  0.00  0.00    -0.103 OA
ATOM     34  N   UNK d   1     -22.869  -0.789 -40.295  0.00  0.00    -0.083 NA
ATOM     35  C   UNK d   1     -22.668  -1.515 -39.183  0.00  0.00     0.201 A 
BRANCH  35  36
ATOM     36  N   UNK d   1     -22.474  -2.913 -39.172  0.00  0.00    -0.379 N 
ATOM     37  H   UNK d   1     -21.786  -3.328 -39.826  0.00  0.00     0.158 HD
ATOM     38  H   UNK d   1     -22.993  -3.544 -38.535  0.00  0.00     0.158 HD
ENDBRANCH  35  36
ENDBRANCH   4  31
TORSDOF 9
ENDMDL
