MODEL 1
REMARK VINA RESULT:    -8.776      0.000      0.000
REMARK INTER + INTRA:         -12.984
REMARK INTER:                 -11.854
REMARK INTRA:                  -1.130
REMARK UNBOUND:                -1.130
REMARK  7 active torsions:
REMARK  status: ('A' for Active; 'I' for Inactive)
REMARK    1  A    between atoms: C_3  and  O_31 
REMARK    2  A    between atoms: C_6  and  C_9 
REMARK    3  A    between atoms: C_7  and  O_8 
REMARK    4  A    between atoms: N_10  and  N_11 
REMARK    5  A    between atoms: N_11  and  C_12 
REMARK    6  A    between atoms: C_14  and  N_24 
REMARK    7  A    between atoms: C_16  and  N_18 
ROOT
ATOM      1  C   UNK d   1     -18.871   0.765 -33.354  0.00  0.00     0.774 A 
ATOM      2  N   UNK d   1     -20.085   0.633 -33.884  0.00  0.00     0.133 NA
ATOM      3  C   UNK d   1     -20.856   1.704 -34.233  0.00  0.00     0.756 A 
ATOM      4  N   UNK d   1     -20.325   2.904 -34.013  0.00  0.00     0.131 NA
ATOM      5  C   UNK d   1     -19.102   3.128 -33.481  0.00  0.00     0.756 A 
ATOM      6  N   UNK d   1     -18.398   2.002 -33.160  0.00  0.00     0.133 NA
ENDROOT
BRANCH   1   7
ATOM      7  N   UNK d   1     -18.099  -0.376 -33.003  0.00  0.00    -0.105 N 
ATOM      8  H   UNK d   1     -17.511  -0.900 -33.660  0.00  0.00     0.208 HD
BRANCH   7   9
ATOM      9  N   UNK d   1     -18.124  -0.839 -31.673  0.00  0.00    -0.171 NA
ATOM     10  C   UNK d   1     -19.202  -1.094 -31.044  0.00  0.00     0.153 C 
BRANCH  10  11
ATOM     11  C   UNK d   1     -19.254  -1.571 -29.672  0.00  0.00     0.019 A 
ATOM     12  C   UNK d   1     -19.732  -2.832 -29.402  0.00  0.00     0.038 A 
ATOM     13  C   UNK d   1     -19.791  -3.311 -28.106  0.00  0.00     0.046 A 
ATOM     14  C   UNK d   1     -19.377  -2.546 -27.037  0.00  0.00     0.103 A 
ATOM     15 Br   UNK d   1     -20.461  -5.071 -27.757  0.00  0.00    -0.048 Br
ATOM     16  C   UNK d   1     -18.894  -1.278 -27.298  0.00  0.00     0.079 A 
ATOM     17 Br   UNK d   1     -18.321  -0.224 -25.812  0.00  0.00    -0.045 Br
ATOM     18  C   UNK d   1     -18.839  -0.807 -28.601  0.00  0.00     0.097 A 
BRANCH  14  19
ATOM     19  O   UNK d   1     -19.429  -3.012 -25.725  0.00  0.00    -0.358 OA
ATOM     20  H   UNK d   1     -18.805  -2.625 -25.037  0.00  0.00     0.217 HD
ENDBRANCH  14  19
BRANCH  18  21
ATOM     21  O   UNK d   1     -18.358   0.457 -28.847  0.00  0.00    -0.358 OA
ATOM     22  H   UNK d   1     -18.189   0.776 -29.805  0.00  0.00     0.217 HD
ENDBRANCH  18  21
ENDBRANCH  10  11
ENDBRANCH   7   9
ENDBRANCH   1   7
BRANCH   3  23
ATOM     23  N   UNK d   1     -22.140   1.542 -34.794  0.00  0.00    -0.209 N 
ATOM     24  C   UNK d   1     -23.279   1.322 -33.947  0.00  0.00     0.167 C 
ATOM     25  C   UNK d   1     -24.065   0.163 -34.540  0.00  0.00     0.188 C 
ATOM     26  O   UNK d   1     -24.245   0.304 -35.911  0.00  0.00    -0.388 OA
ATOM     27  C   UNK d   1     -23.066   0.325 -36.620  0.00  0.00     0.188 C 
ATOM     28  C   UNK d   1     -22.311   1.599 -36.218  0.00  0.00     0.167 C 
ENDBRANCH   3  23
BRANCH   5  29
ATOM     29  N   UNK d   1     -18.582   4.417 -33.267  0.00  0.00    -0.209 N 
ATOM     30  C   UNK d   1     -17.377   4.837 -33.911  0.00  0.00     0.167 C 
ATOM     31  C   UNK d   1     -16.454   5.395 -32.824  0.00  0.00     0.188 C 
ATOM     32  O   UNK d   1     -17.000   5.263 -31.565  0.00  0.00    -0.388 OA
ATOM     33  C   UNK d   1     -18.225   5.864 -31.410  0.00  0.00     0.188 C 
ATOM     34  C   UNK d   1     -19.257   5.330 -32.396  0.00  0.00     0.167 C 
ENDBRANCH   5  29
TORSDOF 7
ENDMDL
