MODEL 1
REMARK VINA RESULT:    -9.007      0.000      0.000
REMARK INTER + INTRA:         -13.045
REMARK INTER:                 -11.903
REMARK INTRA:                  -1.142
REMARK UNBOUND:                -1.142
REMARK  6 active torsions:
REMARK  status: ('A' for Active; 'I' for Inactive)
REMARK    1  A    between atoms: C_4  and  C_9 
REMARK    2  A    between atoms: N_10  and  N_11 
REMARK       I    between atoms: N_11  and  C_12 
REMARK    3  A    between atoms: C_12  and  C_14 
REMARK    4  A    between atoms: C_14  and  N_15 
REMARK    5  A    between atoms: C_19  and  C_20 
REMARK    6  A    between atoms: C_24  and  N_25 
ROOT
ATOM      1  N   UNK d   1     -23.094  -0.372 -37.632  0.00  0.00    -0.319 N 
ATOM      2  C   UNK d   1     -23.676  -1.486 -38.149  0.00  0.00     0.065 A 
ATOM      3  C   UNK d   1     -22.912  -1.985 -39.167  0.00  0.00     0.086 A 
ATOM      4  N   UNK d   1     -21.860  -1.158 -39.259  0.00  0.00    -0.226 NA
ATOM      5  C   UNK d   1     -21.968  -0.167 -38.318  0.00  0.00     0.167 A 
ATOM      6  C   UNK d   1     -23.340  -3.122 -39.822  0.00  0.00     0.034 A 
ATOM      7  C   UNK d   1     -24.516  -3.768 -39.478  0.00  0.00     0.002 A 
ATOM      8  C   UNK d   1     -25.268  -3.239 -38.444  0.00  0.00     0.002 A 
ATOM      9  C   UNK d   1     -24.842  -2.103 -37.787  0.00  0.00     0.032 A 
ENDROOT
BRANCH   1  10
ATOM     10  C   UNK d   1     -23.571   0.442 -36.558  0.00  0.00     0.235 C 
BRANCH  10  11
ATOM     11  C   UNK d   1     -23.252  -0.005 -35.225  0.00  0.00     0.256 C 
ATOM     12  N   UNK d   1     -22.015   0.263 -34.589  0.00  0.00    -0.246 N 
ATOM     13  H   UNK d   1     -21.309   0.812 -35.125  0.00  0.00     0.192 HD
ATOM     14  O   UNK d   1     -24.091  -0.667 -34.570  0.00  0.00    -0.270 OA
BRANCH  12  15
ATOM     15  N   UNK d   1     -21.681  -0.154 -33.311  0.00  0.00    -0.184 NA
ATOM     16  C   UNK d   1     -20.766  -1.010 -33.057  0.00  0.00     0.153 C 
BRANCH  16  17
ATOM     17  C   UNK d   1     -20.501  -1.373 -31.678  0.00  0.00     0.022 A 
ATOM     18  C   UNK d   1     -20.550  -2.678 -31.296  0.00  0.00     0.136 A 
ATOM     19  C   UNK d   1     -20.296  -3.012 -29.982  0.00  0.00     0.049 A 
ATOM     20  O   UNK d   1     -20.851  -3.671 -32.211  0.00  0.00    -0.190 OA
ATOM     21 Br   UNK d   1     -20.370  -4.837 -29.471  0.00  0.00    -0.048 Br
ATOM     22  C   UNK d   1     -19.995  -2.027 -29.058  0.00  0.00     0.041 A 
ATOM     23  C   UNK d   1     -19.950  -0.716 -29.464  0.00  0.00     0.013 A 
ATOM     24  C   UNK d   1     -20.198  -0.355 -30.766  0.00  0.00     0.035 A 
ATOM     25 Br   UNK d   1     -19.531   0.635 -28.176  0.00  0.00    -0.051 Br
ENDBRANCH  16  17
ENDBRANCH  12  15
ENDBRANCH  10  11
ENDBRANCH   1  10
BRANCH   5  26
ATOM     26  C   UNK d   1     -20.988   0.899 -38.146  0.00  0.00     0.187 A 
ATOM     27  N   UNK d   1     -21.206   2.201 -38.368  0.00  0.00    -0.097 NA
ATOM     28  O   UNK d   1     -20.097   2.869 -38.108  0.00  0.00    -0.104 OA
ATOM     29  N   UNK d   1     -19.163   2.056 -37.725  0.00  0.00    -0.077 NA
ATOM     30  C   UNK d   1     -19.678   0.807 -37.734  0.00  0.00     0.285 A 
BRANCH  30  31
ATOM     31  N   UNK d   1     -18.999  -0.385 -37.383  0.00  0.00    -0.028 N 
ATOM     32  H   UNK d   1     -18.018  -0.222 -37.118  0.00  0.00     0.283 HD
ATOM     33  H   UNK d   1     -18.978  -0.977 -38.258  0.00  0.00     0.283 HD
ATOM     34  H   UNK d   1     -19.510  -0.944 -36.651  0.00  0.00     0.283 HD
ENDBRANCH  30  31
ENDBRANCH   5  26
TORSDOF 6
ENDMDL
