/Users/jonathanwahrer/Desktop/Msc/3_Semester/Drug_Design_Praktikum/waehrer_HTS_screening/HTS_experiment/out/docking_results/vina_output/5l4q/0006_docked.pdbqt
 OpenBabel03212217383D

 34 37  0  0  0  0  0  0  0  0999 V2000
  -23.0940   -0.3720  -37.6320 N   0  0  0  0  0  0  0  0  0  0  0  0
  -23.6760   -1.4860  -38.1490 C   0  0  0  0  0  0  0  0  0  0  0  0
  -22.9120   -1.9850  -39.1670 C   0  0  0  0  0  0  0  0  0  0  0  0
  -21.8600   -1.1580  -39.2590 N   0  0  0  0  0  0  0  0  0  0  0  0
  -21.9680   -0.1670  -38.3180 C   0  0  0  0  0  0  0  0  0  0  0  0
  -23.3400   -3.1220  -39.8220 C   0  0  0  0  0  3  0  0  0  0  0  0
  -24.5160   -3.7680  -39.4780 C   0  0  0  0  0  3  0  0  0  0  0  0
  -25.2680   -3.2390  -38.4440 C   0  0  0  0  0  3  0  0  0  0  0  0
  -24.8420   -2.1030  -37.7870 C   0  0  0  0  0  3  0  0  0  0  0  0
  -23.5710    0.4420  -36.5580 C   0  0  0  0  0  2  0  0  0  0  0  0
  -23.2520   -0.0050  -35.2250 C   0  0  0  0  0  0  0  0  0  0  0  0
  -22.0150    0.2630  -34.5890 N   0  0  0  0  0  0  0  0  0  0  0  0
  -21.3090    0.8120  -35.1250 H   0  0  0  0  0  0  0  0  0  0  0  0
  -24.0910   -0.6670  -34.5700 O   0  0  0  0  0  0  0  0  0  0  0  0
  -21.6810   -0.1540  -33.3110 N   0  0  0  0  0  0  0  0  0  0  0  0
  -20.7660   -1.0100  -33.0570 C   0  0  0  0  0  3  0  0  0  0  0  0
  -20.5010   -1.3730  -31.6780 C   0  0  0  0  0  0  0  0  0  0  0  0
  -20.5500   -2.6780  -31.2960 C   0  0  0  0  0  0  0  0  0  0  0  0
  -20.2960   -3.0120  -29.9820 C   0  0  0  0  0  0  0  0  0  0  0  0
  -20.8510   -3.6710  -32.2110 O   0  0  0  0  0  1  0  0  0  0  0  0
  -20.3700   -4.8370  -29.4710 Br  0  0  0  0  0  0  0  0  0  0  0  0
  -19.9950   -2.0270  -29.0580 C   0  0  0  0  0  3  0  0  0  0  0  0
  -19.9500   -0.7160  -29.4640 C   0  0  0  0  0  0  0  0  0  0  0  0
  -20.1980   -0.3550  -30.7660 C   0  0  0  0  0  3  0  0  0  0  0  0
  -19.5310    0.6350  -28.1760 Br  0  0  0  0  0  0  0  0  0  0  0  0
  -20.9880    0.8990  -38.1460 C   0  0  0  0  0  0  0  0  0  0  0  0
  -21.2060    2.2010  -38.3680 N   0  0  0  0  0  0  0  0  0  0  0  0
  -20.0970    2.8690  -38.1080 O   0  0  0  0  0  0  0  0  0  0  0  0
  -19.1630    2.0560  -37.7250 N   0  0  0  0  0  0  0  0  0  0  0  0
  -19.6780    0.8070  -37.7340 C   0  0  0  0  0  0  0  0  0  0  0  0
  -18.9990   -0.3850  -37.3830 N   0  0  0  0  0  4  0  0  0  0  0  0
  -18.0180   -0.2220  -37.1180 H   0  0  0  0  0  0  0  0  0  0  0  0
  -18.9780   -0.9770  -38.2580 H   0  0  0  0  0  0  0  0  0  0  0  0
  -19.5100   -0.9440  -36.6510 H   0  0  0  0  0  0  0  0  0  0  0  0
  1 10  1  0  0  0  0
  2  9  1  0  0  0  0
  2  1  1  0  0  0  0
  3  2  2  0  0  0  0
  4  3  1  0  0  0  0
  4  5  2  0  0  0  0
  5 26  1  0  0  0  0
  5  1  1  0  0  0  0
  6  7  2  0  0  0  0
  6  3  1  0  0  0  0
  7  8  1  0  0  0  0
  8  9  2  0  0  0  0
 10 11  1  0  0  0  0
 11 12  1  0  0  0  0
 11 14  2  0  0  0  0
 12 15  1  0  0  0  0
 13 12  1  0  0  0  0
 15 16  2  0  0  0  0
 16 17  1  0  0  0  0
 17 18  2  0  0  0  0
 17 24  1  0  0  0  0
 18 19  1  0  0  0  0
 19 21  1  0  0  0  0
 19 22  2  0  0  0  0
 20 18  1  0  0  0  0
 23 22  1  0  0  0  0
 23 25  1  0  0  0  0
 24 23  2  0  0  0  0
 26 30  1  0  0  0  0
 27 26  2  0  0  0  0
 27 28  1  0  0  0  0
 28 29  1  0  0  0  0
 30 29  2  0  0  0  0
 30 31  1  0  0  0  0
 31 32  1  0  0  0  0
 31 34  1  0  0  0  0
 33 31  1  0  0  0  0
M  END
>  <Pose>
1

>  <Score>
-9.007

$$$$
