MODEL 1
REMARK VINA RESULT:    -9.015      0.000      0.000
REMARK INTER + INTRA:         -14.738
REMARK INTER:                 -13.495
REMARK INTRA:                  -1.243
REMARK UNBOUND:                -1.243
REMARK  9 active torsions:
REMARK  status: ('A' for Active; 'I' for Inactive)
REMARK    1  A    between atoms: C_4  and  O_29 
REMARK    2  A    between atoms: C_6  and  C_8 
REMARK    3  A    between atoms: C_8  and  N_9 
REMARK    4  A    between atoms: N_9  and  N_10 
REMARK       I    between atoms: N_10  and  C_11 
REMARK    5  A    between atoms: C_11  and  C_13 
REMARK    6  A    between atoms: C_13  and  N_14 
REMARK    7  A    between atoms: C_18  and  C_19 
REMARK    8  A    between atoms: C_23  and  N_24 
REMARK    9  A    between atoms: O_29  and  C_30 
ROOT
ATOM      1  N   UNK d   1     -22.978  -0.204 -36.044  0.00  0.00    -0.319 N 
ATOM      2  C   UNK d   1     -22.517   1.090 -35.851  0.00  0.00     0.065 A 
ATOM      3  C   UNK d   1     -22.081   1.536 -37.042  0.00  0.00     0.086 A 
ATOM      4  N   UNK d   1     -22.272   0.559 -37.915  0.00  0.00    -0.226 NA
ATOM      5  C   UNK d   1     -22.837  -0.547 -37.296  0.00  0.00     0.167 A 
ATOM      6  C   UNK d   1     -21.552   2.805 -37.220  0.00  0.00     0.034 A 
ATOM      7  C   UNK d   1     -21.490   3.603 -36.103  0.00  0.00     0.002 A 
ATOM      8  C   UNK d   1     -21.920   3.194 -34.855  0.00  0.00     0.002 A 
ATOM      9  C   UNK d   1     -22.444   1.909 -34.735  0.00  0.00     0.032 A 
ENDROOT
BRANCH   1  10
ATOM     10  C   UNK d   1     -23.522  -0.918 -34.964  0.00  0.00     0.236 C 
BRANCH  10  11
ATOM     11  C   UNK d   1     -22.528  -1.953 -34.391  0.00  0.00     0.264 C 
ATOM     12  N   UNK d   1     -21.797  -1.417 -33.382  0.00  0.00    -0.202 N 
ATOM     13  H   UNK d   1     -21.164  -2.664 -33.240  0.00  0.00     0.205 HD
ATOM     14  O   UNK d   1     -22.596  -3.041 -34.957  0.00  0.00    -0.269 OA
BRANCH  12  15
ATOM     15  N   UNK d   1     -21.131  -0.932 -32.464  0.00  0.00    -0.335 NA
BRANCH  15  16
ATOM     16  C   UNK d   1     -20.542  -0.516 -31.529  0.00  0.00     0.220 C 
BRANCH  16  17
ATOM     17  C   UNK d   1     -20.092  -1.076 -30.301  0.00  0.00    -0.001 A 
ATOM     18  C   UNK d   1     -19.321  -0.307 -29.417  0.00  0.00     0.053 A 
ATOM     19  C   UNK d   1     -18.851  -0.734 -28.209  0.00  0.00     0.107 A 
ATOM     20  C   UNK d   1     -19.165  -2.058 -27.816  0.00  0.00     0.157 A 
ATOM     21  C   UNK d   1     -19.918  -2.848 -28.656  0.00  0.00     0.051 A 
ATOM     22  O   UNK d   1     -18.696  -2.478 -26.605  0.00  0.00    -0.188 OA
ATOM     23 Br   UNK d   1     -20.380  -4.617 -28.145  0.00  0.00    -0.048 Br
ATOM     24  C   UNK d   1     -20.364  -2.354 -29.866  0.00  0.00     0.036 A 
BRANCH  19  25
ATOM     25  O   UNK d   1     -18.096   0.037 -27.346  0.00  0.00    -0.348 OA
BRANCH  25  26
ATOM     26  C   UNK d   1     -18.656   0.885 -26.403  0.00  0.00     0.171 C 
ATOM     27  C   UNK d   1     -18.213   0.682 -24.981  0.00  0.00     0.034 C 
ENDBRANCH  25  26
ENDBRANCH  19  25
ENDBRANCH  16  17
ENDBRANCH  15  16
ENDBRANCH  12  15
ENDBRANCH  10  11
ENDBRANCH   1  10
BRANCH   5  28
ATOM     28  C   UNK d   1     -23.116  -1.687 -38.150  0.00  0.00     0.187 A 
ATOM     29  N   UNK d   1     -24.232  -2.501 -37.965  0.00  0.00    -0.097 NA
ATOM     30  O   UNK d   1     -24.270  -3.414 -38.849  0.00  0.00    -0.104 OA
ATOM     31  N   UNK d   1     -23.276  -3.312 -39.637  0.00  0.00    -0.077 NA
ATOM     32  C   UNK d   1     -22.524  -2.233 -39.231  0.00  0.00     0.285 A 
BRANCH  32  33
ATOM     33  N   UNK d   1     -21.358  -1.836 -39.918  0.00  0.00    -0.028 N 
ATOM     34  H   UNK d   1     -21.636  -1.588 -40.941  0.00  0.00     0.283 HD
ATOM     35  H   UNK d   1     -20.726  -2.638 -40.034  0.00  0.00     0.283 HD
ATOM     36  H   UNK d   1     -20.996  -0.952 -39.570  0.00  0.00     0.283 HD
ENDBRANCH  32  33
ENDBRANCH   5  28
TORSDOF 9
ENDMDL
