/Users/jonathanwahrer/Desktop/Msc/3_Semester/Drug_Design_Praktikum/waehrer_HTS_screening/HTS_experiment/out/docking_results/vina_output/5l4q/0017_docked.pdbqt
 OpenBabel03212217393D

 38 41  0  0  0  0  0  0  0  0999 V2000
  -22.9710   -1.4260  -36.2520 C   0  0  0  0  0  0  0  0  0  0  0  0
  -23.3870   -2.3520  -37.1260 N   0  0  0  0  0  0  0  0  0  0  0  0
  -23.3720   -1.8530  -38.3370 N   0  0  0  0  0  0  0  0  0  0  0  0
  -22.9470   -0.5770  -38.3180 N   0  0  0  0  0  0  0  0  0  0  0  0
  -22.6930   -0.2910  -37.0380 C   0  0  0  0  0  0  0  0  0  0  0  0
  -22.8280   -1.5320  -34.8060 C   0  0  0  0  0  0  0  0  0  0  0  0
  -21.6470   -2.0250  -34.2090 N   0  0  0  0  0  0  0  0  0  0  0  0
  -20.8510   -2.3240  -34.8440 H   0  0  0  0  0  0  0  0  0  0  0  0
  -23.7740   -1.1760  -34.0760 O   0  0  0  0  0  0  0  0  0  0  0  0
  -21.4460   -2.1510  -32.8560 N   0  0  0  0  0  0  0  0  0  0  0  0
  -20.3980   -1.7790  -32.2180 C   0  0  0  0  0  3  0  0  0  0  0  0
  -20.2750   -1.9530  -30.7800 C   0  0  0  0  0  0  0  0  0  0  0  0
  -20.0800   -0.9000  -29.8990 C   0  0  0  0  0  3  0  0  0  0  0  0
  -19.9670   -1.0930  -28.5430 C   0  0  0  0  0  0  0  0  0  0  0  0
  -20.0540   -2.3850  -28.0750 C   0  0  0  0  0  0  0  0  0  0  0  0
  -20.2480   -3.4640  -28.9290 C   0  0  0  0  0  0  0  0  0  0  0  0
  -20.3680   -5.2490  -28.2720 Br  0  0  0  0  0  0  0  0  0  0  0  0
  -20.3560   -3.2290  -30.2680 C   0  0  0  0  0  3  0  0  0  0  0  0
  -19.7740   -0.0750  -27.6410 O   0  0  0  0  0  0  0  0  0  0  0  0
  -18.5870    0.6030  -27.3850 C   0  0  0  0  0  2  0  0  0  0  0  0
  -18.3750    0.9900  -25.9570 C   0  0  0  0  0  1  0  0  0  0  0  0
  -19.9470   -2.6410  -26.7110 O   0  0  0  0  0  0  0  0  0  0  0  0
  -19.8960   -1.8700  -26.0570 H   0  0  0  0  0  0  0  0  0  0  0  0
  -22.2330    0.9660  -36.4460 C   0  0  0  0  0  2  0  0  0  0  0  0
  -20.8950    1.3910  -36.7700 N   0  0  0  0  0  0  0  0  0  0  0  0
  -20.6470    2.5360  -35.8850 C   0  0  0  0  0  2  0  0  0  0  0  0
  -20.7050    2.2330  -34.4410 C   0  0  0  0  0  2  0  0  0  0  0  0
  -20.2720    0.9440  -34.1750 O   0  0  0  0  0  0  0  0  0  0  0  0
  -19.2920    0.6190  -35.0870 C   0  0  0  0  0  2  0  0  0  0  0  0
  -19.9490    0.3280  -36.4220 C   0  0  0  0  0  2  0  0  0  0  0  0
  -22.8480    0.2320  -39.4950 C   0  0  0  0  0  0  0  0  0  0  0  0
  -23.3950    1.4330  -39.7430 N   0  0  0  0  0  0  0  0  0  0  0  0
  -23.0460    1.8250  -40.9450 O   0  0  0  0  0  0  0  0  0  0  0  0
  -22.2810    0.9250  -41.5160 N   0  0  0  0  0  0  0  0  0  0  0  0
  -22.1420   -0.0790  -40.6320 C   0  0  0  0  0  0  0  0  0  0  0  0
  -21.3730   -1.2440  -40.8880 N   0  0  0  0  0  0  0  0  0  0  0  0
  -20.4410   -1.4310  -40.4630 H   0  0  0  0  0  0  0  0  0  0  0  0
  -21.7280   -1.9910  -41.5390 H   0  0  0  0  0  0  0  0  0  0  0  0
  1  6  1  0  0  0  0
  2  1  1  0  0  0  0
  3  4  1  0  0  0  0
  3  2  2  0  0  0  0
  4  5  1  0  0  0  0
  5 24  1  0  0  0  0
  5  1  2  0  0  0  0
  6  7  1  0  0  0  0
  6  9  2  0  0  0  0
  7 10  1  0  0  0  0
  8  7  1  0  0  0  0
 10 11  2  0  0  0  0
 11 12  1  0  0  0  0
 12 18  2  0  0  0  0
 12 13  1  0  0  0  0
 13 14  2  0  0  0  0
 14 15  1  0  0  0  0
 14 19  1  0  0  0  0
 15 22  1  0  0  0  0
 16 17  1  0  0  0  0
 16 15  2  0  0  0  0
 18 16  1  0  0  0  0
 19 20  1  0  0  0  0
 20 21  1  0  0  0  0
 22 23  1  0  0  0  0
 25 24  1  0  0  0  0
 25 30  1  0  0  0  0
 25 26  1  0  0  0  0
 26 27  1  0  0  0  0
 27 28  1  0  0  0  0
 29 28  1  0  0  0  0
 30 29  1  0  0  0  0
 31  4  1  0  0  0  0
 32 31  2  0  0  0  0
 33 32  1  0  0  0  0
 34 33  1  0  0  0  0
 34 35  2  0  0  0  0
 35 31  1  0  0  0  0
 36 35  1  0  0  0  0
 36 37  1  0  0  0  0
 38 36  1  0  0  0  0
M  END
>  <Pose>
1

>  <Score>
-8.642

$$$$
