/Users/jonathanwahrer/Desktop/Msc/3_Semester/Drug_Design_Praktikum/waehrer_HTS_screening/HTS_experiment/out/docking_results/vina_output/5l4q/0018_docked.pdbqt
 OpenBabel03212217403D

 37 40  0  0  0  0  0  0  0  0999 V2000
  -22.2610   -1.0770  -34.1120 C   0  0  0  0  0  0  0  0  0  0  0  0
  -23.4990   -1.2720  -34.4020 N   0  0  0  0  0  0  0  0  0  0  0  0
  -23.7420   -0.8700  -35.6380 N   0  0  0  0  0  0  0  0  0  0  0  0
  -22.6210   -0.3920  -36.1590 N   0  0  0  0  0  0  0  0  0  0  0  0
  -21.6150   -0.4480  -35.2980 C   0  0  0  0  0  0  0  0  0  0  0  0
  -21.3170   -1.6390  -33.1730 C   0  0  0  0  0  0  0  0  0  0  0  0
  -20.9260   -0.8940  -31.9970 N   0  0  0  0  0  0  0  0  0  0  0  0
  -20.8560   -0.0510  -31.6070 H   0  0  0  0  0  0  0  0  0  0  0  0
  -20.9100   -2.7880  -33.3410 O   0  0  0  0  0  0  0  0  0  0  0  0
  -20.4600   -2.0540  -31.0040 N   0  0  0  0  0  2  0  0  0  0  0  0
  -20.1010   -1.2260  -30.0060 C   0  0  0  0  0  2  0  0  0  0  0  0
  -19.5970   -1.1420  -28.7390 C   0  0  0  0  0  0  0  0  0  0  0  0
  -19.3390   -2.1550  -27.8330 C   0  0  0  0  0  3  0  0  0  0  0  0
  -18.8260   -1.9580  -26.5720 C   0  0  0  0  0  0  0  0  0  0  0  0
  -18.5480   -0.6760  -26.1870 C   0  0  0  0  0  0  0  0  0  0  0  0
  -18.7880    0.3700  -27.0510 C   0  0  0  0  0  0  0  0  0  0  0  0
  -18.4100    2.1690  -26.4600 Br  0  0  0  0  0  0  0  0  0  0  0  0
  -19.2850    0.1870  -28.2690 C   0  0  0  0  0  3  0  0  0  0  0  0
  -18.6120   -3.0460  -25.7170 O   0  0  0  0  0  0  0  0  0  0  0  0
  -19.2040   -4.3170  -26.0520 C   0  0  0  0  0  1  0  0  0  0  0  0
  -18.0190   -0.4170  -24.9190 O   0  0  0  0  0  0  0  0  0  0  0  0
  -18.5090   -0.8220  -24.0930 H   0  0  0  0  0  0  0  0  0  0  0  0
  -20.2010   -0.2130  -35.3690 C   0  0  0  0  0  2  0  0  0  0  0  0
  -19.7400    1.1680  -35.5280 N   0  0  0  0  0  0  0  0  0  0  0  0
  -18.3530    1.3170  -35.2280 C   0  0  0  0  0  2  0  0  0  0  0  0
  -17.9960    1.1240  -33.7820 C   0  0  0  0  0  2  0  0  0  0  0  0
  -18.4130    2.2230  -33.0510 O   0  0  0  0  0  0  0  0  0  0  0  0
  -19.4690    2.8740  -33.6990 C   0  0  0  0  0  2  0  0  0  0  0  0
  -20.3720    1.8650  -34.3250 C   0  0  0  0  0  2  0  0  0  0  0  0
  -22.4770   -0.2790  -37.5960 C   0  0  0  0  0  0  0  0  0  0  0  0
  -22.1250    0.6540  -38.3780 N   0  0  0  0  0  0  0  0  0  0  0  0
  -22.1980    0.2980  -39.6610 O   0  0  0  0  0  0  0  0  0  0  0  0
  -22.6130   -0.9170  -39.6750 N   0  0  0  0  0  0  0  0  0  0  0  0
  -22.8210   -1.3780  -38.4410 C   0  0  0  0  0  0  0  0  0  0  0  0
  -23.2910   -2.6430  -38.0520 N   0  0  0  0  0  0  0  0  0  0  0  0
  -23.6460   -3.3440  -38.7270 H   0  0  0  0  0  0  0  0  0  0  0  0
  -23.2920   -2.9600  -37.0240 H   0  0  0  0  0  0  0  0  0  0  0  0
  1  6  1  0  0  0  0
  2  1  1  0  0  0  0
  3  2  2  0  0  0  0
  4  3  1  0  0  0  0
  4  5  1  0  0  0  0
  5  1  2  0  0  0  0
  6  7  1  0  0  0  0
  7  8  1  0  0  0  0
  7 10  1  0  0  0  0
  9  6  2  0  0  0  0
 10 11  1  0  0  0  0
 11 12  1  0  0  0  0
 12 18  2  0  0  0  0
 12 13  1  0  0  0  0
 13 14  2  0  0  0  0
 14 15  1  0  0  0  0
 14 19  1  0  0  0  0
 15 21  1  0  0  0  0
 16 17  1  0  0  0  0
 16 15  2  0  0  0  0
 18 16  1  0  0  0  0
 20 19  1  0  0  0  0
 21 22  1  0  0  0  0
 23  5  1  0  0  0  0
 24 23  1  0  0  0  0
 24 25  1  0  0  0  0
 24 29  1  0  0  0  0
 25 26  1  0  0  0  0
 26 27  1  0  0  0  0
 28 27  1  0  0  0  0
 29 28  1  0  0  0  0
 30  4  1  0  0  0  0
 31 30  2  0  0  0  0
 32 31  1  0  0  0  0
 33 32  1  0  0  0  0
 33 34  2  0  0  0  0
 34 35  1  0  0  0  0
 34 30  1  0  0  0  0
 35 37  1  0  0  0  0
 36 35  1  0  0  0  0
M  END
>  <Pose>
1

>  <Score>
-8.788

$$$$
