MODEL 1
REMARK VINA RESULT:    -8.788      0.000      0.000
REMARK INTER + INTRA:         -14.360
REMARK INTER:                 -12.897
REMARK INTRA:                  -1.463
REMARK UNBOUND:                -1.463
REMARK  9 active torsions:
REMARK  status: ('A' for Active; 'I' for Inactive)
REMARK    1  A    between atoms: C_3  and  O_33 
REMARK    2  A    between atoms: C_4  and  O_31 
REMARK    3  A    between atoms: C_6  and  C_8 
REMARK    4  A    between atoms: N_9  and  N_10 
REMARK       I    between atoms: N_10  and  C_11 
REMARK    5  A    between atoms: C_11  and  C_13 
REMARK    6  A    between atoms: N_16  and  C_25 
REMARK    7  A    between atoms: C_17  and  C_18 
REMARK    8  A    between atoms: C_18  and  N_19 
REMARK    9  A    between atoms: C_29  and  N_30 
ROOT
ATOM      1  C   UNK d   1     -22.261  -1.077 -34.112  0.00  0.00     0.170 A 
ATOM      2  N   UNK d   1     -23.499  -1.272 -34.402  0.00  0.00    -0.152 NA
ATOM      3  N   UNK d   1     -23.742  -0.870 -35.638  0.00  0.00     0.012 NA
ATOM      4  N   UNK d   1     -22.621  -0.392 -36.159  0.00  0.00    -0.215 N 
ATOM      5  C   UNK d   1     -21.615  -0.448 -35.298  0.00  0.00     0.098 A 
ENDROOT
BRANCH   1   6
ATOM      6  C   UNK d   1     -21.317  -1.639 -33.173  0.00  0.00     0.293 C 
ATOM      7  N   UNK d   1     -20.926  -0.894 -31.997  0.00  0.00    -0.242 N 
ATOM      8  H   UNK d   1     -20.856  -0.051 -31.607  0.00  0.00     0.192 HD
ATOM      9  O   UNK d   1     -20.910  -2.788 -33.341  0.00  0.00    -0.264 OA
BRANCH   7  10
ATOM     10  N   UNK d   1     -20.460  -2.054 -31.004  0.00  0.00    -0.183 NA
ATOM     11  C   UNK d   1     -20.101  -1.226 -30.006  0.00  0.00     0.150 C 
BRANCH  11  12
ATOM     12  C   UNK d   1     -19.597  -1.142 -28.739  0.00  0.00    -0.013 A 
ATOM     13  C   UNK d   1     -19.339  -2.155 -27.833  0.00  0.00     0.052 A 
ATOM     14  C   UNK d   1     -18.826  -1.958 -26.572  0.00  0.00     0.103 A 
ATOM     15  C   UNK d   1     -18.548  -0.676 -26.187  0.00  0.00     0.116 A 
ATOM     16  C   UNK d   1     -18.788   0.370 -27.051  0.00  0.00     0.047 A 
ATOM     17 Br   UNK d   1     -18.410   2.169 -26.460  0.00  0.00    -0.048 Br
ATOM     18  C   UNK d   1     -19.285   0.187 -28.269  0.00  0.00     0.035 A 
BRANCH  14  19
ATOM     19  O   UNK d   1     -18.612  -3.046 -25.717  0.00  0.00    -0.353 OA
ATOM     20  C   UNK d   1     -19.204  -4.317 -26.052  0.00  0.00     0.210 C 
ENDBRANCH  14  19
BRANCH  15  21
ATOM     21  O   UNK d   1     -18.019  -0.417 -24.919  0.00  0.00    -0.357 OA
ATOM     22  H   UNK d   1     -18.509  -0.822 -24.093  0.00  0.00     0.218 HD
ENDBRANCH  15  21
ENDBRANCH  11  12
ENDBRANCH   7  10
ENDBRANCH   1   6
BRANCH   5  23
ATOM     23  C   UNK d   1     -20.201  -0.213 -35.369  0.00  0.00     0.334 C 
BRANCH  23  24
ATOM     24  N   UNK d   1     -19.740   1.168 -35.528  0.00  0.00     0.098 N 
ATOM     25  C   UNK d   1     -18.353   1.317 -35.228  0.00  0.00     0.299 C 
ATOM     26  C   UNK d   1     -17.996   1.124 -33.782  0.00  0.00     0.198 C 
ATOM     27  O   UNK d   1     -18.413   2.223 -33.051  0.00  0.00    -0.388 OA
ATOM     28  C   UNK d   1     -19.469   2.874 -33.699  0.00  0.00     0.198 C 
ATOM     29  C   UNK d   1     -20.372   1.865 -34.325  0.00  0.00     0.299 C 
ENDBRANCH  23  24
ENDBRANCH   5  23
BRANCH   4  30
ATOM     30  C   UNK d   1     -22.477  -0.279 -37.596  0.00  0.00     0.225 A 
ATOM     31  N   UNK d   1     -22.125   0.654 -38.378  0.00  0.00    -0.081 NA
ATOM     32  O   UNK d   1     -22.198   0.298 -39.661  0.00  0.00    -0.103 OA
ATOM     33  N   UNK d   1     -22.613  -0.917 -39.675  0.00  0.00    -0.083 NA
ATOM     34  C   UNK d   1     -22.821  -1.378 -38.441  0.00  0.00     0.201 A 
BRANCH  34  35
ATOM     35  N   UNK d   1     -23.291  -2.643 -38.052  0.00  0.00    -0.379 N 
ATOM     36  H   UNK d   1     -23.646  -3.344 -38.727  0.00  0.00     0.158 HD
ATOM     37  H   UNK d   1     -23.292  -2.960 -37.024  0.00  0.00     0.158 HD
ENDBRANCH  34  35
ENDBRANCH   4  30
TORSDOF 9
ENDMDL
