MODEL 1
REMARK VINA RESULT:    -8.056      0.000      0.000
REMARK INTER + INTRA:         -13.356
REMARK INTER:                 -12.059
REMARK INTRA:                  -1.297
REMARK UNBOUND:                -1.297
REMARK  9 active torsions:
REMARK  status: ('A' for Active; 'I' for Inactive)
REMARK    1  A    between atoms: C_3  and  O_32 
REMARK    2  A    between atoms: C_4  and  O_29 
REMARK    3  A    between atoms: C_6  and  C_8 
REMARK    4  A    between atoms: C_8  and  N_9 
REMARK    5  A    between atoms: N_9  and  N_10 
REMARK    6  A    between atoms: N_10  and  C_11 
REMARK    7  A    between atoms: C_13  and  N_23 
REMARK    8  A    between atoms: C_15  and  N_17 
REMARK    9  A    between atoms: O_29  and  C_30 
ROOT
ATOM      1  C   UNK d   1     -18.610   0.621 -33.381  0.00  0.00     0.783 A 
ATOM      2  N   UNK d   1     -18.480   1.928 -33.255  0.00  0.00     0.133 NA
ATOM      3  C   UNK d   1     -19.409   2.779 -33.778  0.00  0.00     0.756 A 
ATOM      4  N   UNK d   1     -20.449   2.195 -34.419  0.00  0.00     0.131 NA
ATOM      5  C   UNK d   1     -20.633   0.871 -34.580  0.00  0.00     0.756 A 
ATOM      6  N   UNK d   1     -19.673   0.086 -34.041  0.00  0.00     0.133 NA
ENDROOT
BRANCH   1   7
ATOM      7  N   UNK d   1     -17.773  -0.374 -32.671  0.00  0.00    -0.061 N 
ATOM      8  H   UNK d   1     -17.031  -0.774 -33.211  0.00  0.00     0.221 HD
BRANCH   7   9
ATOM      9  N   UNK d   1     -18.189  -0.509 -31.437  0.00  0.00    -0.323 NA
BRANCH   9  10
ATOM     10  C   UNK d   1     -18.577  -0.632 -30.350  0.00  0.00     0.221 C 
BRANCH  10  11
ATOM     11  C   UNK d   1     -19.279  -1.764 -29.711  0.00  0.00    -0.001 A 
ATOM     12  C   UNK d   1     -19.894  -2.780 -30.383  0.00  0.00     0.053 A 
ATOM     13  C   UNK d   1     -20.338  -3.913 -29.716  0.00  0.00     0.104 A 
ATOM     14  C   UNK d   1     -20.166  -4.026 -28.338  0.00  0.00     0.116 A 
ATOM     15  C   UNK d   1     -19.560  -3.010 -27.652  0.00  0.00     0.047 A 
ATOM     16 Br   UNK d   1     -19.300  -3.173 -25.758  0.00  0.00    -0.048 Br
ATOM     17  C   UNK d   1     -19.128  -1.903 -28.350  0.00  0.00     0.036 A 
BRANCH  13  18
ATOM     18  O   UNK d   1     -20.957  -4.965 -30.317  0.00  0.00    -0.349 OA
BRANCH  18  19
ATOM     19  C   UNK d   1     -21.169  -5.216 -31.660  0.00  0.00     0.171 C 
ATOM     20  C   UNK d   1     -22.488  -4.651 -32.166  0.00  0.00     0.034 C 
ENDBRANCH  18  19
ENDBRANCH  13  18
BRANCH  14  21
ATOM     21  O   UNK d   1     -20.586  -5.134 -27.633  0.00  0.00    -0.357 OA
ATOM     22  H   UNK d   1     -20.223  -5.403 -26.750  0.00  0.00     0.218 HD
ENDBRANCH  14  21
ENDBRANCH  10  11
ENDBRANCH   9  10
ENDBRANCH   7   9
ENDBRANCH   1   7
BRANCH   3  23
ATOM     23  N   UNK d   1     -19.353   4.180 -33.591  0.00  0.00    -0.209 N 
ATOM     24  C   UNK d   1     -18.178   4.778 -32.936  0.00  0.00     0.167 C 
ATOM     25  C   UNK d   1     -18.764   5.765 -31.894  0.00  0.00     0.188 C 
ATOM     26  O   UNK d   1     -19.341   6.749 -32.644  0.00  0.00    -0.388 OA
ATOM     27  C   UNK d   1     -20.466   6.353 -33.311  0.00  0.00     0.188 C 
ATOM     28  C   UNK d   1     -20.416   5.022 -33.985  0.00  0.00     0.167 C 
ENDBRANCH   3  23
BRANCH   5  29
ATOM     29  N   UNK d   1     -21.795   0.343 -35.115  0.00  0.00    -0.209 N 
ATOM     30  C   UNK d   1     -22.981   0.990 -35.525  0.00  0.00     0.167 C 
ATOM     31  C   UNK d   1     -24.105   0.444 -34.639  0.00  0.00     0.188 C 
ATOM     32  O   UNK d   1     -24.102  -0.928 -34.759  0.00  0.00    -0.388 OA
ATOM     33  C   UNK d   1     -22.951  -1.560 -34.348  0.00  0.00     0.188 C 
ATOM     34  C   UNK d   1     -21.787  -1.140 -35.292  0.00  0.00     0.167 C 
ENDBRANCH   5  29
TORSDOF 9
ENDMDL
