/Users/jonathanwahrer/Desktop/Msc/3_Semester/Drug_Design_Praktikum/waehrer_HTS_screening/HTS_experiment/out/docking_results/vina_output/5l4q/0023_docked.pdbqt
 OpenBabel03212217413D

 37 40  0  0  1  0  0  0  0  0999 V2000
  -21.2090    0.2180  -33.0840 C   0  0  1  0  0  3  0  0  0  0  0  0
  -22.3780   -0.2510  -33.7970 N   0  0  0  0  0  0  0  0  0  0  0  0
  -22.3140   -1.6260  -34.0440 C   0  0  0  0  0  0  0  0  0  0  0  0
  -23.1020   -2.2840  -34.7390 O   0  0  0  0  0  0  0  0  0  0  0  0
  -21.1460   -2.1490  -33.3340 C   0  0  0  0  0  0  0  0  0  0  0  0
  -20.8200   -3.3640  -33.3670 O   0  0  0  0  0  0  0  0  0  0  0  0
  -20.5090   -1.0460  -32.6480 C   0  0  1  0  0  3  0  0  0  0  0  0
  -19.4860   -1.1480  -31.8430 C   0  0  1  0  0  3  0  0  0  0  0  0
  -18.2230   -0.7950  -32.2910 O   0  0  0  0  0  1  0  0  0  0  0  0
  -19.6230   -1.6130  -30.4850 C   0  0  0  0  0  0  0  0  0  0  0  0
  -19.1170   -0.7410  -29.5120 C   0  0  0  0  0  3  0  0  0  0  0  0
  -19.2120   -1.0370  -28.1750 C   0  0  0  0  0  0  0  0  0  0  0  0
  -19.8080   -2.2080  -27.7680 C   0  0  0  0  0  0  0  0  0  0  0  0
  -18.7350   -0.2550  -26.9900 C   0  0  0  0  0  2  0  0  0  0  0  0
  -20.2990   -3.0530  -28.7460 C   0  0  0  0  0  3  0  0  0  0  0  0
  -19.7670   -2.2540  -26.3590 O   0  0  0  0  0  0  0  0  0  0  0  0
  -20.2150   -2.7720  -30.0920 C   0  0  0  0  0  3  0  0  0  0  0  0
  -18.8040   -1.3060  -25.9070 C   0  0  1  0  0  3  0  0  0  0  0  0
  -17.4230   -1.9190  -25.7720 C   0  0  0  0  0  1  0  0  0  0  0  0
  -20.3770    0.9760  -34.0550 C   0  0  0  0  0  0  0  0  0  0  0  0
  -20.1720    0.3750  -35.2860 C   0  0  0  0  0  3  0  0  0  0  0  0
  -19.4410    0.9600  -36.2650 C   0  0  0  0  0  0  0  0  0  0  0  0
  -18.8780    2.2070  -36.0220 C   0  0  0  0  0  0  0  0  0  0  0  0
  -19.0870    2.8130  -34.7760 C   0  0  0  0  0  0  0  0  0  0  0  0
  -18.3190    4.5150  -34.4460 Br  0  0  0  0  0  0  0  0  0  0  0  0
  -19.8340    2.2080  -33.7850 C   0  0  0  0  0  3  0  0  0  0  0  0
  -19.2350    0.3520  -37.5060 O   0  0  0  0  0  0  0  0  0  0  0  0
  -20.1850    0.3690  -38.5370 C   0  0  0  0  0  1  0  0  0  0  0  0
  -18.1340    2.8110  -37.0050 O   0  0  0  0  0  0  0  0  0  0  0  0
  -18.3030    2.6090  -37.9590 H   0  0  0  0  0  0  0  0  0  0  0  0
  -23.4400    0.6570  -34.1810 C   0  0  0  0  0  2  0  0  0  0  0  0
  -24.0680    0.4220  -35.4890 C   0  0  0  0  0  2  0  0  0  0  0  0
  -23.3400    0.8640  -36.7030 C   0  0  0  0  0  2  0  0  0  0  0  0
  -23.8700    0.3380  -37.9370 N   0  0  0  0  0  4  0  0  0  0  0  0
  -25.2200    0.8800  -38.1460 C   0  0  0  0  0  1  0  0  0  0  0  0
  -24.0090   -1.0970  -37.7680 C   0  0  0  0  0  1  0  0  0  0  0  0
  -23.2880    0.4960  -38.7650 H   0  0  0  0  0  0  0  0  0  0  0  0
  1 20  1  6  0  0  0
  1  7  1  0  0  0  0
  2  1  1  0  0  0  0
  3  2  1  0  0  0  0
  3  5  1  0  0  0  0
  4  3  2  0  0  0  0
  5  7  1  0  0  0  0
  6  5  2  0  0  0  0
  7  8  1  6  0  0  0
  8  9  1  1  0  0  0
  8 10  1  0  0  0  0
 10 17  2  0  0  0  0
 10 11  1  0  0  0  0
 11 12  2  0  0  0  0
 12 13  1  0  0  0  0
 12 14  1  0  0  0  0
 13 16  1  0  0  0  0
 14 18  1  0  0  0  0
 15 13  2  0  0  0  0
 16 18  1  0  0  0  0
 17 15  1  0  0  0  0
 18 19  1  6  0  0  0
 20 26  1  0  0  0  0
 21 20  2  0  0  0  0
 22 23  2  0  0  0  0
 22 21  1  0  0  0  0
 23 24  1  0  0  0  0
 24 25  1  0  0  0  0
 24 26  2  0  0  0  0
 27 22  1  0  0  0  0
 28 27  1  0  0  0  0
 29 23  1  0  0  0  0
 30 29  1  0  0  0  0
 31  2  1  0  0  0  0
 32 31  1  0  0  0  0
 33 32  1  0  0  0  0
 34 36  1  0  0  0  0
 34 33  1  0  0  0  0
 35 34  1  0  0  0  0
 37 34  1  0  0  0  0
M  END
>  <Pose>
1

>  <Score>
-8.675

$$$$
