MODEL 1
REMARK VINA RESULT:    -8.675      0.000      0.000
REMARK INTER + INTRA:         -13.846
REMARK INTER:                 -12.986
REMARK INTRA:                  -0.859
REMARK UNBOUND:                -0.859
REMARK  9 active torsions:
REMARK  status: ('A' for Active; 'I' for Inactive)
REMARK    1  A    between atoms: C_3  and  O_35 
REMARK    2  A    between atoms: C_4  and  O_33 
REMARK    3  A    between atoms: C_6  and  C_8 
REMARK    4  A    between atoms: N_9  and  C_27 
REMARK    5  A    between atoms: C_14  and  C_15 
REMARK    6  A    between atoms: C_15  and  C_17 
REMARK    7  A    between atoms: C_27  and  C_28 
REMARK    8  A    between atoms: C_28  and  C_29 
REMARK    9  A    between atoms: C_29  and  N_30 
ROOT
ATOM      1  C   UNK d   1     -21.209   0.218 -33.084  0.00  0.00     0.161 C 
ATOM      2  N   UNK d   1     -22.378  -0.251 -33.797  0.00  0.00    -0.332 N 
ATOM      3  C   UNK d   1     -22.314  -1.626 -34.044  0.00  0.00     0.295 C 
ATOM      4  O   UNK d   1     -23.102  -2.284 -34.739  0.00  0.00    -0.264 OA
ATOM      5  C   UNK d   1     -21.146  -2.149 -33.334  0.00  0.00     0.250 C 
ATOM      6  O   UNK d   1     -20.820  -3.364 -33.367  0.00  0.00    -0.282 OA
ATOM      7  C   UNK d   1     -20.509  -1.046 -32.648  0.00  0.00     0.062 C 
ENDROOT
BRANCH   7   8
ATOM      8  C   UNK d   1     -19.486  -1.148 -31.843  0.00  0.00     0.130 C 
ATOM      9  O   UNK d   1     -18.223  -0.795 -32.291  0.00  0.00    -0.190 OA
BRANCH   8  10
ATOM     10  C   UNK d   1     -19.623  -1.613 -30.485  0.00  0.00     0.002 A 
ATOM     11  C   UNK d   1     -19.117  -0.741 -29.512  0.00  0.00     0.024 A 
ATOM     12  C   UNK d   1     -19.212  -1.037 -28.175  0.00  0.00    -0.021 A 
ATOM     13  C   UNK d   1     -19.808  -2.208 -27.768  0.00  0.00     0.075 A 
ATOM     14  C   UNK d   1     -18.735  -0.255 -26.990  0.00  0.00     0.073 C 
ATOM     15  C   UNK d   1     -20.299  -3.053 -28.746  0.00  0.00     0.038 A 
ATOM     16  O   UNK d   1     -19.767  -2.254 -26.359  0.00  0.00    -0.345 OA
ATOM     17  C   UNK d   1     -20.215  -2.772 -30.092  0.00  0.00     0.017 A 
ATOM     18  C   UNK d   1     -18.804  -1.306 -25.907  0.00  0.00     0.129 C 
ATOM     19  C   UNK d   1     -17.423  -1.919 -25.772  0.00  0.00     0.040 C 
ENDBRANCH   8  10
ENDBRANCH   7   8
BRANCH   1  20
ATOM     20  C   UNK d   1     -20.377   0.976 -34.055  0.00  0.00    -0.026 A 
ATOM     21  C   UNK d   1     -20.172   0.375 -35.286  0.00  0.00     0.049 A 
ATOM     22  C   UNK d   1     -19.441   0.960 -36.265  0.00  0.00     0.103 A 
ATOM     23  C   UNK d   1     -18.878   2.207 -36.022  0.00  0.00     0.116 A 
ATOM     24  C   UNK d   1     -19.087   2.813 -34.776  0.00  0.00     0.047 A 
ATOM     25 Br   UNK d   1     -18.319   4.515 -34.446  0.00  0.00    -0.048 Br
ATOM     26  C   UNK d   1     -19.834   2.208 -33.785  0.00  0.00     0.031 A 
BRANCH  22  27
ATOM     27  O   UNK d   1     -19.235   0.352 -37.506  0.00  0.00    -0.353 OA
ATOM     28  C   UNK d   1     -20.185   0.369 -38.537  0.00  0.00     0.210 C 
ENDBRANCH  22  27
BRANCH  23  29
ATOM     29  O   UNK d   1     -18.134   2.811 -37.005  0.00  0.00    -0.357 OA
ATOM     30  H   UNK d   1     -18.303   2.609 -37.959  0.00  0.00     0.218 HD
ENDBRANCH  23  29
ENDBRANCH   1  20
BRANCH   2  31
ATOM     31  C   UNK d   1     -23.440   0.657 -34.181  0.00  0.00     0.129 C 
BRANCH  31  32
ATOM     32  C   UNK d   1     -24.068   0.422 -35.489  0.00  0.00     0.048 C 
BRANCH  32  33
ATOM     33  C   UNK d   1     -23.340   0.864 -36.703  0.00  0.00     0.235 C 
BRANCH  33  34
ATOM     34  N   UNK d   1     -23.870   0.338 -37.937  0.00  0.00    -0.079 N 
ATOM     35  C   UNK d   1     -25.220   0.880 -38.146  0.00  0.00     0.269 C 
ATOM     36  C   UNK d   1     -24.009  -1.097 -37.768  0.00  0.00     0.269 C 
ATOM     37  H   UNK d   1     -23.288   0.496 -38.765  0.00  0.00     0.278 HD
ENDBRANCH  33  34
ENDBRANCH  32  33
ENDBRANCH  31  32
ENDBRANCH   2  31
TORSDOF 9
ENDMDL
