MODEL 1
REMARK VINA RESULT:    -8.583      0.000      0.000
REMARK INTER + INTRA:          -9.941
REMARK INTER:                  -9.838
REMARK INTRA:                  -0.103
REMARK UNBOUND:                -0.103
REMARK  3 active torsions:
REMARK  status: ('A' for Active; 'I' for Inactive)
REMARK    1  A    between atoms: C_3  and  O_25 
REMARK    2  A    between atoms: C_6  and  C_8 
REMARK    3  A    between atoms: C_10  and  C_21 
ROOT
ATOM      1  C   UNK d   1     -22.583   0.146 -35.828  0.00  0.00     0.270 C 
ATOM      2  N   UNK d   1     -21.642   1.182 -35.928  0.00  0.00    -0.047 N 
ATOM      3  C   UNK d   1     -20.665   1.339 -34.918  0.00  0.00     0.291 C 
ATOM      4  C   UNK d   1     -20.991   0.695 -33.597  0.00  0.00     0.086 C 
ATOM      5  C   UNK d   1     -21.526  -0.677 -33.764  0.00  0.00    -0.018 A 
ATOM      6  C   UNK d   1     -21.403  -1.814 -33.013  0.00  0.00    -0.001 A 
ATOM      7  C   UNK d   1     -22.134  -2.773 -33.693  0.00  0.00     0.043 A 
ATOM      8  N   UNK d   1     -22.670  -2.213 -34.810  0.00  0.00    -0.356 N 
ATOM      9  C   UNK d   1     -22.299  -0.926 -34.857  0.00  0.00     0.052 A 
ATOM     10  C   UNK d   1     -22.174  -4.034 -33.137  0.00  0.00     0.030 A 
ATOM     11  C   UNK d   1     -21.519  -4.328 -31.960  0.00  0.00     0.002 A 
ATOM     12  C   UNK d   1     -20.790  -3.371 -31.284  0.00  0.00     0.001 A 
ATOM     13  C   UNK d   1     -20.740  -2.099 -31.828  0.00  0.00     0.014 A 
ATOM     14  H   UNK d   1     -21.145   1.176 -36.865  0.00  0.00     0.279 HD
ATOM     15  H   UNK d   1     -22.183   2.104 -35.988  0.00  0.00     0.279 HD
ATOM     16  H   UNK d   1     -23.260  -2.773 -35.463  0.00  0.00     0.166 HD
ENDROOT
BRANCH   1  17
ATOM     17  C   UNK d   1     -22.732  -0.514 -37.156  0.00  0.00    -0.019 A 
ATOM     18  C   UNK d   1     -23.544  -1.612 -37.345  0.00  0.00     0.031 A 
ATOM     19  C   UNK d   1     -23.600  -2.141 -38.617  0.00  0.00     0.046 A 
ATOM     20  C   UNK d   1     -22.898  -1.635 -39.690  0.00  0.00     0.100 A 
ATOM     21 Br   UNK d   1     -24.713  -3.660 -38.913  0.00  0.00    -0.048 Br
ATOM     22  C   UNK d   1     -22.091  -0.540 -39.493  0.00  0.00     0.046 A 
ATOM     23 Br   UNK d   1     -21.107   0.188 -40.947  0.00  0.00    -0.048 Br
ATOM     24  C   UNK d   1     -22.020   0.012 -38.211  0.00  0.00     0.031 A 
BRANCH  20  25
ATOM     25  O   UNK d   1     -23.010  -2.234 -40.960  0.00  0.00    -0.358 OA
ATOM     26  H   UNK d   1     -22.293  -2.891 -41.235  0.00  0.00     0.217 HD
ENDBRANCH  20  25
ENDBRANCH   1  17
BRANCH   3  27
ATOM     27  C   UNK d   1     -19.324   0.841 -35.330  0.00  0.00     0.205 C 
ATOM     28  O   UNK d   1     -19.186   0.292 -36.477  0.00  0.00    -0.646 OA
ATOM     29  O   UNK d   1     -18.247   0.975 -34.470  0.00  0.00    -0.646 OA
ENDBRANCH   3  27
TORSDOF 3
ENDMDL
