/Users/jonathanwahrer/Desktop/Msc/3_Semester/Drug_Design_Praktikum/waehrer_HTS_screening/HTS_experiment/out/docking_results/vina_output/5l4q/0026_docked.pdbqt
 OpenBabel03212217413D

 29 32  0  0  1  0  0  0  0  0999 V2000
  -22.5830    0.1460  -35.8280 C   0  0  2  0  0  3  0  0  0  0  0  0
  -21.6420    1.1820  -35.9280 N   0  0  0  0  0  4  0  0  0  0  0  0
  -20.6650    1.3390  -34.9180 C   0  0  1  0  0  3  0  0  0  0  0  0
  -20.9910    0.6950  -33.5970 C   0  0  0  0  0  2  0  0  0  0  0  0
  -21.5260   -0.6770  -33.7640 C   0  0  0  0  0  0  0  0  0  0  0  0
  -21.4030   -1.8140  -33.0130 C   0  0  0  0  0  0  0  0  0  0  0  0
  -22.1340   -2.7730  -33.6930 C   0  0  0  0  0  0  0  0  0  0  0  0
  -22.6700   -2.2130  -34.8100 N   0  0  0  0  0  0  0  0  0  0  0  0
  -22.2990   -0.9260  -34.8570 C   0  0  0  0  0  0  0  0  0  0  0  0
  -22.1740   -4.0340  -33.1370 C   0  0  0  0  0  3  0  0  0  0  0  0
  -21.5190   -4.3280  -31.9600 C   0  0  0  0  0  3  0  0  0  0  0  0
  -20.7900   -3.3710  -31.2840 C   0  0  0  0  0  3  0  0  0  0  0  0
  -20.7400   -2.0990  -31.8280 C   0  0  0  0  0  3  0  0  0  0  0  0
  -21.1450    1.1760  -36.8650 H   0  0  0  0  0  0  0  0  0  0  0  0
  -22.1830    2.1040  -35.9880 H   0  0  0  0  0  0  0  0  0  0  0  0
  -23.2600   -2.7730  -35.4630 H   0  0  0  0  0  0  0  0  0  0  0  0
  -22.7320   -0.5140  -37.1560 C   0  0  0  0  0  0  0  0  0  0  0  0
  -23.5440   -1.6120  -37.3450 C   0  0  0  0  0  3  0  0  0  0  0  0
  -23.6000   -2.1410  -38.6170 C   0  0  0  0  0  0  0  0  0  0  0  0
  -22.8980   -1.6350  -39.6900 C   0  0  0  0  0  0  0  0  0  0  0  0
  -24.7130   -3.6600  -38.9130 Br  0  0  0  0  0  0  0  0  0  0  0  0
  -22.0910   -0.5400  -39.4930 C   0  0  0  0  0  0  0  0  0  0  0  0
  -21.1070    0.1880  -40.9470 Br  0  0  0  0  0  0  0  0  0  0  0  0
  -22.0200    0.0120  -38.2110 C   0  0  0  0  0  3  0  0  0  0  0  0
  -23.0100   -2.2340  -40.9600 O   0  0  0  0  0  0  0  0  0  0  0  0
  -22.2930   -2.8910  -41.2350 H   0  0  0  0  0  0  0  0  0  0  0  0
  -19.3240    0.8410  -35.3300 C   0  0  0  0  0  0  0  0  0  0  0  0
  -19.1860    0.2920  -36.4770 O   0  0  0  0  0  0  0  0  0  0  0  0
  -18.2470    0.9750  -34.4700 O   0  0  0  0  0  1  0  0  0  0  0  0
  1 17  1  6  0  0  0
  1  9  1  0  0  0  0
  2  1  1  0  0  0  0
  2  3  1  0  0  0  0
  3 27  1  6  0  0  0
  3  4  1  0  0  0  0
  5  4  1  0  0  0  0
  5  6  1  0  0  0  0
  6 13  1  0  0  0  0
  7 10  1  0  0  0  0
  7  6  2  0  0  0  0
  8  7  1  0  0  0  0
  9  8  1  0  0  0  0
  9  5  2  0  0  0  0
 10 11  2  0  0  0  0
 11 12  1  0  0  0  0
 13 12  2  0  0  0  0
 14  2  1  0  0  0  0
 15  2  1  0  0  0  0
 16  8  1  0  0  0  0
 18 17  1  0  0  0  0
 19 18  2  0  0  0  0
 20 22  2  0  0  0  0
 20 19  1  0  0  0  0
 21 19  1  0  0  0  0
 22 24  1  0  0  0  0
 23 22  1  0  0  0  0
 24 17  2  0  0  0  0
 25 20  1  0  0  0  0
 26 25  1  0  0  0  0
 27 29  1  0  0  0  0
 28 27  2  0  0  0  0
M  END
>  <Pose>
1

>  <Score>
-8.583

$$$$
