MODEL 1
REMARK VINA RESULT:    -7.190      0.000      0.000
REMARK INTER + INTRA:         -10.530
REMARK INTER:                  -9.712
REMARK INTRA:                  -0.819
REMARK UNBOUND:                -0.819
REMARK  6 active torsions:
REMARK  status: ('A' for Active; 'I' for Inactive)
REMARK    1  A    between atoms: C_3  and  O_19 
REMARK    2  A    between atoms: C_4  and  C_8 
REMARK    3  A    between atoms: C_8  and  N_9 
REMARK    4  A    between atoms: O_19  and  C_20 
REMARK    5  A    between atoms: C_20  and  C_21 
REMARK    6  A    between atoms: C_21  and  O_23 
ROOT
ATOM      1 Br   UNK d   1     -20.457  -4.929 -28.012  0.00  0.00    -0.048 Br
ATOM      2  C   UNK d   1     -20.029  -3.152 -28.605  0.00  0.00     0.044 A 
ATOM      3  C   UNK d   1     -20.038  -2.830 -29.916  0.00  0.00     0.094 A 
ATOM      4  C   UNK d   1     -19.657  -1.526 -30.347  0.00  0.00     0.003 A 
ATOM      5  C   UNK d   1     -19.282  -0.635 -29.402  0.00  0.00     0.012 A 
ATOM      6  C   UNK d   1     -19.269  -0.989 -28.067  0.00  0.00     0.002 A 
ATOM      7  C   UNK d   1     -19.639  -2.233 -27.656  0.00  0.00     0.022 A 
ENDROOT
BRANCH   4   8
ATOM      8  C   UNK d   1     -19.334  -1.464 -31.786  0.00  0.00     0.283 C 
BRANCH   8   9
ATOM      9  N   UNK d   1     -20.173  -0.807 -32.702  0.00  0.00    -0.010 N 
ATOM     10  C   UNK d   1     -21.380  -0.260 -32.331  0.00  0.00     0.512 C 
ATOM     11  N   UNK d   1     -22.006   0.485 -33.420  0.00  0.00     0.143 N 
ATOM     12  C   UNK d   1     -22.189  -0.435 -34.531  0.00  0.00     0.547 C 
ATOM     13  C   UNK d   1     -21.199   1.577 -33.906  0.00  0.00     0.284 C 
ATOM     14  N   UNK d   1     -20.946  -1.062 -34.931  0.00  0.00     0.143 N 
ATOM     15  C   UNK d   1     -20.285  -1.731 -33.882  0.00  0.00     0.512 C 
ATOM     16  C   UNK d   1     -20.087  -0.037 -35.488  0.00  0.00     0.284 C 
ATOM     17  C   UNK d   1     -19.881   0.981 -34.395  0.00  0.00     0.069 C 
ATOM     18  C   UNK d   1     -19.280   0.281 -33.233  0.00  0.00     0.250 C 
ENDBRANCH   8   9
ENDBRANCH   4   8
BRANCH   3  19
ATOM     19  O   UNK d   1     -20.405  -3.726 -30.855  0.00  0.00    -0.340 OA
BRANCH  19  20
ATOM     20  C   UNK d   1     -21.776  -4.016 -31.195  0.00  0.00     0.286 C 
BRANCH  20  21
ATOM     21  C   UNK d   1     -22.019  -4.723 -32.449  0.00  0.00     0.282 C 
ATOM     22  O   UNK d   1     -22.364  -4.200 -33.499  0.00  0.00    -0.263 OA
BRANCH  21  23
ATOM     23  O   UNK d   1     -21.809  -6.107 -32.456  0.00  0.00    -0.325 OA
ATOM     24  C   UNK d   1     -22.682  -7.012 -33.077  0.00  0.00     0.213 C 
ENDBRANCH  21  23
ENDBRANCH  20  21
ENDBRANCH  19  20
ENDBRANCH   3  19
TORSDOF 6
ENDMDL
