MODEL 1
REMARK VINA RESULT:    -8.345      0.000      0.000
REMARK INTER + INTRA:         -12.347
REMARK INTER:                 -11.273
REMARK INTRA:                  -1.074
REMARK UNBOUND:                -1.074
REMARK  7 active torsions:
REMARK  status: ('A' for Active; 'I' for Inactive)
REMARK    1  A    between atoms: C_3  and  O_30 
REMARK    2  A    between atoms: C_5  and  O_29 
REMARK    3  A    between atoms: C_6  and  C_8 
REMARK    4  A    between atoms: N_9  and  N_10 
REMARK    5  A    between atoms: N_10  and  C_11 
REMARK    6  A    between atoms: C_13  and  N_23 
REMARK    7  A    between atoms: C_15  and  N_17 
ROOT
ATOM      1  C   UNK d   1     -18.963   0.153 -33.050  0.00  0.00     0.774 A 
ATOM      2  N   UNK d   1     -18.673   1.441 -33.135  0.00  0.00     0.133 NA
ATOM      3  C   UNK d   1     -19.498   2.372 -33.647  0.00  0.00     0.756 A 
ATOM      4  N   UNK d   1     -20.696   1.937 -34.095  0.00  0.00     0.131 NA
ATOM      5  C   UNK d   1     -21.052   0.626 -34.034  0.00  0.00     0.756 A 
ATOM      6  N   UNK d   1     -20.167  -0.254 -33.504  0.00  0.00     0.133 NA
ENDROOT
BRANCH   1   7
ATOM      7  N   UNK d   1     -18.012  -0.764 -32.522  0.00  0.00    -0.105 N 
ATOM      8  H   UNK d   1     -17.254  -1.106 -33.124  0.00  0.00     0.208 HD
BRANCH   7   9
ATOM      9  N   UNK d   1     -18.104  -1.195 -31.210  0.00  0.00    -0.171 NA
ATOM     10  C   UNK d   1     -18.912  -0.696 -30.339  0.00  0.00     0.153 C 
BRANCH  10  11
ATOM     11  C   UNK d   1     -18.969  -1.180 -28.975  0.00  0.00     0.018 A 
ATOM     12  C   UNK d   1     -19.458  -2.458 -28.709  0.00  0.00     0.080 A 
ATOM     13  C   UNK d   1     -19.557  -2.965 -27.440  0.00  0.00     0.075 A 
ATOM     14  C   UNK d   1     -19.167  -2.224 -26.341  0.00  0.00     0.085 A 
ATOM     15  C   UNK d   1     -18.675  -0.951 -26.580  0.00  0.00     0.045 A 
ATOM     16 Br   UNK d   1     -18.122   0.093 -25.091  0.00  0.00    -0.048 Br
ATOM     17  C   UNK d   1     -18.584  -0.456 -27.867  0.00  0.00     0.037 A 
BRANCH  12  18
ATOM     18  O   UNK d   1     -19.854  -3.215 -29.818  0.00  0.00    -0.360 OA
ATOM     19  H   UNK d   1     -19.417  -4.120 -29.962  0.00  0.00     0.217 HD
ENDBRANCH  12  18
BRANCH  14  20
ATOM     20  O   UNK d   1     -19.270  -2.750 -25.055  0.00  0.00    -0.359 OA
ATOM     21  H   UNK d   1     -19.541  -3.702 -24.859  0.00  0.00     0.217 HD
ENDBRANCH  14  20
ENDBRANCH  10  11
ENDBRANCH   7   9
ENDBRANCH   1   7
BRANCH   3  22
ATOM     22  N   UNK d   1     -19.137   3.761 -33.723  0.00  0.00    -0.209 N 
ATOM     23  C   UNK d   1     -20.129   4.782 -33.901  0.00  0.00     0.167 C 
ATOM     24  C   UNK d   1     -19.685   6.180 -33.712  0.00  0.00     0.188 C 
ATOM     25  O   UNK d   1     -18.309   6.359 -33.748  0.00  0.00    -0.388 OA
ATOM     26  C   UNK d   1     -17.642   5.450 -32.938  0.00  0.00     0.188 C 
ATOM     27  C   UNK d   1     -17.749   4.105 -33.615  0.00  0.00     0.167 C 
ENDBRANCH   3  22
BRANCH   5  28
ATOM     28  N   UNK d   1     -22.299   0.185 -34.520  0.00  0.00    -0.209 N 
ATOM     29  C   UNK d   1     -23.193   1.077 -35.212  0.00  0.00     0.167 C 
ATOM     30  C   UNK d   1     -23.527   0.372 -36.534  0.00  0.00     0.188 C 
ATOM     31  O   UNK d   1     -23.982  -0.902 -36.260  0.00  0.00    -0.388 OA
ATOM     32  C   UNK d   1     -22.942  -1.701 -35.787  0.00  0.00     0.188 C 
ATOM     33  C   UNK d   1     -22.694  -1.191 -34.351  0.00  0.00     0.167 C 
ENDBRANCH   5  28
TORSDOF 7
ENDMDL
