/Users/jonathanwahrer/Desktop/Msc/3_Semester/Drug_Design_Praktikum/waehrer_HTS_screening/HTS_experiment/out/docking_results/vina_output/5l4q/0035_docked.pdbqt
 OpenBabel03212217423D

 33 36  0  0  0  0  0  0  0  0999 V2000
  -20.9910   -1.6530  -33.4660 C   0  0  0  0  0  0  0  0  0  0  0  0
  -20.0170   -0.7650  -33.6830 N   0  0  0  0  0  4  0  0  0  0  0  0
  -20.0420    0.0950  -34.7360 C   0  0  0  0  0  0  0  0  0  0  0  0
  -21.0810    0.0480  -35.5850 N   0  0  0  0  0  0  0  0  0  0  0  0
  -22.0750   -0.8320  -35.3940 C   0  0  0  0  0  0  0  0  0  0  0  0
  -22.0150   -1.6810  -34.3250 N   0  0  0  0  0  2  0  0  0  0  0  0
  -20.9090   -2.5120  -32.3500 N   0  0  0  0  0  0  0  0  0  0  0  0
  -21.2730   -3.4820  -32.4510 H   0  0  0  0  0  0  0  0  0  0  0  0
  -20.3480   -2.0860  -31.1140 N   0  0  0  0  0  0  0  0  0  0  0  0
  -20.5420   -2.7690  -30.0350 C   0  0  0  0  0  3  0  0  0  0  0  0
  -20.0150   -2.4190  -28.7380 C   0  0  0  0  0  0  0  0  0  0  0  0
  -19.8490   -3.3470  -27.7380 C   0  0  0  0  0  0  0  0  0  0  0  0
  -20.3360   -5.1490  -28.1230 Br  0  0  0  0  0  0  0  0  0  0  0  0
  -19.3500   -3.0050  -26.4930 C   0  0  0  0  0  0  0  0  0  0  0  0
  -19.0040   -1.6870  -26.2390 C   0  0  0  0  0  3  0  0  0  0  0  0
  -19.1610   -0.7390  -27.2240 C   0  0  0  0  0  0  0  0  0  0  0  0
  -19.6640   -1.1210  -28.4590 C   0  0  0  0  0  3  0  0  0  0  0  0
  -19.1940   -3.9610  -25.5070 O   0  0  0  0  0  0  0  0  0  0  0  0
  -18.5120   -4.6940  -25.6530 H   0  0  0  0  0  0  0  0  0  0  0  0
  -18.8030    0.5670  -26.9270 O   0  0  0  0  0  0  0  0  0  0  0  0
  -18.9540    1.3520  -27.5450 H   0  0  0  0  0  0  0  0  0  0  0  0
  -18.9610    0.9890  -34.8750 N   0  0  0  0  0  0  0  0  0  0  0  0
  -18.4710    1.3030  -36.1900 C   0  0  0  0  0  2  0  0  0  0  0  0
  -18.5560    2.8340  -36.2960 C   0  0  0  0  0  2  0  0  0  0  0  0
  -17.6980    3.3220  -35.3100 O   0  0  0  0  0  0  0  0  0  0  0  0
  -18.1830    3.0820  -34.0290 C   0  0  0  0  0  2  0  0  0  0  0  0
  -18.3200    1.6010  -33.7360 C   0  0  0  0  0  2  0  0  0  0  0  0
  -23.1820   -0.8900  -36.2930 N   0  0  0  0  0  0  0  0  0  0  0  0
  -23.4660   -2.0270  -37.1360 C   0  0  0  0  0  2  0  0  0  0  0  0
  -23.7930   -1.5820  -38.5460 C   0  0  0  0  0  2  0  0  0  0  0  0
  -23.7220   -0.2050  -38.6980 O   0  0  0  0  0  0  0  0  0  0  0  0
  -24.6050    0.4010  -37.7840 C   0  0  0  0  0  2  0  0  0  0  0  0
  -24.0720    0.2500  -36.3730 C   0  0  0  0  0  2  0  0  0  0  0  0
  1  7  1  0  0  0  0
  2  1  2  0  0  0  0
  3  2  2  0  0  0  0
  4  5  2  0  0  0  0
  4  3  1  0  0  0  0
  5  6  1  0  0  0  0
  6  1  1  0  0  0  0
  7  9  1  0  0  0  0
  8  7  1  0  0  0  0
  9 10  2  0  0  0  0
 10 11  1  0  0  0  0
 11 17  2  0  0  0  0
 11 12  1  0  0  0  0
 12 14  2  0  0  0  0
 13 12  1  0  0  0  0
 14 15  1  0  0  0  0
 14 18  1  0  0  0  0
 16 20  1  0  0  0  0
 16 15  2  0  0  0  0
 17 16  1  0  0  0  0
 19 18  1  0  0  0  0
 21 20  1  0  0  0  0
 22  3  1  0  0  0  0
 22 27  1  0  0  0  0
 23 22  1  0  0  0  0
 24 23  1  0  0  0  0
 24 25  1  0  0  0  0
 25 26  1  0  0  0  0
 26 27  1  0  0  0  0
 28  5  1  0  0  0  0
 29 28  1  0  0  0  0
 30 29  1  0  0  0  0
 31 30  1  0  0  0  0
 31 32  1  0  0  0  0
 32 33  1  0  0  0  0
 33 28  1  0  0  0  0
M  END
>  <Pose>
1

>  <Score>
-8.916

$$$$
