MODEL 1
REMARK VINA RESULT:    -8.916      0.000      0.000
REMARK INTER + INTRA:         -12.867
REMARK INTER:                 -12.044
REMARK INTRA:                  -0.823
REMARK UNBOUND:                -0.823
REMARK  7 active torsions:
REMARK  status: ('A' for Active; 'I' for Inactive)
REMARK    1  A    between atoms: C_3  and  O_30 
REMARK    2  A    between atoms: C_5  and  O_29 
REMARK    3  A    between atoms: C_7  and  C_8 
REMARK    4  A    between atoms: N_9  and  N_10 
REMARK    5  A    between atoms: N_10  and  C_11 
REMARK    6  A    between atoms: C_13  and  N_23 
REMARK    7  A    between atoms: C_15  and  N_17 
ROOT
ATOM      1  C   UNK d   1     -20.991  -1.653 -33.466  0.00  0.00     0.774 A 
ATOM      2  N   UNK d   1     -20.017  -0.765 -33.683  0.00  0.00     0.133 NA
ATOM      3  C   UNK d   1     -20.042   0.095 -34.736  0.00  0.00     0.756 A 
ATOM      4  N   UNK d   1     -21.081   0.048 -35.585  0.00  0.00     0.131 NA
ATOM      5  C   UNK d   1     -22.075  -0.832 -35.394  0.00  0.00     0.756 A 
ATOM      6  N   UNK d   1     -22.015  -1.681 -34.325  0.00  0.00     0.133 NA
ENDROOT
BRANCH   1   7
ATOM      7  N   UNK d   1     -20.909  -2.512 -32.350  0.00  0.00    -0.105 N 
ATOM      8  H   UNK d   1     -21.273  -3.482 -32.451  0.00  0.00     0.208 HD
BRANCH   7   9
ATOM      9  N   UNK d   1     -20.348  -2.086 -31.114  0.00  0.00    -0.172 NA
ATOM     10  C   UNK d   1     -20.542  -2.769 -30.035  0.00  0.00     0.152 C 
BRANCH  10  11
ATOM     11  C   UNK d   1     -20.015  -2.419 -28.738  0.00  0.00     0.006 A 
ATOM     12  C   UNK d   1     -19.849  -3.347 -27.738  0.00  0.00     0.056 A 
ATOM     13 Br   UNK d   1     -20.336  -5.149 -28.123  0.00  0.00    -0.047 Br
ATOM     14  C   UNK d   1     -19.350  -3.005 -26.493  0.00  0.00     0.086 A 
ATOM     15  C   UNK d   1     -19.004  -1.687 -26.239  0.00  0.00     0.074 A 
ATOM     16  C   UNK d   1     -19.161  -0.739 -27.224  0.00  0.00     0.069 A 
ATOM     17  C   UNK d   1     -19.664  -1.121 -28.459  0.00  0.00     0.051 A 
BRANCH  14  18
ATOM     18  O   UNK d   1     -19.194  -3.961 -25.507  0.00  0.00    -0.359 OA
ATOM     19  H   UNK d   1     -18.512  -4.694 -25.653  0.00  0.00     0.217 HD
ENDBRANCH  14  18
BRANCH  16  20
ATOM     20  O   UNK d   1     -18.803   0.567 -26.927  0.00  0.00    -0.361 OA
ATOM     21  H   UNK d   1     -18.954   1.352 -27.545  0.00  0.00     0.217 HD
ENDBRANCH  16  20
ENDBRANCH  10  11
ENDBRANCH   7   9
ENDBRANCH   1   7
BRANCH   3  22
ATOM     22  N   UNK d   1     -18.961   0.989 -34.875  0.00  0.00    -0.209 N 
ATOM     23  C   UNK d   1     -18.471   1.303 -36.190  0.00  0.00     0.167 C 
ATOM     24  C   UNK d   1     -18.556   2.834 -36.296  0.00  0.00     0.188 C 
ATOM     25  O   UNK d   1     -17.698   3.322 -35.310  0.00  0.00    -0.388 OA
ATOM     26  C   UNK d   1     -18.183   3.082 -34.029  0.00  0.00     0.188 C 
ATOM     27  C   UNK d   1     -18.320   1.601 -33.736  0.00  0.00     0.167 C 
ENDBRANCH   3  22
BRANCH   5  28
ATOM     28  N   UNK d   1     -23.182  -0.890 -36.293  0.00  0.00    -0.209 N 
ATOM     29  C   UNK d   1     -23.466  -2.027 -37.136  0.00  0.00     0.167 C 
ATOM     30  C   UNK d   1     -23.793  -1.582 -38.546  0.00  0.00     0.188 C 
ATOM     31  O   UNK d   1     -23.722  -0.205 -38.698  0.00  0.00    -0.388 OA
ATOM     32  C   UNK d   1     -24.605   0.401 -37.784  0.00  0.00     0.188 C 
ATOM     33  C   UNK d   1     -24.072   0.250 -36.373  0.00  0.00     0.167 C 
ENDBRANCH   5  28
TORSDOF 7
ENDMDL
