/Users/jonathanwahrer/Desktop/Msc/3_Semester/Drug_Design_Praktikum/waehrer_HTS_screening/HTS_experiment/out/docking_results/vina_output/5l4q/0039_docked.pdbqt
 OpenBabel03212217423D

 21 23  0  0  1  0  0  0  0  0999 V2000
  -20.7240   -2.0380  -30.9180 N   0  0  0  0  0  0  0  0  0  0  0  0
  -20.1330   -1.7260  -32.1430 C   0  0  0  0  0  0  0  0  0  0  0  0
  -19.0270   -1.1700  -32.2050 O   0  0  0  0  0  0  0  0  0  0  0  0
  -21.6730   -2.5150  -30.9690 H   0  0  0  0  0  0  0  0  0  0  0  0
  -20.8460   -2.0710  -33.3890 C   0  0  0  0  0  2  0  0  0  0  0  0
  -21.5020   -0.9920  -34.0520 N   0  0  1  0  0  4  0  0  0  0  0  0
  -22.7350   -1.5250  -34.6520 C   0  0  0  0  0  2  0  0  0  0  0  0
  -23.6870   -0.3660  -34.8150 C   0  0  0  0  0  2  0  0  0  0  0  0
  -22.8690    0.7690  -35.2390 N   0  0  1  0  0  0  0  0  0  0  0  0
  -22.2690    1.2950  -34.0160 C   0  0  0  0  0  2  0  0  0  0  0  0
  -21.7750    0.2860  -36.0670 C   0  0  0  0  0  2  0  0  0  0  0  0
  -21.8430    0.1120  -33.1580 C   0  0  0  0  0  2  0  0  0  0  0  0
  -20.7590   -0.4240  -35.1580 C   0  0  0  0  0  2  0  0  0  0  0  0
  -20.2280   -1.8030  -29.6150 C   0  0  0  0  0  0  0  0  0  0  0  0
  -19.9690   -2.8750  -28.7490 C   0  0  0  0  0  0  0  0  0  0  0  0
  -20.3310   -4.6290  -29.4460 Br  0  0  0  0  0  0  0  0  0  0  0  0
  -19.4880   -2.7100  -27.4730 C   0  0  0  0  0  3  0  0  0  0  0  0
  -19.2240   -1.4620  -26.9610 C   0  0  0  0  0  0  0  0  0  0  0  0
  -19.4690   -0.3960  -27.7910 C   0  0  0  0  0  3  0  0  0  0  0  0
  -18.7000   -1.2700  -25.5740 C   0  0  0  0  0  1  0  0  0  0  0  0
  -19.9600   -0.5570  -29.0890 C   0  0  0  0  0  3  0  0  0  0  0  0
  1 14  1  0  0  0  0
  2  1  1  0  0  0  0
  3  2  2  0  0  0  0
  4  1  1  0  0  0  0
  5  2  1  0  0  0  0
  6  5  1  1  0  0  0
  6 12  1  0  0  0  0
  7  6  1  0  0  0  0
  8  7  1  0  0  0  0
  9 11  1  6  0  0  0
  9  8  1  0  0  0  0
  9 10  1  0  0  0  0
 10 12  1  0  0  0  0
 11 13  1  0  0  0  0
 13  6  1  0  0  0  0
 14 21  2  0  0  0  0
 14 15  1  0  0  0  0
 15 17  2  0  0  0  0
 16 15  1  0  0  0  0
 17 18  1  0  0  0  0
 18 20  1  0  0  0  0
 19 18  2  0  0  0  0
 21 19  1  0  0  0  0
M  END
>  <Pose>
1

>  <Score>
-7.140

$$$$
