MODEL 1
REMARK VINA RESULT:    -6.857      0.000      0.000
REMARK INTER + INTRA:          -7.460
REMARK INTER:                  -7.458
REMARK INTRA:                  -0.002
REMARK UNBOUND:                -0.002
REMARK  2 active torsions:
REMARK  status: ('A' for Active; 'I' for Inactive)
REMARK    1  A    between atoms: C_3  and  C_8 
REMARK    2  A    between atoms: C_12  and  N_16 
ROOT
ATOM      1  C   UNK d   1     -20.698   0.497 -34.243  0.00  0.00     0.084 A 
ATOM      2  C   UNK d   1     -21.074   0.780 -35.557  0.00  0.00     0.166 A 
ATOM      3  C   UNK d   1     -22.332   1.059 -36.303  0.00  0.00     0.295 C 
ATOM      4  N   UNK d   1     -22.190   2.534 -36.216  0.00  0.00    -0.209 NA
ATOM      5  C   UNK d   1     -21.744   2.819 -35.033  0.00  0.00     0.124 C 
ATOM      6  C   UNK d   1     -21.594   1.586 -34.327  0.00  0.00     0.146 A 
ATOM      7  C   UNK d   1     -22.935   1.215 -33.783  0.00  0.00     0.080 C 
ATOM      8  N   UNK d   1     -23.986   0.918 -33.327  0.00  0.00    -0.196 NA
ATOM      9  O   UNK d   1     -22.146   0.661 -37.632  0.00  0.00    -0.333 OA
ATOM     10  C   UNK d   1     -23.224  -0.135 -37.970  0.00  0.00     0.199 C 
ATOM     11  C   UNK d   1     -24.296   0.347 -37.008  0.00  0.00     0.199 C 
ATOM     12  O   UNK d   1     -23.491   0.562 -35.862  0.00  0.00    -0.333 OA
ATOM     13  C   UNK d   1     -19.973   1.454 -36.334  0.00  0.00     0.080 C 
ATOM     14  N   UNK d   1     -19.099   1.984 -36.925  0.00  0.00    -0.196 NA
ENDROOT
BRANCH   1  15
ATOM     15  C   UNK d   1     -21.097  -0.825 -33.694  0.00  0.00    -0.032 A 
ATOM     16  C   UNK d   1     -20.784  -1.208 -32.414  0.00  0.00     0.017 A 
ATOM     17 Br   UNK d   1     -19.821  -0.063 -31.229  0.00  0.00    -0.051 Br
ATOM     18  C   UNK d   1     -21.188  -2.463 -31.979  0.00  0.00     0.019 A 
ATOM     19  C   UNK d   1     -21.901  -3.334 -32.810  0.00  0.00     0.001 A 
ATOM     20  C   UNK d   1     -22.204  -2.930 -34.088  0.00  0.00     0.001 A 
ATOM     21  C   UNK d   1     -21.798  -1.673 -34.517  0.00  0.00     0.009 A 
ENDBRANCH   1  15
BRANCH   5  22
ATOM     22  N   UNK d   1     -21.458   4.147 -34.538  0.00  0.00    -0.386 N 
ATOM     23  H   UNK d   1     -22.222   4.816 -34.326  0.00  0.00     0.157 HD
ATOM     24  H   UNK d   1     -20.480   4.455 -34.384  0.00  0.00     0.157 HD
ENDBRANCH   5  22
TORSDOF 2
ENDMDL
