/Users/jonathanwahrer/Desktop/Msc/3_Semester/Drug_Design_Praktikum/waehrer_HTS_screening/HTS_experiment/out/docking_results/vina_output/5l4q/0064_docked.pdbqt
 OpenBabel03212217423D

 22 25  0  0  1  0  0  0  0  0999 V2000
  -21.6610    0.1080  -35.7640 N   0  0  0  0  0  0  0  0  0  0  0  0
  -22.8210    0.8260  -36.1510 C   0  0  0  0  0  0  0  0  0  0  0  0
  -23.8090    1.0080  -35.4190 O   0  0  0  0  0  0  0  0  0  0  0  0
  -22.6980    1.3300  -37.5380 C   0  0  2  0  0  3  0  0  0  0  0  0
  -23.6830    0.7230  -38.4740 C   0  0  1  0  0  0  0  0  0  0  0  0
  -22.9140    0.2270  -39.5600 O   0  0  0  0  0  0  0  0  0  0  0  0
  -22.0030   -0.5250  -38.7730 C   0  0  1  0  0  3  0  0  0  0  0  0
  -21.3960    0.6590  -38.0110 C   0  0  2  0  0  3  0  0  0  0  0  0
  -20.6830    0.2190  -36.8030 C   0  0  0  0  0  0  0  0  0  0  0  0
  -19.4630   -0.0200  -36.6670 O   0  0  0  0  0  0  0  0  0  0  0  0
  -22.9430   -1.2970  -37.9330 C   0  0  0  0  0  2  0  0  0  0  0  0
  -24.0780   -0.5980  -37.8940 C   0  0  0  0  0  2  0  0  0  0  0  0
  -21.4190   -0.6340  -34.5760 C   0  0  0  0  0  0  0  0  0  0  0  0
  -20.7420   -0.1350  -33.4870 C   0  0  0  0  0  0  0  0  0  0  0  0
  -20.0990    1.6780  -33.6120 Br  0  0  0  0  0  0  0  0  0  0  0  0
  -20.5190   -0.8750  -32.3470 C   0  0  0  0  0  3  0  0  0  0  0  0
  -20.9660   -2.1650  -32.2420 C   0  0  0  0  0  3  0  0  0  0  0  0
  -21.6540   -2.7020  -33.3250 C   0  0  0  0  0  3  0  0  0  0  0  0
  -21.8690   -1.9450  -34.4600 C   0  0  0  0  0  3  0  0  0  0  0  0
  -24.8160    1.5550  -38.9060 C   0  0  0  0  0  2  0  0  0  0  0  0
  -25.9520    1.1610  -38.1750 O   0  0  0  0  0  0  0  0  0  0  0  0
  -26.7740    1.5070  -38.6300 H   0  0  0  0  0  0  0  0  0  0  0  0
  1 13  1  0  0  0  0
  2  1  1  0  0  0  0
  2  3  2  0  0  0  0
  4  2  1  1  0  0  0
  5 20  1  6  0  0  0
  5 12  1  0  0  0  0
  5  4  1  0  0  0  0
  6  7  1  0  0  0  0
  6  5  1  0  0  0  0
  7  8  1  0  0  0  0
  7 11  1  1  0  0  0
  8  4  1  0  0  0  0
  8  9  1  1  0  0  0
  9 10  2  0  0  0  0
  9  1  1  0  0  0  0
 11 12  1  0  0  0  0
 13 19  2  0  0  0  0
 13 14  1  0  0  0  0
 14 16  2  0  0  0  0
 15 14  1  0  0  0  0
 16 17  1  0  0  0  0
 18 17  2  0  0  0  0
 19 18  1  0  0  0  0
 20 21  1  0  0  0  0
 22 21  1  0  0  0  0
M  END
>  <Pose>
1

>  <Score>
-6.861

$$$$
