MODEL 1
REMARK VINA RESULT:    -7.378      0.000      0.000
REMARK INTER + INTRA:          -7.140
REMARK INTER:                  -8.672
REMARK INTRA:                   1.532
REMARK UNBOUND:                 1.532
REMARK  3 active torsions:
REMARK  status: ('A' for Active; 'I' for Inactive)
REMARK    1  A    between atoms: C_3  and  N_8 
REMARK    2  A    between atoms: C_13  and  C_17 
REMARK    3  A    between atoms: C_17  and  O_19 
ROOT
ATOM      1  N   UNK d   1     -20.092  -2.083 -30.471  0.00  0.00    -0.313 N 
ATOM      2  C   UNK d   1     -20.549  -3.090 -29.495  0.00  0.00     0.175 C 
ATOM      3  C   UNK d   1     -19.968  -2.584 -28.258  0.00  0.00     0.109 C 
ATOM      4  O   UNK d   1     -20.718  -1.609 -27.578  0.00  0.00    -0.364 OA
ATOM      5  C   UNK d   1     -19.716  -1.298 -26.621  0.00  0.00     0.160 C 
ATOM      6  C   UNK d   1     -18.665  -0.759 -27.602  0.00  0.00     0.134 C 
ATOM      7  C   UNK d   1     -18.651  -1.870 -28.606  0.00  0.00     0.135 C 
ATOM      8  C   UNK d   1     -18.884  -1.503 -29.993  0.00  0.00     0.233 C 
ATOM      9  O   UNK d   1     -18.141  -0.781 -30.690  0.00  0.00    -0.272 OA
ATOM     10  C   UNK d   1     -19.371  -2.666 -26.133  0.00  0.00     0.005 C 
ATOM     11  C   UNK d   1     -19.661  -3.495 -27.160  0.00  0.00     0.012 C 
ENDROOT
BRANCH   1  12
ATOM     12  C   UNK d   1     -20.723  -1.721 -31.690  0.00  0.00     0.054 A 
ATOM     13  C   UNK d   1     -21.292  -2.654 -32.538  0.00  0.00     0.037 A 
ATOM     14 Br   UNK d   1     -21.276  -4.497 -32.141  0.00  0.00    -0.049 Br
ATOM     15  C   UNK d   1     -21.906  -2.263 -33.731  0.00  0.00     0.021 A 
ATOM     16  C   UNK d   1     -21.966  -0.945 -34.100  0.00  0.00     0.002 A 
ATOM     17  C   UNK d   1     -21.412  -0.014 -33.280  0.00  0.00     0.002 A 
ATOM     18  C   UNK d   1     -20.810  -0.399 -32.109  0.00  0.00     0.031 A 
ENDBRANCH   1  12
BRANCH   6  19
ATOM     19  C   UNK d   1     -19.288   0.467 -28.194  0.00  0.00     0.266 C 
ATOM     20  O   UNK d   1     -20.474   0.516 -28.550  0.00  0.00    -0.265 OA
BRANCH  19  21
ATOM     21  O   UNK d   1     -18.498   1.599 -28.350  0.00  0.00    -0.326 OA
ATOM     22  C   UNK d   1     -18.353   2.492 -27.239  0.00  0.00     0.213 C 
ENDBRANCH  19  21
ENDBRANCH   6  19
TORSDOF 3
ENDMDL
