/Users/jonathanwahrer/Desktop/Msc/3_Semester/Drug_Design_Praktikum/waehrer_HTS_screening/HTS_experiment/out/docking_results/vina_output/5l4q/0067_docked.pdbqt
 OpenBabel03212217423D

 22 25  0  0  1  0  0  0  0  0999 V2000
  -20.0920   -2.0830  -30.4710 N   0  0  0  0  0  0  0  0  0  0  0  0
  -20.5490   -3.0900  -29.4950 C   0  0  0  0  0  2  0  0  0  0  0  0
  -19.9680   -2.5840  -28.2580 C   0  0  2  0  0  0  0  0  0  0  0  0
  -20.7180   -1.6090  -27.5780 O   0  0  0  0  0  0  0  0  0  0  0  0
  -19.7160   -1.2980  -26.6210 C   0  0  2  0  0  3  0  0  0  0  0  0
  -18.6650   -0.7590  -27.6020 C   0  0  1  0  0  3  0  0  0  0  0  0
  -18.6510   -1.8700  -28.6060 C   0  0  2  0  0  3  0  0  0  0  0  0
  -18.8840   -1.5030  -29.9930 C   0  0  0  0  0  0  0  0  0  0  0  0
  -18.1410   -0.7810  -30.6900 O   0  0  0  0  0  0  0  0  0  0  0  0
  -19.3710   -2.6660  -26.1330 C   0  0  0  0  0  2  0  0  0  0  0  0
  -19.6610   -3.4950  -27.1600 C   0  0  0  0  0  2  0  0  0  0  0  0
  -20.7230   -1.7210  -31.6900 C   0  0  0  0  0  0  0  0  0  0  0  0
  -21.2920   -2.6540  -32.5380 C   0  0  0  0  0  0  0  0  0  0  0  0
  -21.2760   -4.4970  -32.1410 Br  0  0  0  0  0  0  0  0  0  0  0  0
  -21.9060   -2.2630  -33.7310 C   0  0  0  0  0  3  0  0  0  0  0  0
  -21.9660   -0.9450  -34.1000 C   0  0  0  0  0  3  0  0  0  0  0  0
  -21.4120   -0.0140  -33.2800 C   0  0  0  0  0  3  0  0  0  0  0  0
  -20.8100   -0.3990  -32.1090 C   0  0  0  0  0  3  0  0  0  0  0  0
  -19.2880    0.4670  -28.1940 C   0  0  0  0  0  0  0  0  0  0  0  0
  -20.4740    0.5160  -28.5500 O   0  0  0  0  0  0  0  0  0  0  0  0
  -18.4980    1.5990  -28.3500 O   0  0  0  0  0  0  0  0  0  0  0  0
  -18.3530    2.4920  -27.2390 C   0  0  0  0  0  1  0  0  0  0  0  0
  1  8  1  0  0  0  0
  1  2  1  0  0  0  0
  3  2  1  6  0  0  0
  3  4  1  0  0  0  0
  3 11  1  0  0  0  0
  4  5  1  0  0  0  0
  5 10  1  6  0  0  0
  6 19  1  6  0  0  0
  6  5  1  0  0  0  0
  7  8  1  6  0  0  0
  7  3  1  0  0  0  0
  7  6  1  0  0  0  0
  9  8  2  0  0  0  0
 11 10  1  0  0  0  0
 12  1  1  0  0  0  0
 13 14  1  0  0  0  0
 13 12  2  0  0  0  0
 15 13  1  0  0  0  0
 16 15  2  0  0  0  0
 16 17  1  0  0  0  0
 17 18  2  0  0  0  0
 18 12  1  0  0  0  0
 20 19  2  0  0  0  0
 21 19  1  0  0  0  0
 21 22  1  0  0  0  0
M  END
>  <Pose>
1

>  <Score>
-7.378

$$$$
