MODEL 1
REMARK VINA RESULT:    -8.361      0.000      0.000
REMARK INTER + INTRA:          -9.125
REMARK INTER:                  -9.338
REMARK INTRA:                   0.213
REMARK UNBOUND:                 0.213
REMARK  2 active torsions:
REMARK  status: ('A' for Active; 'I' for Inactive)
REMARK    1  A    between atoms: N_4  and  C_8 
REMARK    2  A    between atoms: C_8  and  C_9 
ROOT
ATOM      1  C   UNK d   1     -22.235  -1.368 -34.455  0.00  0.00     0.168 A 
ATOM      2  N   UNK d   1     -22.593  -2.664 -34.462  0.00  0.00    -0.148 NA
ATOM      3  N   UNK d   1     -22.117  -3.263 -33.368  0.00  0.00    -0.206 N 
ATOM      4  C   UNK d   1     -21.441  -2.355 -32.635  0.00  0.00     0.169 A 
ATOM      5  N   UNK d   1     -21.528  -1.202 -33.323  0.00  0.00    -0.209 NA
ATOM      6  C   UNK d   1     -20.854  -2.751 -31.448  0.00  0.00     0.079 A 
ATOM      7  C   UNK d   1     -20.935  -4.047 -30.981  0.00  0.00     0.162 A 
ATOM      8  N   UNK d   1     -20.280  -4.159 -29.808  0.00  0.00    -0.256 N 
ATOM      9  N   UNK d   1     -19.788  -2.969 -29.521  0.00  0.00    -0.182 NA
ATOM     10  C   UNK d   1     -20.115  -2.073 -30.500  0.00  0.00     0.158 A 
ATOM     11  C   UNK d   1     -20.118  -5.342 -28.979  0.00  0.00     0.182 C 
ATOM     12  N   UNK d   1     -21.618  -4.920 -31.743  0.00  0.00    -0.222 NA
ATOM     13  C   UNK d   1     -22.193  -4.524 -32.910  0.00  0.00     0.239 A 
ENDROOT
BRANCH   1  14
ATOM     14  C   UNK d   1     -22.558  -0.327 -35.492  0.00  0.00     0.233 C 
BRANCH  14  15
ATOM     15  N   UNK d   1     -22.774  -0.925 -36.789  0.00  0.00    -0.265 N 
ATOM     16  C   UNK d   1     -22.269  -0.454 -37.938  0.00  0.00     0.046 A 
ATOM     17  C   UNK d   1     -22.703  -1.297 -38.928  0.00  0.00     0.060 A 
ATOM     18  C   UNK d   1     -21.400   0.747 -38.147  0.00  0.00     0.071 C 
ATOM     19 Br   UNK d   1     -22.323  -1.161 -40.783  0.00  0.00    -0.047 Br
ATOM     20  C   UNK d   1     -23.474  -2.278 -38.359  0.00  0.00     0.070 A 
ATOM     21  N   UNK d   1     -23.489  -2.006 -37.035  0.00  0.00    -0.176 NA
ATOM     22  C   UNK d   1     -24.167  -3.427 -39.045  0.00  0.00     0.074 C 
ENDBRANCH  14  15
ENDBRANCH   1  14
TORSDOF 2
ENDMDL
