MODEL 1
REMARK VINA RESULT:    -8.277      0.000      0.000
REMARK INTER + INTRA:         -10.004
REMARK INTER:                  -9.729
REMARK INTRA:                  -0.275
REMARK UNBOUND:                -0.275
REMARK  3 active torsions:
REMARK  status: ('A' for Active; 'I' for Inactive)
REMARK    1  A    between atoms: C_3  and  C_8 
REMARK       I    between atoms: C_8  and  N_10 
REMARK    2  A    between atoms: N_10  and  C_11 
REMARK    3  A    between atoms: C_17  and  N_20 
ROOT
ATOM      1  C   UNK d   1     -20.337  -1.824 -31.333  0.00  0.00     0.069 A 
ATOM      2  C   UNK d   1     -21.046  -2.801 -32.061  0.00  0.00     0.146 A 
ATOM      3  N   UNK d   1     -21.275  -4.115 -31.792  0.00  0.00    -0.101 NA
ATOM      4  O   UNK d   1     -21.984  -4.587 -32.772  0.00  0.00    -0.106 OA
ATOM      5  N   UNK d   1     -22.223  -3.663 -33.649  0.00  0.00    -0.101 NA
ATOM      6  C   UNK d   1     -21.656  -2.516 -33.254  0.00  0.00     0.146 A 
ATOM      7  C   UNK d   1     -21.618  -1.258 -33.822  0.00  0.00     0.064 A 
ATOM      8  C   UNK d   1     -20.921  -0.303 -33.105  0.00  0.00     0.034 A 
ATOM      9  C   UNK d   1     -20.297  -0.582 -31.891  0.00  0.00     0.034 A 
ENDROOT
BRANCH   1  10
ATOM     10  N   UNK d   1     -19.746  -2.235 -30.111  0.00  0.00    -0.319 N 
ATOM     11  C   UNK d   1     -19.930  -1.616 -28.878  0.00  0.00     0.275 C 
ATOM     12  O   UNK d   1     -20.694  -0.584 -28.786  0.00  0.00    -0.266 OA
ATOM     13  H   UNK d   1     -19.115  -3.091 -30.100  0.00  0.00     0.169 HD
BRANCH  11  14
ATOM     14  C   UNK d   1     -19.291  -2.071 -27.625  0.00  0.00     0.139 A 
ATOM     15  C   UNK d   1     -18.417  -1.414 -26.823  0.00  0.00     0.064 A 
ATOM     16 Br   UNK d   1     -17.728   0.359 -26.987  0.00  0.00    -0.047 Br
ATOM     17  C   UNK d   1     -18.090  -2.294 -25.772  0.00  0.00     0.160 A 
ATOM     18  N   UNK d   1     -18.781  -3.403 -26.012  0.00  0.00    -0.183 NA
ATOM     19  N   UNK d   1     -19.508  -3.323 -27.095  0.00  0.00    -0.268 N 
ATOM     20  C   UNK d   1     -20.367  -4.344 -27.634  0.00  0.00     0.180 C 
ENDBRANCH  11  14
ENDBRANCH   1  10
BRANCH   7  21
ATOM     21  N   UNK d   1     -22.238  -0.950 -35.046  0.00  0.00    -0.375 N 
ATOM     22  C   UNK d   1     -21.421  -0.383 -36.115  0.00  0.00     0.149 C 
ATOM     23  C   UNK d   1     -22.261   0.048 -37.286  0.00  0.00     0.187 C 
ATOM     24  O   UNK d   1     -23.447   0.632 -36.986  0.00  0.00    -0.388 OA
ATOM     25  C   UNK d   1     -24.090   0.253 -35.844  0.00  0.00     0.187 C 
ATOM     26  C   UNK d   1     -23.611  -1.118 -35.415  0.00  0.00     0.149 C 
ENDBRANCH   7  21
TORSDOF 3
ENDMDL
