MODEL 1
REMARK VINA RESULT:    -7.787      0.000      0.000
REMARK INTER + INTRA:         -11.121
REMARK INTER:                 -10.063
REMARK INTRA:                  -1.058
REMARK UNBOUND:                -1.058
REMARK  5 active torsions:
REMARK  status: ('A' for Active; 'I' for Inactive)
REMARK    1  A    between atoms: C_4  and  C_10 
REMARK    2  A    between atoms: C_5  and  O_8 
REMARK    3  A    between atoms: N_15  and  C_25 
REMARK    4  A    between atoms: C_25  and  C_26 
REMARK    5  A    between atoms: C_26  and  O_27 
ROOT
ATOM      1  C   UNK d   1     -20.366   0.074 -33.118  0.00  0.00     0.188 A 
ATOM      2  N   UNK d   1     -20.386  -0.968 -32.315  0.00  0.00    -0.106 N 
ATOM      3  C   UNK d   1     -19.662  -0.714 -31.180  0.00  0.00     0.736 A 
ATOM      4  N   UNK d   1     -19.177   0.542 -31.311  0.00  0.00     0.045 NA
ATOM      5  N   UNK d   1     -19.579   1.016 -32.441  0.00  0.00    -0.114 NA
ATOM      6  N   UNK d   1     -19.693  -1.780 -30.378  0.00  0.00    -0.168 N 
ATOM      7  C   UNK d   1     -20.429  -2.717 -30.998  0.00  0.00     0.165 A 
ATOM      8  C   UNK d   1     -20.874  -2.232 -32.222  0.00  0.00     0.170 A 
ATOM      9  N   UNK d   1     -21.602  -2.953 -33.053  0.00  0.00    -0.287 N 
ATOM     10  C   UNK d   1     -21.917  -4.224 -32.653  0.00  0.00     0.330 A 
ATOM     11  O   UNK d   1     -22.607  -4.997 -33.365  0.00  0.00    -0.246 OA
ATOM     12  N   UNK d   1     -21.506  -4.727 -31.469  0.00  0.00    -0.273 N 
ATOM     13  C   UNK d   1     -20.770  -4.005 -30.633  0.00  0.00     0.280 A 
ATOM     14  O   UNK d   1     -20.357  -4.416 -29.519  0.00  0.00    -0.265 OA
ATOM     15  C   UNK d   1     -22.063  -2.622 -34.368  0.00  0.00     0.163 C 
ATOM     16  H   UNK d   1     -21.756  -5.696 -31.179  0.00  0.00     0.173 HD
ENDROOT
BRANCH   1  17
ATOM     17  C   UNK d   1     -20.886   0.473 -34.394  0.00  0.00     0.047 A 
ATOM     18  C   UNK d   1     -20.264   0.496 -35.606  0.00  0.00     0.037 A 
ATOM     19  C   UNK d   1     -20.809   0.903 -36.789  0.00  0.00     0.012 A 
ATOM     20 Br   UNK d   1     -19.758   0.856 -38.379  0.00  0.00    -0.051 Br
ATOM     21  C   UNK d   1     -22.101   1.340 -36.812  0.00  0.00     0.022 A 
ATOM     22  C   UNK d   1     -22.813   1.351 -35.622  0.00  0.00     0.039 A 
ATOM     23  C   UNK d   1     -22.223   0.931 -34.454  0.00  0.00     0.082 A 
BRANCH  23  24
ATOM     24  O   UNK d   1     -22.969   0.958 -33.288  0.00  0.00    -0.355 OA
ATOM     25  C   UNK d   1     -24.362   0.950 -33.243  0.00  0.00     0.210 C 
ENDBRANCH  23  24
ENDBRANCH   1  17
BRANCH   6  26
ATOM     26  C   UNK d   1     -19.070  -1.926 -29.095  0.00  0.00     0.174 C 
BRANCH  26  27
ATOM     27  C   UNK d   1     -19.902  -1.218 -28.047  0.00  0.00     0.187 C 
BRANCH  27  28
ATOM     28  O   UNK d   1     -20.348  -2.159 -27.140  0.00  0.00    -0.394 OA
ATOM     29  C   UNK d   1     -19.279  -2.780 -26.470  0.00  0.00     0.201 C 
ENDBRANCH  27  28
ENDBRANCH  26  27
ENDBRANCH   6  26
TORSDOF 5
ENDMDL
