MODEL 1
REMARK VINA RESULT:    -8.800      0.000      0.000
REMARK INTER + INTRA:         -11.174
REMARK INTER:                 -10.858
REMARK INTRA:                  -0.316
REMARK UNBOUND:                -0.316
REMARK  4 active torsions:
REMARK  status: ('A' for Active; 'I' for Inactive)
REMARK    1  A    between atoms: C_4  and  C_8 
REMARK    2  A    between atoms: C_8  and  C_10 
REMARK    3  A    between atoms: C_10  and  N_11 
REMARK    4  A    between atoms: N_14  and  C_17 
ROOT
ATOM      1  N   UNK d   1     -20.324  -1.366 -31.645  0.00  0.00    -0.402 N 
ATOM      2  C   UNK d   1     -20.018  -2.225 -32.728  0.00  0.00     0.137 C 
ATOM      3  C   UNK d   1     -20.750  -1.969 -33.990  0.00  0.00     0.143 C 
ATOM      4  N   UNK d   1     -20.644  -0.600 -34.380  0.00  0.00    -0.362 N 
ATOM      5  C   UNK d   1     -20.321   0.375 -33.378  0.00  0.00     0.143 C 
ATOM      6  C   UNK d   1     -20.705  -0.037 -31.976  0.00  0.00     0.137 C 
ENDROOT
BRANCH   4   7
ATOM      7  C   UNK d   1     -20.873  -0.171 -35.714  0.00  0.00     0.135 A 
ATOM      8  C   UNK d   1     -22.124   0.111 -36.074  0.00  0.00     0.125 A 
ATOM      9  N   UNK d   1     -23.383   0.093 -35.426  0.00  0.00    -0.291 N 
ATOM     10  C   UNK d   1     -22.318   0.556 -37.471  0.00  0.00     0.113 A 
ATOM     11  N   UNK d   1     -24.310   0.516 -36.406  0.00  0.00    -0.300 N 
ATOM     12  C   UNK d   1     -23.656  -0.278 -34.058  0.00  0.00     0.178 C 
ATOM     13  C   UNK d   1     -23.616   0.779 -37.611  0.00  0.00     0.053 A 
ATOM     14  H   UNK d   1     -25.327   0.597 -36.201  0.00  0.00     0.187 HD
ATOM     15  C   UNK d   1     -24.207   1.245 -38.894  0.00  0.00     0.072 C 
ATOM     16  N   UNK d   1     -21.200   0.660 -38.346  0.00  0.00    -0.240 NA
ATOM     17  C   UNK d   1     -20.010   0.376 -37.948  0.00  0.00     0.209 A 
ATOM     18  N   UNK d   1     -19.764  -0.052 -36.629  0.00  0.00    -0.335 N 
ATOM     19  H   UNK d   1     -18.827  -0.292 -36.264  0.00  0.00     0.168 HD
ENDBRANCH   4   7
BRANCH   1  20
ATOM     20  C   UNK d   1     -19.560  -1.528 -30.471  0.00  0.00     0.200 C 
BRANCH  20  21
ATOM     21  C   UNK d   1     -20.212  -2.333 -29.436  0.00  0.00     0.176 C 
ATOM     22  O   UNK d   1     -21.172  -3.080 -29.757  0.00  0.00    -0.291 OA
BRANCH  21  23
ATOM     23  C   UNK d   1     -19.731  -2.244 -28.062  0.00  0.00     0.013 A 
ATOM     24  C   UNK d   1     -19.225  -1.069 -27.573  0.00  0.00     0.034 A 
ATOM     25  C   UNK d   1     -18.758  -0.950 -26.270  0.00  0.00     0.011 A 
ATOM     26 Br   UNK d   1     -18.057   0.684 -25.593  0.00  0.00    -0.051 Br
ATOM     27  C   UNK d   1     -18.803  -2.049 -25.440  0.00  0.00     0.019 A 
ATOM     28  C   UNK d   1     -19.319  -3.233 -25.949  0.00  0.00     0.002 A 
ATOM     29  C   UNK d   1     -19.779  -3.344 -27.237  0.00  0.00     0.015 A 
ENDBRANCH  21  23
ENDBRANCH  20  21
ENDBRANCH   1  20
TORSDOF 4
ENDMDL
