/Users/jonathanwahrer/Desktop/Msc/3_Semester/Drug_Design_Praktikum/waehrer_HTS_screening/HTS_experiment/out/docking_results/vina_output/5l4q/0127_docked.pdbqt
 OpenBabel03212217443D

 29 32  0  0  0  0  0  0  0  0999 V2000
  -20.3240   -1.3660  -31.6450 N   0  0  0  0  0  0  0  0  0  0  0  0
  -20.0180   -2.2250  -32.7280 C   0  0  0  0  0  2  0  0  0  0  0  0
  -20.7500   -1.9690  -33.9900 C   0  0  0  0  0  2  0  0  0  0  0  0
  -20.6440   -0.6000  -34.3800 N   0  0  0  0  0  0  0  0  0  0  0  0
  -20.3210    0.3750  -33.3780 C   0  0  0  0  0  2  0  0  0  0  0  0
  -20.7050   -0.0370  -31.9760 C   0  0  0  0  0  2  0  0  0  0  0  0
  -20.8730   -0.1710  -35.7140 C   0  0  0  0  0  0  0  0  0  0  0  0
  -22.1240    0.1110  -36.0740 C   0  0  0  0  0  0  0  0  0  0  0  0
  -23.3830    0.0930  -35.4260 N   0  0  0  0  0  0  0  0  0  0  0  0
  -22.3180    0.5560  -37.4710 C   0  0  0  0  0  0  0  0  0  0  0  0
  -24.3100    0.5160  -36.4060 N   0  0  0  0  0  0  0  0  0  0  0  0
  -23.6560   -0.2780  -34.0580 C   0  0  0  0  0  1  0  0  0  0  0  0
  -23.6160    0.7790  -37.6110 C   0  0  0  0  0  0  0  0  0  0  0  0
  -25.3270    0.5970  -36.2010 H   0  0  0  0  0  0  0  0  0  0  0  0
  -24.2070    1.2450  -38.8940 C   0  0  0  0  0  1  0  0  0  0  0  0
  -21.2000    0.6600  -38.3460 N   0  0  0  0  0  0  0  0  0  0  0  0
  -20.0100    0.3760  -37.9480 C   0  0  0  0  0  3  0  0  0  0  0  0
  -19.7640   -0.0520  -36.6290 N   0  0  0  0  0  0  0  0  0  0  0  0
  -18.8270   -0.2920  -36.2640 H   0  0  0  0  0  0  0  0  0  0  0  0
  -19.5600   -1.5280  -30.4710 C   0  0  0  0  0  2  0  0  0  0  0  0
  -20.2120   -2.3330  -29.4360 C   0  0  0  0  0  0  0  0  0  0  0  0
  -21.1720   -3.0800  -29.7570 O   0  0  0  0  0  0  0  0  0  0  0  0
  -19.7310   -2.2440  -28.0620 C   0  0  0  0  0  0  0  0  0  0  0  0
  -19.2250   -1.0690  -27.5730 C   0  0  0  0  0  3  0  0  0  0  0  0
  -18.7580   -0.9500  -26.2700 C   0  0  0  0  0  0  0  0  0  0  0  0
  -18.0570    0.6840  -25.5930 Br  0  0  0  0  0  0  0  0  0  0  0  0
  -18.8030   -2.0490  -25.4400 C   0  0  0  0  0  3  0  0  0  0  0  0
  -19.3190   -3.2330  -25.9490 C   0  0  0  0  0  3  0  0  0  0  0  0
  -19.7790   -3.3440  -27.2370 C   0  0  0  0  0  3  0  0  0  0  0  0
  1 20  1  0  0  0  0
  2  1  1  0  0  0  0
  3  2  1  0  0  0  0
  4  3  1  0  0  0  0
  4  5  1  0  0  0  0
  5  6  1  0  0  0  0
  6  1  1  0  0  0  0
  7  4  1  0  0  0  0
  8  7  2  0  0  0  0
  8  9  1  0  0  0  0
  9 12  1  0  0  0  0
 10  8  1  0  0  0  0
 11 14  1  0  0  0  0
 11  9  1  0  0  0  0
 13 10  2  0  0  0  0
 13 11  1  0  0  0  0
 15 13  1  0  0  0  0
 16 17  2  0  0  0  0
 16 10  1  0  0  0  0
 17 18  1  0  0  0  0
 18 19  1  0  0  0  0
 18  7  1  0  0  0  0
 20 21  1  0  0  0  0
 21 23  1  0  0  0  0
 22 21  2  0  0  0  0
 23 24  2  0  0  0  0
 23 29  1  0  0  0  0
 24 25  1  0  0  0  0
 25 26  1  0  0  0  0
 25 27  2  0  0  0  0
 28 27  1  0  0  0  0
 29 28  2  0  0  0  0
M  END
>  <Pose>
1

>  <Score>
-8.800

$$$$
