/Users/jonathanwahrer/Desktop/Msc/3_Semester/Drug_Design_Praktikum/waehrer_HTS_screening/HTS_experiment/out/docking_results/vina_output/5l4q/0129_docked.pdbqt
 OpenBabel03212217443D

 31 34  0  0  1  0  0  0  0  0999 V2000
  -22.0880   -1.3480  -34.6550 C   0  0  0  0  0  0  0  0  0  0  0  0
  -22.4600   -2.4570  -34.1590 O   0  0  0  0  0  0  0  0  0  0  0  0
  -22.6790   -0.8570  -35.8540 N   0  0  0  0  0  0  0  0  0  0  0  0
  -22.1830    0.3050  -36.5460 C   0  0  0  0  0  2  0  0  0  0  0  0
  -21.6620   -0.2830  -37.8790 C   0  0  0  0  0  2  0  0  0  0  0  0
  -22.9060   -0.6060  -38.6630 C   0  0  2  0  0  0  0  0  0  0  0  0
  -22.4910   -1.4900  -39.7500 N   0  0  0  0  0  0  0  0  0  0  0  0
  -21.4840   -0.9330  -40.5730 C   0  0  0  0  0  2  0  0  0  0  0  0
  -21.9400    0.3100  -41.3160 C   0  0  0  0  0  2  0  0  0  0  0  0
  -22.8990    1.1020  -40.5230 C   0  0  0  0  0  0  0  0  0  0  0  0
  -23.4680    2.2840  -40.8110 N   0  0  0  0  0  0  0  0  0  0  0  0
  -24.2810    2.6010  -39.7800 C   0  0  0  0  0  3  0  0  0  0  0  0
  -24.2030    1.6050  -38.8600 N   0  0  0  0  0  0  0  0  0  0  0  0
  -23.3480    0.6590  -39.2940 C   0  0  0  0  0  0  0  0  0  0  0  0
  -23.9850   -1.2870  -37.8980 C   0  0  0  0  0  3  0  0  0  0  0  0
  -23.7930   -1.5160  -36.4370 C   0  0  0  0  0  3  0  0  0  0  0  0
  -23.3120   -1.8550  -40.2980 H   0  0  0  0  0  0  0  0  0  0  0  0
  -24.7700    1.6770  -37.9920 H   0  0  0  0  0  0  0  0  0  0  0  0
  -21.0340   -0.6360  -33.9460 C   0  0  2  0  0  3  0  0  0  0  0  0
  -19.7520   -0.6730  -34.7630 C   0  0  0  0  0  1  0  0  0  0  0  0
  -20.8870   -1.0110  -32.5880 N   0  0  0  0  0  0  0  0  0  0  0  0
  -20.1600   -0.3030  -31.6350 C   0  0  0  0  0  0  0  0  0  0  0  0
  -19.5560    0.7520  -31.7220 O   0  0  0  0  0  0  0  0  0  0  0  0
  -21.4280   -1.8780  -32.2900 H   0  0  0  0  0  0  0  0  0  0  0  0
  -20.1180   -0.9820  -30.2860 C   0  0  0  0  0  0  0  0  0  0  0  0
  -20.1740   -2.3590  -30.2730 C   0  0  0  0  0  3  0  0  0  0  0  0
  -20.1780   -3.0210  -29.0690 C   0  0  0  0  0  0  0  0  0  0  0  0
  -20.2410   -4.9460  -29.0430 Br  0  0  0  0  0  0  0  0  0  0  0  0
  -20.1310   -2.3500  -27.8640 C   0  0  0  0  0  3  0  0  0  0  0  0
  -20.0790   -0.9560  -27.9370 C   0  0  0  0  0  3  0  0  0  0  0  0
  -20.0710   -0.2790  -29.1250 C   0  0  0  0  0  3  0  0  0  0  0  0
  1  2  2  0  0  0  0
  1 19  1  0  0  0  0
  3  1  1  0  0  0  0
  4  3  1  0  0  0  0
  5  4  1  0  0  0  0
  6 15  1  1  0  0  0
  6  5  1  0  0  0  0
  7  6  1  0  0  0  0
  8  7  1  0  0  0  0
  9  8  1  0  0  0  0
  9 10  1  0  0  0  0
 10 14  2  0  0  0  0
 11 10  1  0  0  0  0
 11 12  2  0  0  0  0
 12 13  1  0  0  0  0
 13 18  1  0  0  0  0
 14 13  1  0  0  0  0
 14  6  1  0  0  0  0
 15 16  2  0  0  0  0
 16  3  1  0  0  0  0
 17  7  1  0  0  0  0
 19 20  1  6  0  0  0
 19 21  1  0  0  0  0
 21 24  1  0  0  0  0
 21 22  1  0  0  0  0
 22 25  1  0  0  0  0
 23 22  2  0  0  0  0
 25 26  2  0  0  0  0
 25 31  1  0  0  0  0
 26 27  1  0  0  0  0
 27 28  1  0  0  0  0
 27 29  2  0  0  0  0
 30 29  1  0  0  0  0
 31 30  2  0  0  0  0
M  END
>  <Pose>
1

>  <Score>
-9.423

$$$$
