MODEL 1
REMARK VINA RESULT:    -9.423      0.000      0.000
REMARK INTER + INTRA:         -11.222
REMARK INTER:                 -11.076
REMARK INTRA:                  -0.146
REMARK UNBOUND:                -0.146
REMARK  3 active torsions:
REMARK  status: ('A' for Active; 'I' for Inactive)
REMARK    1  A    between atoms: C_4  and  C_8 
REMARK       I    between atoms: C_8  and  N_10 
REMARK    2  A    between atoms: N_10  and  C_11 
REMARK    3  A    between atoms: C_11  and  C_13 
REMARK       I    between atoms: C_13  and  N_15 
ROOT
ATOM      1  C   UNK d   1     -22.088  -1.348 -34.655  0.00  0.00     0.242 C 
ATOM      2  O   UNK d   1     -22.460  -2.457 -34.159  0.00  0.00    -0.271 OA
ATOM      3  N   UNK d   1     -22.679  -0.857 -35.854  0.00  0.00    -0.350 N 
ATOM      4  C   UNK d   1     -22.183   0.305 -36.546  0.00  0.00     0.129 C 
ATOM      5  C   UNK d   1     -21.662  -0.283 -37.879  0.00  0.00     0.068 C 
ATOM      6  C   UNK d   1     -22.906  -0.606 -38.663  0.00  0.00     0.204 C 
ATOM      7  N   UNK d   1     -22.491  -1.490 -39.750  0.00  0.00     0.099 N 
ATOM      8  C   UNK d   1     -21.484  -0.933 -40.573  0.00  0.00     0.277 C 
ATOM      9  C   UNK d   1     -21.940   0.310 -41.316  0.00  0.00     0.091 C 
ATOM     10  C   UNK d   1     -22.899   1.102 -40.523  0.00  0.00     0.062 A 
ATOM     11  N   UNK d   1     -23.468   2.284 -40.811  0.00  0.00    -0.246 NA
ATOM     12  C   UNK d   1     -24.281   2.601 -39.780  0.00  0.00     0.207 A 
ATOM     13  N   UNK d   1     -24.203   1.605 -38.860  0.00  0.00    -0.350 N 
ATOM     14  C   UNK d   1     -23.348   0.659 -39.294  0.00  0.00     0.074 A 
ATOM     15  C   UNK d   1     -23.985  -1.287 -37.898  0.00  0.00     0.068 C 
ATOM     16  C   UNK d   1     -23.793  -1.516 -36.437  0.00  0.00     0.129 C 
ATOM     17  H   UNK d   1     -23.312  -1.855 -40.298  0.00  0.00     0.317 HD
ATOM     18  H   UNK d   1     -24.770   1.677 -37.992  0.00  0.00     0.166 HD
ENDROOT
BRANCH   1  19
ATOM     19  C   UNK d   1     -21.034  -0.636 -33.946  0.00  0.00     0.173 C 
ATOM     20  C   UNK d   1     -19.752  -0.673 -34.763  0.00  0.00     0.042 C 
BRANCH  19  21
ATOM     21  N   UNK d   1     -20.887  -1.011 -32.588  0.00  0.00    -0.344 N 
ATOM     22  C   UNK d   1     -20.160  -0.303 -31.635  0.00  0.00     0.252 C 
ATOM     23  O   UNK d   1     -19.556   0.752 -31.722  0.00  0.00    -0.268 OA
ATOM     24  H   UNK d   1     -21.428  -1.878 -32.290  0.00  0.00     0.163 HD
BRANCH  22  25
ATOM     25  C   UNK d   1     -20.118  -0.982 -30.286  0.00  0.00     0.033 A 
ATOM     26  C   UNK d   1     -20.174  -2.359 -30.273  0.00  0.00     0.036 A 
ATOM     27  C   UNK d   1     -20.178  -3.021 -29.069  0.00  0.00     0.011 A 
ATOM     28 Br   UNK d   1     -20.241  -4.946 -29.043  0.00  0.00    -0.051 Br
ATOM     29  C   UNK d   1     -20.131  -2.350 -27.864  0.00  0.00     0.019 A 
ATOM     30  C   UNK d   1     -20.079  -0.956 -27.937  0.00  0.00     0.002 A 
ATOM     31  C   UNK d   1     -20.071  -0.279 -29.125  0.00  0.00     0.017 A 
ENDBRANCH  22  25
ENDBRANCH  19  21
ENDBRANCH   1  19
TORSDOF 3
ENDMDL
