/Users/jonathanwahrer/Desktop/Msc/3_Semester/Drug_Design_Praktikum/waehrer_HTS_screening/HTS_experiment/out/docking_results/vina_output/5l4q/0130_docked.pdbqt
 OpenBabel03212217443D

 30 33  0  0  1  0  0  0  0  0999 V2000
  -20.5960   -1.4040  -33.4790 C   0  0  0  0  0  0  0  0  0  0  0  0
  -20.3020   -2.6500  -33.5500 O   0  0  0  0  0  0  0  0  0  0  0  0
  -21.8710   -0.9340  -33.8200 N   0  0  0  0  0  0  0  0  0  0  0  0
  -22.2320    0.4470  -33.7580 C   0  0  0  0  0  2  0  0  0  0  0  0
  -23.1720    0.8510  -34.8570 C   0  0  0  0  0  2  0  0  0  0  0  0
  -23.1590   -0.0530  -36.0700 C   0  0  1  0  0  0  0  0  0  0  0  0
  -24.3300    0.3660  -36.8280 N   0  0  0  0  0  0  0  0  0  0  0  0
  -24.4550   -0.1710  -38.1290 C   0  0  0  0  0  2  0  0  0  0  0  0
  -23.2460   -0.7590  -38.7580 C   0  0  0  0  0  2  0  0  0  0  0  0
  -21.9900   -0.1370  -38.2340 C   0  0  0  0  0  0  0  0  0  0  0  0
  -20.8350    0.1660  -38.8240 N   0  0  0  0  0  0  0  0  0  0  0  0
  -20.0620    0.7110  -37.8610 C   0  0  0  0  0  3  0  0  0  0  0  0
  -20.7300    0.7440  -36.6870 N   0  0  0  0  0  0  0  0  0  0  0  0
  -21.9650    0.2060  -36.9060 C   0  0  0  0  0  0  0  0  0  0  0  0
  -23.2450   -1.5210  -35.7390 C   0  0  0  0  0  2  0  0  0  0  0  0
  -22.9180   -1.8330  -34.2900 C   0  0  0  0  0  2  0  0  0  0  0  0
  -25.1440    0.0890  -36.2090 H   0  0  0  0  0  0  0  0  0  0  0  0
  -20.3630    1.1120  -35.7940 H   0  0  0  0  0  0  0  0  0  0  0  0
  -19.4680   -0.5220  -33.0070 C   0  0  0  0  0  2  0  0  0  0  0  0
  -19.4720   -0.3840  -31.6280 N   0  0  0  0  0  0  0  0  0  0  0  0
  -19.4770   -0.2520  -30.3120 C   0  0  0  0  0  0  0  0  0  0  0  0
  -19.2460    0.7960  -29.6130 O   0  0  0  0  0  0  0  0  0  0  0  0
  -19.1370    0.9500  -31.7750 H   0  0  0  0  0  0  0  0  0  0  0  0
  -19.7870   -1.4660  -29.4770 C   0  0  0  0  0  0  0  0  0  0  0  0
  -19.4290   -1.5360  -28.1570 C   0  0  0  0  0  3  0  0  0  0  0  0
  -19.6910   -2.6720  -27.4060 C   0  0  0  0  0  0  0  0  0  0  0  0
  -19.1860   -2.7230  -25.5890 Br  0  0  0  0  0  0  0  0  0  0  0  0
  -20.3180   -3.7190  -28.0350 C   0  0  0  0  0  3  0  0  0  0  0  0
  -20.6790   -3.6440  -29.3680 C   0  0  0  0  0  3  0  0  0  0  0  0
  -20.4120   -2.4940  -30.1170 C   0  0  0  0  0  3  0  0  0  0  0  0
  1 19  1  0  0  0  0
  2  1  2  0  0  0  0
  3  4  1  0  0  0  0
  3  1  1  0  0  0  0
  5  4  1  0  0  0  0
  6 15  1  1  0  0  0
  6  5  1  0  0  0  0
  7 17  1  0  0  0  0
  7  6  1  0  0  0  0
  8  7  1  0  0  0  0
  9 10  1  0  0  0  0
  9  8  1  0  0  0  0
 10 14  2  0  0  0  0
 11 10  1  0  0  0  0
 11 12  2  0  0  0  0
 12 13  1  0  0  0  0
 13 18  1  0  0  0  0
 14 13  1  0  0  0  0
 14  6  1  0  0  0  0
 15 16  1  0  0  0  0
 16  3  1  0  0  0  0
 19 20  1  0  0  0  0
 20 21  1  0  0  0  0
 21 22  2  0  0  0  0
 21 24  1  0  0  0  0
 23 20  1  0  0  0  0
 24 25  1  0  0  0  0
 25 26  2  0  0  0  0
 26 27  1  0  0  0  0
 28 26  1  0  0  0  0
 29 28  2  0  0  0  0
 30 24  2  0  0  0  0
 30 29  1  0  0  0  0
M  END
>  <Pose>
1

>  <Score>
-9.307

$$$$
