/Users/jonathanwahrer/Desktop/Msc/3_Semester/Drug_Design_Praktikum/waehrer_HTS_screening/HTS_experiment/out/docking_results/vina_output/5l4q/0152_docked.pdbqt
 OpenBabel03212217453D

 27 30  0  0  0  0  0  0  0  0999 V2000
  -19.2420   -2.0890  -26.9650 C   0  0  0  0  0  3  0  0  0  0  0  0
  -19.7250   -2.5050  -28.1410 C   0  0  0  0  0  0  0  0  0  0  0  0
  -19.8230   -1.7790  -29.2540 O   0  0  0  0  0  0  0  0  0  0  0  0
  -20.3540   -2.5730  -30.3030 C   0  0  0  0  0  0  0  0  0  0  0  0
  -20.6030   -3.8340  -29.8760 C   0  0  0  0  0  0  0  0  0  0  0  0
  -21.0580   -4.7630  -30.8080 C   0  0  0  0  0  3  0  0  0  0  0  0
  -21.2660   -4.3990  -32.1020 C   0  0  0  0  0  3  0  0  0  0  0  0
  -21.0310   -3.0970  -32.4990 C   0  0  0  0  0  0  0  0  0  0  0  0
  -20.5760   -2.1300  -31.6360 C   0  0  0  0  0  0  0  0  0  0  0  0
  -21.2690   -2.7690  -33.8360 O   0  0  0  0  0  1  0  0  0  0  0  0
  -20.2180   -3.8550  -28.4450 C   0  0  0  0  0  0  0  0  0  0  0  0
  -20.3030   -4.8190  -27.6630 O   0  0  0  0  0  0  0  0  0  0  0  0
  -18.7380   -0.6970  -26.8170 C   0  0  0  0  0  0  0  0  0  0  0  0
  -18.2710   -0.2710  -25.5650 C   0  0  0  0  0  3  0  0  0  0  0  0
  -18.1280    1.0890  -25.2580 C   0  0  0  0  0  0  0  0  0  0  0  0
  -17.5070    1.5460  -23.5120 Br  0  0  0  0  0  0  0  0  0  0  0  0
  -18.4320    2.0370  -26.1640 C   0  0  0  0  0  3  0  0  0  0  0  0
  -18.9050    1.6490  -27.4460 C   0  0  0  0  0  3  0  0  0  0  0  0
  -19.0390    0.2730  -27.7300 C   0  0  0  0  0  3  0  0  0  0  0  0
  -20.7190   -0.6930  -31.7460 C   0  0  0  0  0  2  0  0  0  0  0  0
  -20.4010    0.3470  -32.5420 N   0  0  0  0  0  4  0  0  0  0  0  0
  -19.4240    0.3820  -33.5400 C   0  0  0  0  0  2  0  0  0  0  0  0
  -19.9670    0.1010  -34.9590 C   0  0  0  0  0  2  0  0  0  0  0  0
  -20.8290    1.0690  -35.4150 O   0  0  0  0  0  0  0  0  0  0  0  0
  -21.6480    1.5000  -34.3650 C   0  0  0  0  0  2  0  0  0  0  0  0
  -21.7480    0.5470  -33.2940 C   0  0  0  0  0  2  0  0  0  0  0  0
  -20.3290    1.2530  -31.9430 H   0  0  0  0  0  0  0  0  0  0  0  0
  1 13  1  0  0  0  0
  2  1  2  0  0  0  0
  3  2  1  0  0  0  0
  4  5  1  0  0  0  0
  4  3  1  0  0  0  0
  5 11  1  0  0  0  0
  6  5  2  0  0  0  0
  7  6  1  0  0  0  0
  8  7  2  0  0  0  0
  8  9  1  0  0  0  0
  9  4  2  0  0  0  0
 10  8  1  0  0  0  0
 11  2  1  0  0  0  0
 11 12  2  0  0  0  0
 13 14  1  0  0  0  0
 14 15  2  0  0  0  0
 15 16  1  0  0  0  0
 17 15  1  0  0  0  0
 18 17  2  0  0  0  0
 19 18  1  0  0  0  0
 19 13  2  0  0  0  0
 20  9  1  0  0  0  0
 21 27  1  0  0  0  0
 21 20  1  0  0  0  0
 22 21  1  0  0  0  0
 23 22  1  0  0  0  0
 24 23  1  0  0  0  0
 24 25  1  0  0  0  0
 25 26  1  0  0  0  0
 26 21  1  0  0  0  0
M  END
>  <Pose>
1

>  <Score>
-9.722

$$$$
