MODEL 1
REMARK VINA RESULT:    -9.722      0.000      0.000
REMARK INTER + INTRA:         -11.481
REMARK INTER:                 -11.427
REMARK INTRA:                  -0.053
REMARK UNBOUND:                -0.053
REMARK  3 active torsions:
REMARK  status: ('A' for Active; 'I' for Inactive)
REMARK    1  A    between atoms: C_4  and  C_8 
REMARK    2  A    between atoms: C_16  and  C_17 
REMARK    3  A    between atoms: C_17  and  N_18 
ROOT
ATOM      1  C   UNK d   1     -19.242  -2.089 -26.965  0.00  0.00     0.053 C 
ATOM      2  C   UNK d   1     -19.725  -2.505 -28.141  0.00  0.00     0.127 A 
ATOM      3  O   UNK d   1     -19.823  -1.779 -29.254  0.00  0.00    -0.305 OA
ATOM      4  C   UNK d   1     -20.354  -2.573 -30.303  0.00  0.00     0.101 A 
ATOM      5  C   UNK d   1     -20.603  -3.834 -29.876  0.00  0.00     0.051 A 
ATOM      6  C   UNK d   1     -21.058  -4.763 -30.808  0.00  0.00     0.021 A 
ATOM      7  C   UNK d   1     -21.266  -4.399 -32.102  0.00  0.00     0.041 A 
ATOM      8  C   UNK d   1     -21.031  -3.097 -32.499  0.00  0.00     0.118 A 
ATOM      9  C   UNK d   1     -20.576  -2.130 -31.636  0.00  0.00     0.039 A 
ATOM     10  O   UNK d   1     -21.269  -2.769 -33.836  0.00  0.00    -0.191 OA
ATOM     11  C   UNK d   1     -20.218  -3.855 -28.445  0.00  0.00     0.218 A 
ATOM     12  O   UNK d   1     -20.303  -4.819 -27.663  0.00  0.00    -0.284 OA
ENDROOT
BRANCH   1  13
ATOM     13  C   UNK d   1     -18.738  -0.697 -26.817  0.00  0.00    -0.032 A 
ATOM     14  C   UNK d   1     -18.271  -0.271 -25.565  0.00  0.00     0.030 A 
ATOM     15  C   UNK d   1     -18.128   1.089 -25.258  0.00  0.00     0.011 A 
ATOM     16 Br   UNK d   1     -17.507   1.546 -23.512  0.00  0.00    -0.051 Br
ATOM     17  C   UNK d   1     -18.432   2.037 -26.164  0.00  0.00     0.019 A 
ATOM     18  C   UNK d   1     -18.905   1.649 -27.446  0.00  0.00     0.002 A 
ATOM     19  C   UNK d   1     -19.039   0.273 -27.730  0.00  0.00     0.011 A 
ENDBRANCH   1  13
BRANCH   9  20
ATOM     20  C   UNK d   1     -20.719  -0.693 -31.746  0.00  0.00     0.279 C 
BRANCH  20  21
ATOM     21  N   UNK d   1     -20.401   0.347 -32.542  0.00  0.00    -0.063 N 
ATOM     22  C   UNK d   1     -19.424   0.382 -33.540  0.00  0.00     0.261 C 
ATOM     23  C   UNK d   1     -19.967   0.101 -34.959  0.00  0.00     0.195 C 
ATOM     24  O   UNK d   1     -20.829   1.069 -35.415  0.00  0.00    -0.388 OA
ATOM     25  C   UNK d   1     -21.648   1.500 -34.365  0.00  0.00     0.195 C 
ATOM     26  C   UNK d   1     -21.748   0.547 -33.294  0.00  0.00     0.261 C 
ATOM     27  H   UNK d   1     -20.329   1.253 -31.943  0.00  0.00     0.280 HD
ENDBRANCH  20  21
ENDBRANCH   9  20
TORSDOF 3
ENDMDL
