MODEL 1
REMARK VINA RESULT:    -9.069      0.000      0.000
REMARK INTER + INTRA:         -13.740
REMARK INTER:                 -12.515
REMARK INTRA:                  -1.224
REMARK UNBOUND:                -1.224
REMARK  7 active torsions:
REMARK  status: ('A' for Active; 'I' for Inactive)
REMARK    1  A    between atoms: C_4  and  C_8 
REMARK    2  A    between atoms: N_9  and  N_10 
REMARK       I    between atoms: N_10  and  C_11 
REMARK    3  A    between atoms: C_11  and  C_13 
REMARK    4  A    between atoms: N_16  and  C_26 
REMARK    5  A    between atoms: C_17  and  C_18 
REMARK    6  A    between atoms: C_18  and  N_19 
REMARK    7  A    between atoms: C_30  and  N_31 
ROOT
ATOM      1  C   UNK d   1     -23.188  -1.634 -36.411  0.00  0.00     0.169 A 
ATOM      2  N   UNK d   1     -23.743  -2.450 -37.240  0.00  0.00    -0.152 NA
ATOM      3  N   UNK d   1     -23.414  -2.127 -38.486  0.00  0.00     0.012 NA
ATOM      4  N   UNK d   1     -22.609  -1.033 -38.452  0.00  0.00    -0.215 N 
ATOM      5  C   UNK d   1     -22.415  -0.708 -37.217  0.00  0.00     0.087 A 
ENDROOT
BRANCH   1   6
ATOM      6  C   UNK d   1     -23.376  -1.432 -34.914  0.00  0.00     0.293 C 
ATOM      7  N   UNK d   1     -22.573  -2.201 -34.123  0.00  0.00    -0.242 N 
ATOM      8  H   UNK d   1     -21.832  -2.745 -34.932  0.00  0.00     0.192 HD
ATOM      9  O   UNK d   1     -24.224  -0.583 -34.564  0.00  0.00    -0.264 OA
BRANCH   7  10
ATOM     10  N   UNK d   1     -22.108  -2.649 -32.978  0.00  0.00    -0.183 NA
ATOM     11  C   UNK d   1     -21.154  -2.146 -32.246  0.00  0.00     0.150 C 
BRANCH  11  12
ATOM     12  C   UNK d   1     -20.710  -2.763 -30.981  0.00  0.00    -0.016 A 
ATOM     13  C   UNK d   1     -20.177  -2.078 -29.906  0.00  0.00     0.032 A 
ATOM     14  C   UNK d   1     -19.926  -2.761 -28.717  0.00  0.00     0.011 A 
ATOM     15 Br   UNK d   1     -19.230  -1.866 -27.171  0.00  0.00    -0.051 Br
ATOM     16  C   UNK d   1     -20.184  -4.116 -28.544  0.00  0.00     0.019 A 
ATOM     17  C   UNK d   1     -20.700  -4.743 -29.647  0.00  0.00     0.002 A 
ATOM     18  C   UNK d   1     -20.965  -4.114 -30.828  0.00  0.00     0.013 A 
ENDBRANCH  11  12
ENDBRANCH   7  10
ENDBRANCH   1   6
BRANCH   5  19
ATOM     19  C   UNK d   1     -21.626   0.294 -36.509  0.00  0.00     0.178 C 
BRANCH  19  20
ATOM     20  N   UNK d   1     -20.251   0.197 -36.323  0.00  0.00    -0.404 N 
ATOM     21  C   UNK d   1     -19.154   0.596 -36.985  0.00  0.00     0.136 C 
ATOM     22  C   UNK d   1     -18.491   1.751 -36.186  0.00  0.00     0.135 C 
ATOM     23  N   UNK d   1     -19.508   2.363 -35.408  0.00  0.00    -0.414 N 
ATOM     24  C   UNK d   1     -19.925   1.506 -34.340  0.00  0.00     0.135 C 
ATOM     25  C   UNK d   1     -19.436   3.734 -35.124  0.00  0.00     0.143 C 
ATOM     26  C   UNK d   1     -19.923   0.067 -34.871  0.00  0.00     0.136 C 
ENDBRANCH  19  20
ENDBRANCH   5  19
BRANCH   4  27
ATOM     27  C   UNK d   1     -22.526  -0.244 -39.673  0.00  0.00     0.225 A 
ATOM     28  N   UNK d   1     -23.313   0.965 -39.630  0.00  0.00    -0.081 NA
ATOM     29  O   UNK d   1     -23.214   1.602 -40.699  0.00  0.00    -0.103 OA
ATOM     30  N   UNK d   1     -22.432   0.956 -41.508  0.00  0.00    -0.083 NA
ATOM     31  C   UNK d   1     -22.007  -0.197 -40.850  0.00  0.00     0.201 A 
BRANCH  31  32
ATOM     32  N   UNK d   1     -21.133  -1.085 -41.509  0.00  0.00    -0.379 N 
ATOM     33  H   UNK d   1     -21.134  -2.072 -41.070  0.00  0.00     0.158 HD
ATOM     34  H   UNK d   1     -20.521  -0.971 -42.295  0.00  0.00     0.158 HD
ENDBRANCH  31  32
ENDBRANCH   4  27
TORSDOF 7
ENDMDL
