/Users/jonathanwahrer/Desktop/Msc/3_Semester/Drug_Design_Praktikum/waehrer_HTS_screening/HTS_experiment/out/docking_results/vina_output/5l4q/0153_docked.pdbqt
 OpenBabel03212217453D

 34 37  0  0  0  0  0  0  0  0999 V2000
  -23.1880   -1.6340  -36.4110 C   0  0  0  0  0  0  0  0  0  0  0  0
  -23.7430   -2.4500  -37.2400 N   0  0  0  0  0  0  0  0  0  0  0  0
  -23.4140   -2.1270  -38.4860 N   0  0  0  0  0  0  0  0  0  0  0  0
  -22.6090   -1.0330  -38.4520 N   0  0  0  0  0  0  0  0  0  0  0  0
  -22.4150   -0.7080  -37.2170 C   0  0  0  0  0  0  0  0  0  0  0  0
  -23.3760   -1.4320  -34.9140 C   0  0  0  0  0  0  0  0  0  0  0  0
  -22.5730   -2.2010  -34.1230 N   0  0  0  0  0  0  0  0  0  0  0  0
  -21.8320   -2.7450  -34.9320 H   0  0  0  0  0  0  0  0  0  0  0  0
  -24.2240   -0.5830  -34.5640 O   0  0  0  0  0  0  0  0  0  0  0  0
  -22.1080   -2.6490  -32.9780 N   0  0  0  0  0  0  0  0  0  0  0  0
  -21.1540   -2.1460  -32.2460 C   0  0  0  0  0  3  0  0  0  0  0  0
  -20.7100   -2.7630  -30.9810 C   0  0  0  0  0  0  0  0  0  0  0  0
  -20.1770   -2.0780  -29.9060 C   0  0  0  0  0  3  0  0  0  0  0  0
  -19.9260   -2.7610  -28.7170 C   0  0  0  0  0  0  0  0  0  0  0  0
  -19.2300   -1.8660  -27.1710 Br  0  0  0  0  0  0  0  0  0  0  0  0
  -20.1840   -4.1160  -28.5440 C   0  0  0  0  0  3  0  0  0  0  0  0
  -20.7000   -4.7430  -29.6470 C   0  0  0  0  0  3  0  0  0  0  0  0
  -20.9650   -4.1140  -30.8280 C   0  0  0  0  0  3  0  0  0  0  0  0
  -21.6260    0.2940  -36.5090 C   0  0  0  0  0  2  0  0  0  0  0  0
  -20.2510    0.1970  -36.3230 N   0  0  0  0  0  0  0  0  0  0  0  0
  -19.1540    0.5960  -36.9850 C   0  0  0  0  0  2  0  0  0  0  0  0
  -18.4910    1.7510  -36.1860 C   0  0  0  0  0  2  0  0  0  0  0  0
  -19.5080    2.3630  -35.4080 N   0  0  0  0  0  0  0  0  0  0  0  0
  -19.9250    1.5060  -34.3400 C   0  0  0  0  0  2  0  0  0  0  0  0
  -19.4360    3.7340  -35.1240 C   0  0  0  0  0  1  0  0  0  0  0  0
  -19.9230    0.0670  -34.8710 C   0  0  0  0  0  2  0  0  0  0  0  0
  -22.5260   -0.2440  -39.6730 C   0  0  0  0  0  0  0  0  0  0  0  0
  -23.3130    0.9650  -39.6300 N   0  0  0  0  0  0  0  0  0  0  0  0
  -23.2140    1.6020  -40.6990 O   0  0  0  0  0  0  0  0  0  0  0  0
  -22.4320    0.9560  -41.5080 N   0  0  0  0  0  0  0  0  0  0  0  0
  -22.0070   -0.1970  -40.8500 C   0  0  0  0  0  0  0  0  0  0  0  0
  -21.1330   -1.0850  -41.5090 N   0  0  0  0  0  0  0  0  0  0  0  0
  -21.1340   -2.0720  -41.0700 H   0  0  0  0  0  0  0  0  0  0  0  0
  -20.5210   -0.9710  -42.2950 H   0  0  0  0  0  0  0  0  0  0  0  0
  1  6  1  0  0  0  0
  2  1  1  0  0  0  0
  3  4  1  0  0  0  0
  3  2  2  0  0  0  0
  4  5  1  0  0  0  0
  5 19  1  0  0  0  0
  5  1  2  0  0  0  0
  6  9  2  0  0  0  0
  6  7  1  0  0  0  0
  7 10  1  0  0  0  0
  8  7  1  0  0  0  0
 10 11  2  0  0  0  0
 11 12  1  0  0  0  0
 12 18  2  0  0  0  0
 12 13  1  0  0  0  0
 13 14  2  0  0  0  0
 14 16  1  0  0  0  0
 14 15  1  0  0  0  0
 17 16  2  0  0  0  0
 18 17  1  0  0  0  0
 19 20  1  0  0  0  0
 20 26  1  0  0  0  0
 21 20  1  0  0  0  0
 21 22  1  0  0  0  0
 22 23  1  0  0  0  0
 23 25  1  0  0  0  0
 23 24  1  0  0  0  0
 26 24  1  0  0  0  0
 27 28  2  0  0  0  0
 27  4  1  0  0  0  0
 29 28  1  0  0  0  0
 30 31  2  0  0  0  0
 30 29  1  0  0  0  0
 31 27  1  0  0  0  0
 32 33  1  0  0  0  0
 32 31  1  0  0  0  0
 34 32  1  0  0  0  0
M  END
>  <Pose>
1

>  <Score>
-9.069

$$$$
