/Users/jonathanwahrer/Desktop/Msc/3_Semester/Drug_Design_Praktikum/waehrer_HTS_screening/HTS_experiment/out/docking_results/vina_output/5l4q/0156_docked.pdbqt
 OpenBabel03212217453D

 29 32  0  0  0  0  0  0  0  0999 V2000
  -22.3120   -2.2130  -34.3310 C   0  0  0  0  0  0  0  0  0  0  0  0
  -21.8680   -1.0260  -33.9060 N   0  0  0  0  0  4  0  0  0  0  0  0
  -21.8930    0.0960  -34.6780 C   0  0  0  0  0  0  0  0  0  0  0  0
  -22.3990   -0.0620  -35.9200 N   0  0  0  0  0  0  0  0  0  0  0  0
  -22.8600   -1.2280  -36.4040 C   0  0  0  0  0  0  0  0  0  0  0  0
  -22.7990   -2.2930  -35.5680 N   0  0  0  0  0  2  0  0  0  0  0  0
  -22.2570   -3.3460  -33.4720 N   0  0  0  0  0  0  0  0  0  0  0  0
  -22.5270   -4.2880  -33.8230 H   0  0  0  0  0  0  0  0  0  0  0  0
  -21.8470   -3.2320  -32.1410 N   0  0  0  0  0  0  0  0  0  0  0  0
  -21.0960   -4.0660  -31.5360 C   0  0  0  0  0  3  0  0  0  0  0  0
  -20.6860   -3.9220  -30.1450 C   0  0  0  0  0  0  0  0  0  0  0  0
  -20.4160   -2.6860  -29.5830 C   0  0  0  0  0  3  0  0  0  0  0  0
  -20.0270   -2.5190  -28.2760 C   0  0  0  0  0  0  0  0  0  0  0  0
  -19.6700   -0.7790  -27.5590 Br  0  0  0  0  0  0  0  0  0  0  0  0
  -19.8940   -3.6350  -27.4760 C   0  0  0  0  0  3  0  0  0  0  0  0
  -20.1500   -4.8880  -27.9900 C   0  0  0  0  0  3  0  0  0  0  0  0
  -20.5430   -5.0160  -29.3200 C   0  0  0  0  0  3  0  0  0  0  0  0
  -21.4180    1.3400  -34.2070 N   0  0  0  0  0  0  0  0  0  0  0  0
  -20.1220    1.4470  -33.5970 C   0  0  0  0  0  2  0  0  0  0  0  0
  -19.3690    2.5400  -34.3470 C   0  0  0  0  0  2  0  0  0  0  0  0
  -20.1190    3.7040  -34.1960 O   0  0  0  0  0  0  0  0  0  0  0  0
  -21.3250    3.6430  -34.8690 C   0  0  0  0  0  2  0  0  0  0  0  0
  -22.2150    2.5300  -34.3230 C   0  0  0  0  0  2  0  0  0  0  0  0
  -23.3830   -1.3650  -37.7010 N   0  0  0  0  0  0  0  0  0  0  0  0
  -22.8800   -0.6030  -38.8130 C   0  0  0  0  0  2  0  0  0  0  0  0
  -22.9030   -1.5540  -40.0170 C   0  0  0  0  0  2  0  0  0  0  0  0
  -22.7960   -2.8750  -39.5910 O   0  0  0  0  0  0  0  0  0  0  0  0
  -23.8980   -3.3410  -38.9190 C   0  0  0  0  0  2  0  0  0  0  0  0
  -24.4530   -2.2880  -37.9510 C   0  0  0  0  0  2  0  0  0  0  0  0
  1  2  2  0  0  0  0
  1  7  1  0  0  0  0
  3 18  1  0  0  0  0
  3  2  2  0  0  0  0
  4  3  1  0  0  0  0
  5  4  2  0  0  0  0
  5  6  1  0  0  0  0
  6  1  1  0  0  0  0
  7  9  1  0  0  0  0
  8  7  1  0  0  0  0
  9 10  2  0  0  0  0
 10 11  1  0  0  0  0
 11 12  2  0  0  0  0
 11 17  1  0  0  0  0
 12 13  1  0  0  0  0
 13 14  1  0  0  0  0
 13 15  2  0  0  0  0
 16 15  1  0  0  0  0
 17 16  2  0  0  0  0
 18 19  1  0  0  0  0
 20 21  1  0  0  0  0
 20 19  1  0  0  0  0
 22 23  1  0  0  0  0
 22 21  1  0  0  0  0
 23 18  1  0  0  0  0
 24  5  1  0  0  0  0
 25 24  1  0  0  0  0
 26 27  1  0  0  0  0
 26 25  1  0  0  0  0
 27 28  1  0  0  0  0
 28 29  1  0  0  0  0
 29 24  1  0  0  0  0
M  END
>  <Pose>
1

>  <Score>
-8.847

$$$$
