MODEL 1
REMARK VINA RESULT:    -8.847      0.000      0.000
REMARK INTER + INTRA:         -12.248
REMARK INTER:                 -11.432
REMARK INTRA:                  -0.815
REMARK UNBOUND:                -0.815
REMARK  5 active torsions:
REMARK  status: ('A' for Active; 'I' for Inactive)
REMARK    1  A    between atoms: C_4  and  C_8 
REMARK    2  A    between atoms: N_9  and  N_10 
REMARK    3  A    between atoms: N_10  and  C_11 
REMARK    4  A    between atoms: C_13  and  N_23 
REMARK    5  A    between atoms: C_15  and  N_17 
ROOT
ATOM      1  C   UNK d   1     -22.312  -2.213 -34.331  0.00  0.00     0.774 A 
ATOM      2  N   UNK d   1     -21.868  -1.026 -33.906  0.00  0.00     0.133 NA
ATOM      3  C   UNK d   1     -21.893   0.096 -34.678  0.00  0.00     0.756 A 
ATOM      4  N   UNK d   1     -22.399  -0.062 -35.920  0.00  0.00     0.131 NA
ATOM      5  C   UNK d   1     -22.860  -1.228 -36.404  0.00  0.00     0.756 A 
ATOM      6  N   UNK d   1     -22.799  -2.293 -35.568  0.00  0.00     0.133 NA
ENDROOT
BRANCH   1   7
ATOM      7  N   UNK d   1     -22.257  -3.346 -33.472  0.00  0.00    -0.105 N 
ATOM      8  H   UNK d   1     -22.527  -4.288 -33.823  0.00  0.00     0.208 HD
BRANCH   7   9
ATOM      9  N   UNK d   1     -21.847  -3.232 -32.141  0.00  0.00    -0.172 NA
ATOM     10  C   UNK d   1     -21.096  -4.066 -31.536  0.00  0.00     0.150 C 
BRANCH  10  11
ATOM     11  C   UNK d   1     -20.686  -3.922 -30.145  0.00  0.00    -0.016 A 
ATOM     12  C   UNK d   1     -20.416  -2.686 -29.583  0.00  0.00     0.032 A 
ATOM     13  C   UNK d   1     -20.027  -2.519 -28.276  0.00  0.00     0.011 A 
ATOM     14 Br   UNK d   1     -19.670  -0.779 -27.559  0.00  0.00    -0.051 Br
ATOM     15  C   UNK d   1     -19.894  -3.635 -27.476  0.00  0.00     0.019 A 
ATOM     16  C   UNK d   1     -20.150  -4.888 -27.990  0.00  0.00     0.002 A 
ATOM     17  C   UNK d   1     -20.543  -5.016 -29.320  0.00  0.00     0.013 A 
ENDBRANCH  10  11
ENDBRANCH   7   9
ENDBRANCH   1   7
BRANCH   3  18
ATOM     18  N   UNK d   1     -21.418   1.340 -34.207  0.00  0.00    -0.209 N 
ATOM     19  C   UNK d   1     -20.122   1.447 -33.597  0.00  0.00     0.167 C 
ATOM     20  C   UNK d   1     -19.369   2.540 -34.347  0.00  0.00     0.188 C 
ATOM     21  O   UNK d   1     -20.119   3.704 -34.196  0.00  0.00    -0.388 OA
ATOM     22  C   UNK d   1     -21.325   3.643 -34.869  0.00  0.00     0.188 C 
ATOM     23  C   UNK d   1     -22.215   2.530 -34.323  0.00  0.00     0.167 C 
ENDBRANCH   3  18
BRANCH   5  24
ATOM     24  N   UNK d   1     -23.383  -1.365 -37.701  0.00  0.00    -0.209 N 
ATOM     25  C   UNK d   1     -22.880  -0.603 -38.813  0.00  0.00     0.167 C 
ATOM     26  C   UNK d   1     -22.903  -1.554 -40.017  0.00  0.00     0.188 C 
ATOM     27  O   UNK d   1     -22.796  -2.875 -39.591  0.00  0.00    -0.388 OA
ATOM     28  C   UNK d   1     -23.898  -3.341 -38.919  0.00  0.00     0.188 C 
ATOM     29  C   UNK d   1     -24.453  -2.288 -37.951  0.00  0.00     0.167 C 
ENDBRANCH   5  24
TORSDOF 5
ENDMDL
