MODEL 1
REMARK VINA RESULT:    -8.300      0.000      0.000
REMARK INTER + INTRA:         -12.715
REMARK INTER:                 -11.697
REMARK INTRA:                  -1.018
REMARK UNBOUND:                -1.018
REMARK  7 active torsions:
REMARK  status: ('A' for Active; 'I' for Inactive)
REMARK    1  A    between atoms: C_4  and  C_8 
REMARK    2  A    between atoms: N_9  and  C_28 
REMARK    3  A    between atoms: C_15  and  C_17 
REMARK    4  A    between atoms: C_20  and  C_23 
REMARK    5  A    between atoms: C_23  and  O_25 
REMARK    6  A    between atoms: C_28  and  C_29 
REMARK    7  A    between atoms: C_29  and  N_30 
ROOT
ATOM      1  C   UNK d   1     -20.805  -0.400 -34.755  0.00  0.00     0.161 C 
ATOM      2  N   UNK d   1     -22.168   0.060 -34.938  0.00  0.00    -0.331 N 
ATOM      3  C   UNK d   1     -22.547   0.674 -33.715  0.00  0.00     0.295 C 
ATOM      4  O   UNK d   1     -23.415   1.560 -33.546  0.00  0.00    -0.264 OA
ATOM      5  C   UNK d   1     -21.713   0.067 -32.655  0.00  0.00     0.250 C 
ATOM      6  O   UNK d   1     -21.736   0.323 -31.431  0.00  0.00    -0.282 OA
ATOM      7  C   UNK d   1     -20.860  -0.898 -33.336  0.00  0.00     0.062 C 
ATOM      8  C   UNK d   1     -20.333  -1.957 -32.802  0.00  0.00     0.132 C 
ATOM      9  O   UNK d   1     -19.584  -2.816 -33.633  0.00  0.00    -0.190 OA
ENDROOT
BRANCH   1  10
ATOM     10  C   UNK d   1     -19.899   0.770 -34.855  0.00  0.00    -0.029 A 
ATOM     11  C   UNK d   1     -20.012   1.693 -35.886  0.00  0.00     0.028 A 
ATOM     12  C   UNK d   1     -19.168   2.778 -35.990  0.00  0.00     0.011 A 
ATOM     13 Br   UNK d   1     -19.378   4.008 -37.432  0.00  0.00    -0.051 Br
ATOM     14  C   UNK d   1     -18.167   2.996 -35.068  0.00  0.00     0.019 A 
ATOM     15  C   UNK d   1     -18.035   2.093 -34.036  0.00  0.00     0.002 A 
ATOM     16  C   UNK d   1     -18.885   1.012 -33.941  0.00  0.00     0.009 A 
ENDBRANCH   1  10
BRANCH   8  17
ATOM     17  C   UNK d   1     -20.440  -2.347 -31.403  0.00  0.00     0.032 A 
ATOM     18  C   UNK d   1     -21.215  -3.236 -30.739  0.00  0.00     0.019 A 
ATOM     19  N   UNK d   1     -20.850  -3.225 -29.440  0.00  0.00    -0.354 N 
ATOM     20  C   UNK d   1     -22.333  -4.075 -31.287  0.00  0.00     0.069 C 
ATOM     21  C   UNK d   1     -19.858  -2.353 -29.221  0.00  0.00     0.115 A 
ATOM     22  H   UNK d   1     -21.300  -3.832 -28.694  0.00  0.00     0.166 HD
ATOM     23  C   UNK d   1     -19.580  -1.787 -30.437  0.00  0.00    -0.014 A 
ATOM     24  C   UNK d   1     -18.536  -0.748 -30.687  0.00  0.00     0.052 C 
BRANCH  21  25
ATOM     25  C   UNK d   1     -19.197  -2.061 -27.933  0.00  0.00     0.310 C 
ATOM     26  O   UNK d   1     -19.241  -2.904 -27.026  0.00  0.00    -0.258 OA
BRANCH  25  27
ATOM     27  O   UNK d   1     -18.536  -0.863 -27.736  0.00  0.00    -0.321 OA
ATOM     28  C   UNK d   1     -18.081  -0.418 -26.478  0.00  0.00     0.213 C 
ENDBRANCH  25  27
ENDBRANCH  21  25
ENDBRANCH   8  17
BRANCH   2  29
ATOM     29  C   UNK d   1     -22.999  -0.077 -36.137  0.00  0.00     0.155 C 
BRANCH  29  30
ATOM     30  C   UNK d   1     -23.330  -1.528 -36.408  0.00  0.00     0.255 C 
BRANCH  30  31
ATOM     31  N   UNK d   1     -23.016  -1.956 -37.732  0.00  0.00    -0.066 N 
ATOM     32  C   UNK d   1     -22.804  -0.861 -38.672  0.00  0.00     0.261 C 
ATOM     33  C   UNK d   1     -22.054  -1.417 -39.852  0.00  0.00     0.195 C 
ATOM     34  O   UNK d   1     -22.269  -2.770 -39.932  0.00  0.00    -0.388 OA
ATOM     35  C   UNK d   1     -23.580  -3.155 -39.715  0.00  0.00     0.195 C 
ATOM     36  C   UNK d   1     -24.073  -2.768 -38.321  0.00  0.00     0.261 C 
ATOM     37  H   UNK d   1     -22.179  -2.567 -37.706  0.00  0.00     0.280 HD
ENDBRANCH  30  31
ENDBRANCH  29  30
ENDBRANCH   2  29
TORSDOF 7
ENDMDL
