/Users/jonathanwahrer/Desktop/Msc/3_Semester/Drug_Design_Praktikum/waehrer_HTS_screening/HTS_experiment/out/docking_results/vina_output/5l4q/0169_docked.pdbqt
 OpenBabel03212217463D

 37 40  0  0  1  0  0  0  0  0999 V2000
  -20.8050   -0.4000  -34.7550 C   0  0  2  0  0  3  0  0  0  0  0  0
  -22.1680    0.0600  -34.9380 N   0  0  0  0  0  0  0  0  0  0  0  0
  -22.5470    0.6740  -33.7150 C   0  0  0  0  0  0  0  0  0  0  0  0
  -23.4150    1.5600  -33.5460 O   0  0  0  0  0  0  0  0  0  0  0  0
  -21.7130    0.0670  -32.6550 C   0  0  0  0  0  0  0  0  0  0  0  0
  -21.7360    0.3230  -31.4310 O   0  0  0  0  0  0  0  0  0  0  0  0
  -20.8600   -0.8980  -33.3360 C   0  0  0  0  0  0  0  0  0  0  0  0
  -20.3330   -1.9570  -32.8020 C   0  0  0  0  0  0  0  0  0  0  0  0
  -19.5840   -2.8160  -33.6330 O   0  0  0  0  0  1  0  0  0  0  0  0
  -19.8990    0.7700  -34.8550 C   0  0  0  0  0  0  0  0  0  0  0  0
  -20.0120    1.6930  -35.8860 C   0  0  0  0  0  3  0  0  0  0  0  0
  -19.1680    2.7780  -35.9900 C   0  0  0  0  0  0  0  0  0  0  0  0
  -19.3780    4.0080  -37.4320 Br  0  0  0  0  0  0  0  0  0  0  0  0
  -18.1670    2.9960  -35.0680 C   0  0  0  0  0  3  0  0  0  0  0  0
  -18.0350    2.0930  -34.0360 C   0  0  0  0  0  3  0  0  0  0  0  0
  -18.8850    1.0120  -33.9410 C   0  0  0  0  0  3  0  0  0  0  0  0
  -20.4400   -2.3470  -31.4030 C   0  0  0  0  0  0  0  0  0  0  0  0
  -21.2150   -3.2360  -30.7390 C   0  0  0  0  0  0  0  0  0  0  0  0
  -20.8500   -3.2250  -29.4400 N   0  0  0  0  0  0  0  0  0  0  0  0
  -22.3330   -4.0750  -31.2870 C   0  0  0  0  0  1  0  0  0  0  0  0
  -19.8580   -2.3530  -29.2210 C   0  0  0  0  0  0  0  0  0  0  0  0
  -21.3000   -3.8320  -28.6940 H   0  0  0  0  0  0  0  0  0  0  0  0
  -19.5800   -1.7870  -30.4370 C   0  0  0  0  0  0  0  0  0  0  0  0
  -18.5360   -0.7480  -30.6870 C   0  0  0  0  0  1  0  0  0  0  0  0
  -19.1970   -2.0610  -27.9330 C   0  0  0  0  0  0  0  0  0  0  0  0
  -19.2410   -2.9040  -27.0260 O   0  0  0  0  0  0  0  0  0  0  0  0
  -18.5360   -0.8630  -27.7360 O   0  0  0  0  0  0  0  0  0  0  0  0
  -18.0810   -0.4180  -26.4780 C   0  0  0  0  0  1  0  0  0  0  0  0
  -22.9990   -0.0770  -36.1370 C   0  0  0  0  0  2  0  0  0  0  0  0
  -23.3300   -1.5280  -36.4080 C   0  0  0  0  0  2  0  0  0  0  0  0
  -23.0160   -1.9560  -37.7320 N   0  0  0  0  0  4  0  0  0  0  0  0
  -22.8040   -0.8610  -38.6720 C   0  0  0  0  0  2  0  0  0  0  0  0
  -22.0540   -1.4170  -39.8520 C   0  0  0  0  0  2  0  0  0  0  0  0
  -22.2690   -2.7700  -39.9320 O   0  0  0  0  0  0  0  0  0  0  0  0
  -23.5800   -3.1550  -39.7150 C   0  0  0  0  0  2  0  0  0  0  0  0
  -24.0730   -2.7680  -38.3210 C   0  0  0  0  0  2  0  0  0  0  0  0
  -22.1790   -2.5670  -37.7060 H   0  0  0  0  0  0  0  0  0  0  0  0
  1 10  1  1  0  0  0
  1  7  1  0  0  0  0
  2  1  1  0  0  0  0
  2  3  1  0  0  0  0
  3  4  2  0  0  0  0
  3  5  1  0  0  0  0
  5  6  2  0  0  0  0
  7  8  2  0  0  0  0
  7  5  1  0  0  0  0
  8 17  1  0  0  0  0
  9  8  1  0  0  0  0
 10 16  1  0  0  0  0
 11 10  2  0  0  0  0
 12 11  1  0  0  0  0
 12 14  2  0  0  0  0
 13 12  1  0  0  0  0
 14 15  1  0  0  0  0
 15 16  2  0  0  0  0
 17 18  2  0  0  0  0
 17 23  1  0  0  0  0
 18 19  1  0  0  0  0
 19 21  1  0  0  0  0
 19 22  1  0  0  0  0
 20 18  1  0  0  0  0
 21 25  1  0  0  0  0
 23 21  2  0  0  0  0
 24 23  1  0  0  0  0
 25 27  1  0  0  0  0
 25 26  2  0  0  0  0
 27 28  1  0  0  0  0
 29  2  1  0  0  0  0
 30 29  1  0  0  0  0
 31 37  1  0  0  0  0
 31 30  1  0  0  0  0
 32 31  1  0  0  0  0
 33 32  1  0  0  0  0
 34 33  1  0  0  0  0
 34 35  1  0  0  0  0
 35 36  1  0  0  0  0
 36 31  1  0  0  0  0
M  END
>  <Pose>
1

>  <Score>
-8.300

$$$$
