MODEL 1
REMARK VINA RESULT:    -8.871      0.000      0.000
REMARK INTER + INTRA:         -13.117
REMARK INTER:                 -12.501
REMARK INTRA:                  -0.616
REMARK UNBOUND:                -0.616
REMARK  7 active torsions:
REMARK  status: ('A' for Active; 'I' for Inactive)
REMARK    1  A    between atoms: C_4  and  C_8 
REMARK    2  A    between atoms: N_9  and  C_26 
REMARK    3  A    between atoms: C_15  and  C_17 
REMARK    4  A    between atoms: C_20  and  O_23 
REMARK    5  A    between atoms: C_26  and  C_27 
REMARK    6  A    between atoms: C_27  and  C_28 
REMARK    7  A    between atoms: C_28  and  N_29 
ROOT
ATOM      1  C   UNK d   1     -21.696  -1.107 -32.457  0.00  0.00     0.161 C 
ATOM      2  N   UNK d   1     -20.486  -0.422 -32.046  0.00  0.00    -0.332 N 
ATOM      3  C   UNK d   1     -19.593  -0.290 -33.131  0.00  0.00     0.295 C 
ATOM      4  O   UNK d   1     -18.359  -0.053 -33.161  0.00  0.00    -0.264 OA
ATOM      5  C   UNK d   1     -20.412  -0.496 -34.352  0.00  0.00     0.250 C 
ATOM      6  O   UNK d   1     -19.950  -0.446 -35.509  0.00  0.00    -0.282 OA
ATOM      7  C   UNK d   1     -21.774  -0.747 -33.915  0.00  0.00     0.062 C 
ATOM      8  C   UNK d   1     -22.850  -0.625 -34.649  0.00  0.00     0.130 C 
ATOM      9  O   UNK d   1     -24.109  -0.836 -34.061  0.00  0.00    -0.190 OA
ENDROOT
BRANCH   1  10
ATOM     10  C   UNK d   1     -21.633  -2.565 -32.256  0.00  0.00    -0.029 A 
ATOM     11  C   UNK d   1     -21.064  -3.125 -31.135  0.00  0.00     0.028 A 
ATOM     12  C   UNK d   1     -21.015  -4.504 -30.965  0.00  0.00     0.011 A 
ATOM     13 Br   UNK d   1     -20.219  -5.257 -29.407  0.00  0.00    -0.051 Br
ATOM     14  C   UNK d   1     -21.547  -5.338 -31.936  0.00  0.00     0.019 A 
ATOM     15  C   UNK d   1     -22.115  -4.768 -33.055  0.00  0.00     0.002 A 
ATOM     16  C   UNK d   1     -22.162  -3.398 -33.218  0.00  0.00     0.009 A 
ENDBRANCH   1  10
BRANCH   8  17
ATOM     17  C   UNK d   1     -22.795  -0.288 -36.046  0.00  0.00     0.002 A 
ATOM     18  C   UNK d   1     -22.928  -1.347 -36.957  0.00  0.00     0.024 A 
ATOM     19  C   UNK d   1     -22.847  -1.125 -38.303  0.00  0.00    -0.028 A 
ATOM     20  C   UNK d   1     -22.633   0.144 -38.827  0.00  0.00     0.074 A 
ATOM     21  C   UNK d   1     -22.991  -2.268 -39.261  0.00  0.00     0.051 C 
ATOM     22  C   UNK d   1     -22.506   1.155 -37.927  0.00  0.00     0.038 A 
ATOM     23  C   UNK d   1     -22.584   0.949 -36.564  0.00  0.00     0.017 A 
BRANCH  20  24
ATOM     24  O   UNK d   1     -22.565   0.284 -40.198  0.00  0.00    -0.355 OA
ATOM     25  C   UNK d   1     -22.940   1.502 -40.825  0.00  0.00     0.210 C 
ENDBRANCH  20  24
ENDBRANCH   8  17
BRANCH   2  26
ATOM     26  C   UNK d   1     -20.200   0.088 -30.696  0.00  0.00     0.129 C 
BRANCH  26  27
ATOM     27  C   UNK d   1     -19.128  -0.747 -30.052  0.00  0.00     0.048 C 
BRANCH  27  28
ATOM     28  C   UNK d   1     -18.754  -0.338 -28.668  0.00  0.00     0.236 C 
BRANCH  28  29
ATOM     29  N   UNK d   1     -18.451  -1.451 -27.795  0.00  0.00    -0.067 N 
ATOM     30  C   UNK d   1     -17.686  -1.034 -26.637  0.00  0.00     0.261 C 
ATOM     31  C   UNK d   1     -18.473  -1.243 -25.371  0.00  0.00     0.195 C 
ATOM     32  O   UNK d   1     -18.742  -2.622 -25.257  0.00  0.00    -0.388 OA
ATOM     33  C   UNK d   1     -19.563  -3.047 -26.299  0.00  0.00     0.195 C 
ATOM     34  C   UNK d   1     -19.732  -2.037 -27.388  0.00  0.00     0.261 C 
ATOM     35  H   UNK d   1     -17.940  -2.224 -28.271  0.00  0.00     0.280 HD
ENDBRANCH  28  29
ENDBRANCH  27  28
ENDBRANCH  26  27
ENDBRANCH   2  26
TORSDOF 7
ENDMDL
