/Users/jonathanwahrer/Desktop/Msc/3_Semester/Drug_Design_Praktikum/waehrer_HTS_screening/HTS_experiment/out/docking_results/vina_output/5l4q/0175_docked.pdbqt
 OpenBabel03212217473D

 32 35  0  0  1  0  0  0  0  0999 V2000
  -21.4970   -0.6180  -34.9030 C   0  0  2  0  0  3  0  0  0  0  0  0
  -22.8280   -0.0900  -34.8620 N   0  0  0  0  0  0  0  0  0  0  0  0
  -22.9340    0.6330  -33.6450 C   0  0  0  0  0  0  0  0  0  0  0  0
  -23.7960    1.5080  -33.3830 O   0  0  0  0  0  0  0  0  0  0  0  0
  -21.8610    0.1930  -32.7220 C   0  0  0  0  0  0  0  0  0  0  0  0
  -21.6360    0.5960  -31.5690 O   0  0  0  0  0  0  0  0  0  0  0  0
  -21.1230   -0.8170  -33.4570 C   0  0  0  0  0  0  0  0  0  0  0  0
  -20.3330   -1.7520  -32.9760 C   0  0  0  0  0  0  0  0  0  0  0  0
  -19.7650   -2.6750  -33.8280 O   0  0  0  0  0  1  0  0  0  0  0  0
  -23.9020   -0.2410  -35.8640 C   0  0  0  0  0  2  0  0  0  0  0  0
  -23.5070   -1.3680  -36.7760 C   0  0  0  0  0  2  0  0  0  0  0  0
  -24.0570   -1.3120  -38.0820 N   0  0  0  0  0  4  0  0  0  0  0  0
  -23.2760   -0.6210  -39.0660 C   0  0  0  0  0  2  0  0  0  0  0  0
  -22.3250   -1.5000  -39.8310 C   0  0  0  0  0  2  0  0  0  0  0  0
  -22.8590   -2.7170  -40.1900 O   0  0  0  0  0  0  0  0  0  0  0  0
  -23.3270   -3.4220  -39.1060 C   0  0  0  0  0  2  0  0  0  0  0  0
  -24.4540   -2.6340  -38.4950 C   0  0  0  0  0  2  0  0  0  0  0  0
  -24.9730   -0.7770  -38.0000 H   0  0  0  0  0  0  0  0  0  0  0  0
  -20.5290    0.3030  -35.5600 C   0  0  0  0  0  0  0  0  0  0  0  0
  -20.7710    0.8730  -36.7930 C   0  0  0  0  0  3  0  0  0  0  0  0
  -19.8680    1.7330  -37.4100 C   0  0  0  0  0  0  0  0  0  0  0  0
  -20.2440    2.4990  -39.1190 Br  0  0  0  0  0  0  0  0  0  0  0  0
  -18.7030    2.0270  -36.7740 C   0  0  0  0  0  3  0  0  0  0  0  0
  -18.4180    1.4850  -35.5470 C   0  0  0  0  0  3  0  0  0  0  0  0
  -19.3260    0.6340  -34.9530 C   0  0  0  0  0  3  0  0  0  0  0  0
  -20.0310   -1.8400  -31.5700 C   0  0  0  0  0  0  0  0  0  0  0  0
  -19.0780   -1.1320  -30.8970 C   0  0  0  0  0  3  0  0  0  0  0  0
  -18.9240   -1.2880  -29.5320 C   0  0  0  0  0  3  0  0  0  0  0  0
  -19.6940   -2.1400  -28.7730 C   0  0  0  0  0  0  0  0  0  0  0  0
  -20.6560   -2.8550  -29.4550 C   0  0  0  0  0  3  0  0  0  0  0  0
  -19.5070   -2.2900  -27.3030 C   0  0  0  0  0  1  0  0  0  0  0  0
  -20.8250   -2.7150  -30.8100 C   0  0  0  0  0  3  0  0  0  0  0  0
  1 19  1  1  0  0  0
  1  2  1  0  0  0  0
  1  7  1  0  0  0  0
  2  3  1  0  0  0  0
  3  4  2  0  0  0  0
  3  5  1  0  0  0  0
  5  6  2  0  0  0  0
  7  8  2  0  0  0  0
  7  5  1  0  0  0  0
  8 26  1  0  0  0  0
  9  8  1  0  0  0  0
 10  2  1  0  0  0  0
 11 10  1  0  0  0  0
 12 18  1  0  0  0  0
 12 11  1  0  0  0  0
 13 12  1  0  0  0  0
 14 13  1  0  0  0  0
 15 14  1  0  0  0  0
 15 16  1  0  0  0  0
 16 17  1  0  0  0  0
 17 12  1  0  0  0  0
 19 25  1  0  0  0  0
 20 19  2  0  0  0  0
 21 20  1  0  0  0  0
 21 23  2  0  0  0  0
 22 21  1  0  0  0  0
 23 24  1  0  0  0  0
 24 25  2  0  0  0  0
 26 27  2  0  0  0  0
 26 32  1  0  0  0  0
 27 28  1  0  0  0  0
 28 29  2  0  0  0  0
 29 31  1  0  0  0  0
 30 29  1  0  0  0  0
 32 30  2  0  0  0  0
M  END
>  <Pose>
1

>  <Score>
-8.101

$$$$
