MODEL 1
REMARK VINA RESULT:    -8.515      0.000      0.000
REMARK INTER + INTRA:         -12.159
REMARK INTER:                 -11.502
REMARK INTRA:                  -0.657
REMARK UNBOUND:                -0.657
REMARK  6 active torsions:
REMARK  status: ('A' for Active; 'I' for Inactive)
REMARK    1  A    between atoms: C_4  and  C_8 
REMARK    2  A    between atoms: N_9  and  C_24 
REMARK    3  A    between atoms: C_15  and  C_17 
REMARK    4  A    between atoms: C_24  and  C_25 
REMARK    5  A    between atoms: C_25  and  C_26 
REMARK    6  A    between atoms: C_26  and  N_27 
ROOT
ATOM      1  C   UNK d   1     -21.108  -0.565 -32.168  0.00  0.00     0.161 C 
ATOM      2  N   UNK d   1     -19.777  -0.160 -31.745  0.00  0.00    -0.332 N 
ATOM      3  C   UNK d   1     -18.971  -0.056 -32.937  0.00  0.00     0.295 C 
ATOM      4  O   UNK d   1     -17.716  -0.053 -32.954  0.00  0.00    -0.264 OA
ATOM      5  C   UNK d   1     -19.883   0.041 -34.057  0.00  0.00     0.250 C 
ATOM      6  O   UNK d   1     -19.601   0.146 -35.292  0.00  0.00    -0.282 OA
ATOM      7  C   UNK d   1     -21.238  -0.003 -33.526  0.00  0.00     0.062 C 
ATOM      8  C   UNK d   1     -22.331   0.360 -34.181  0.00  0.00     0.130 C 
ATOM      9  O   UNK d   1     -23.527   0.167 -33.457  0.00  0.00    -0.190 OA
ENDROOT
BRANCH   2  10
ATOM     10  C   UNK d   1     -19.344  -0.007 -30.394  0.00  0.00     0.129 C 
BRANCH  10  11
ATOM     11  C   UNK d   1     -20.348   0.080 -29.319  0.00  0.00     0.048 C 
BRANCH  11  12
ATOM     12  C   UNK d   1     -19.966  -0.216 -27.916  0.00  0.00     0.236 C 
BRANCH  12  13
ATOM     13  N   UNK d   1     -19.244  -1.414 -27.651  0.00  0.00    -0.067 N 
ATOM     14  C   UNK d   1     -18.131  -1.160 -26.771  0.00  0.00     0.261 C 
ATOM     15  C   UNK d   1     -18.464  -1.369 -25.309  0.00  0.00     0.195 C 
ATOM     16  O   UNK d   1     -18.746  -2.716 -25.070  0.00  0.00    -0.388 OA
ATOM     17  C   UNK d   1     -19.197  -3.344 -26.233  0.00  0.00     0.195 C 
ATOM     18  C   UNK d   1     -20.122  -2.382 -26.924  0.00  0.00     0.261 C 
ATOM     19  H   UNK d   1     -18.989  -1.922 -28.495  0.00  0.00     0.280 HD
ENDBRANCH  12  13
ENDBRANCH  11  12
ENDBRANCH  10  11
ENDBRANCH   2  10
BRANCH   1  20
ATOM     20  C   UNK d   1     -21.242  -2.043 -32.135  0.00  0.00    -0.029 A 
ATOM     21  C   UNK d   1     -20.796  -2.754 -31.044  0.00  0.00     0.028 A 
ATOM     22  C   UNK d   1     -20.897  -4.136 -30.967  0.00  0.00     0.011 A 
ATOM     23 Br   UNK d   1     -20.290  -5.127 -29.464  0.00  0.00    -0.051 Br
ATOM     24  C   UNK d   1     -21.461  -4.842 -32.008  0.00  0.00     0.019 A 
ATOM     25  C   UNK d   1     -21.907  -4.134 -33.101  0.00  0.00     0.002 A 
ATOM     26  C   UNK d   1     -21.800  -2.738 -33.166  0.00  0.00     0.009 A 
ENDBRANCH   1  20
BRANCH   8  27
ATOM     27  C   UNK d   1     -22.349   0.918 -35.523  0.00  0.00     0.001 A 
ATOM     28  C   UNK d   1     -22.060   2.222 -35.847  0.00  0.00     0.016 A 
ATOM     29  C   UNK d   1     -22.060   2.687 -37.147  0.00  0.00     0.024 A 
ATOM     30  C   UNK d   1     -22.358   1.843 -38.193  0.00  0.00     0.034 A 
ATOM     31  C   UNK d   1     -22.652   0.529 -37.886  0.00  0.00     0.024 A 
ATOM     32 Cl   UNK d   1     -22.364   2.414 -39.864  0.00  0.00    -0.084 Cl
ATOM     33  C   UNK d   1     -22.649   0.073 -36.582  0.00  0.00     0.016 A 
ENDBRANCH   8  27
TORSDOF 6
ENDMDL
