MODEL 1
REMARK VINA RESULT:    -8.348      0.000      0.000
REMARK INTER + INTRA:         -11.806
REMARK INTER:                 -10.787
REMARK INTRA:                  -1.018
REMARK UNBOUND:                -1.018
REMARK  5 active torsions:
REMARK  status: ('A' for Active; 'I' for Inactive)
REMARK    1  A    between atoms: C_4  and  C_8 
REMARK    2  A    between atoms: N_9  and  C_28 
REMARK    3  A    between atoms: C_15  and  C_17 
REMARK    4  A    between atoms: C_28  and  C_29 
REMARK    5  A    between atoms: C_29  and  N_30 
ROOT
ATOM      1  C   UNK d   1     -22.011   0.133 -33.608  0.00  0.00     0.161 C 
ATOM      2  N   UNK d   1     -22.919  -0.183 -34.655  0.00  0.00    -0.331 N 
ATOM      3  C   UNK d   1     -23.150   1.111 -35.304  0.00  0.00     0.295 C 
ATOM      4  O   UNK d   1     -24.171   1.448 -35.925  0.00  0.00    -0.264 OA
ATOM      5  C   UNK d   1     -21.937   1.911 -35.068  0.00  0.00     0.251 C 
ATOM      6  O   UNK d   1     -21.695   3.079 -35.448  0.00  0.00    -0.282 OA
ATOM      7  C   UNK d   1     -21.050   1.051 -34.288  0.00  0.00     0.064 C 
ATOM      8  C   UNK d   1     -19.743   1.086 -34.263  0.00  0.00     0.149 C 
ATOM      9  O   UNK d   1     -19.090   0.109 -33.480  0.00  0.00    -0.189 OA
ENDROOT
BRANCH   1  10
ATOM     10  C   UNK d   1     -21.453  -0.894 -32.781  0.00  0.00    -0.029 A 
ATOM     11  C   UNK d   1     -21.044  -0.577 -31.469  0.00  0.00     0.028 A 
ATOM     12  C   UNK d   1     -20.489  -1.493 -30.615  0.00  0.00     0.011 A 
ATOM     13 Br   UNK d   1     -19.958  -0.990 -28.844  0.00  0.00    -0.051 Br
ATOM     14  C   UNK d   1     -20.297  -2.793 -30.999  0.00  0.00     0.019 A 
ATOM     15  C   UNK d   1     -20.680  -3.151 -32.271  0.00  0.00     0.002 A 
ATOM     16  C   UNK d   1     -21.236  -2.212 -33.115  0.00  0.00     0.009 A 
ENDBRANCH   1  10
BRANCH   8  17
ATOM     17  C   UNK d   1     -18.961   2.076 -34.988  0.00  0.00     0.102 A 
ATOM     18  N   UNK d   1     -18.508   3.288 -34.638  0.00  0.00    -0.302 N 
ATOM     19  C   UNK d   1     -17.868   3.844 -35.671  0.00  0.00     0.140 A 
ATOM     20  C   UNK d   1     -18.625   3.911 -33.433  0.00  0.00     0.099 A 
ATOM     21  N   UNK d   1     -17.918   2.958 -36.700  0.00  0.00    -0.233 NA
ATOM     22  C   UNK d   1     -17.282   5.104 -35.577  0.00  0.00    -0.015 A 
ATOM     23  C   UNK d   1     -18.581   1.858 -36.321  0.00  0.00     0.063 A 
ATOM     24  C   UNK d   1     -18.859   0.648 -37.147  0.00  0.00     0.073 C 
ATOM     25  C   UNK d   1     -17.386   5.759 -34.365  0.00  0.00     0.012 A 
ATOM     26  C   UNK d   1     -16.586   5.673 -36.757  0.00  0.00     0.052 C 
ATOM     27  C   UNK d   1     -18.054   5.155 -33.315  0.00  0.00     0.018 A 
ENDBRANCH   8  17
BRANCH   2  28
ATOM     28  C   UNK d   1     -23.595  -1.394 -35.089  0.00  0.00     0.155 C 
BRANCH  28  29
ATOM     29  C   UNK d   1     -23.164  -1.923 -36.413  0.00  0.00     0.255 C 
BRANCH  29  30
ATOM     30  N   UNK d   1     -24.030  -1.505 -37.497  0.00  0.00    -0.066 N 
ATOM     31  C   UNK d   1     -23.314  -0.712 -38.472  0.00  0.00     0.261 C 
ATOM     32  C   UNK d   1     -22.382  -1.616 -39.285  0.00  0.00     0.195 C 
ATOM     33  O   UNK d   1     -23.220  -2.471 -40.010  0.00  0.00    -0.388 OA
ATOM     34  C   UNK d   1     -23.772  -3.356 -39.061  0.00  0.00     0.195 C 
ATOM     35  C   UNK d   1     -24.699  -2.636 -38.110  0.00  0.00     0.261 C 
ATOM     36  H   UNK d   1     -24.785  -0.887 -37.110  0.00  0.00     0.280 HD
ENDBRANCH  29  30
ENDBRANCH  28  29
ENDBRANCH   2  28
TORSDOF 5
ENDMDL
