/Users/jonathanwahrer/Desktop/Msc/3_Semester/Drug_Design_Praktikum/waehrer_HTS_screening/HTS_experiment/out/docking_results/vina_output/5l4q/0184_docked.pdbqt
 OpenBabel03212217483D

 33 36  0  0  1  0  0  0  0  0999 V2000
  -21.6150   -0.6120  -33.3790 C   0  0  2  0  0  3  0  0  0  0  0  0
  -21.8850   -1.8630  -34.0610 N   0  0  0  0  0  0  0  0  0  0  0  0
  -22.5380   -1.4890  -35.2820 C   0  0  0  0  0  0  0  0  0  0  0  0
  -23.3160   -2.1750  -35.9680 O   0  0  0  0  0  0  0  0  0  0  0  0
  -22.1170   -0.1270  -35.5890 C   0  0  0  0  0  0  0  0  0  0  0  0
  -22.4240    0.6310  -36.5560 O   0  0  0  0  0  0  0  0  0  0  0  0
  -21.2110    0.2670  -34.5210 C   0  0  0  0  0  0  0  0  0  0  0  0
  -20.3000    1.2180  -34.5890 C   0  0  0  0  0  0  0  0  0  0  0  0
  -19.5830    1.4690  -33.4110 O   0  0  0  0  0  1  0  0  0  0  0  0
  -20.5650   -0.6820  -32.3570 C   0  0  0  0  0  0  0  0  0  0  0  0
  -20.7240   -0.2870  -31.0710 C   0  0  0  0  0  3  0  0  0  0  0  0
  -19.6690   -0.3820  -30.1620 C   0  0  0  0  0  0  0  0  0  0  0  0
  -19.9330    0.1830  -28.3680 Br  0  0  0  0  0  0  0  0  0  0  0  0
  -18.4300   -0.8790  -30.5390 C   0  0  0  0  0  3  0  0  0  0  0  0
  -18.2890   -1.2760  -31.8510 C   0  0  0  0  0  3  0  0  0  0  0  0
  -19.3170   -1.1860  -32.7410 C   0  0  0  0  0  3  0  0  0  0  0  0
  -19.9910    2.0000  -35.7770 C   0  0  0  0  0  0  0  0  0  0  0  0
  -20.2860    3.2870  -36.0090 N   0  0  0  0  0  0  0  0  0  0  0  0
  -19.7980    3.6860  -37.2120 C   0  0  0  0  0  0  0  0  0  0  0  0
  -20.9750    4.2160  -35.2810 C   0  0  0  0  0  3  0  0  0  0  0  0
  -19.1840    2.5840  -37.7250 N   0  0  0  0  0  0  0  0  0  0  0  0
  -19.9720    4.9690  -37.7070 C   0  0  0  0  0  3  0  0  0  0  0  0
  -19.2760    1.5550  -36.9000 C   0  0  0  0  0  0  0  0  0  0  0  0
  -18.7770    0.1670  -37.0100 C   0  0  0  0  0  1  0  0  0  0  0  0
  -20.6680    5.9010  -36.9650 C   0  0  0  0  0  3  0  0  0  0  0  0
  -21.1640    5.4840  -35.7360 C   0  0  0  0  0  3  0  0  0  0  0  0
  -21.5840   -3.2260  -33.6180 C   0  0  0  0  0  2  0  0  0  0  0  0
  -22.5320   -3.7420  -32.5980 C   0  0  0  0  0  2  0  0  0  0  0  0
  -22.0990   -3.7850  -31.1910 C   0  0  0  0  0  2  0  0  0  0  0  0
  -20.7880   -4.2750  -30.9410 N   0  0  0  0  0  4  0  0  0  0  0  0
  -20.7770   -5.7170  -31.0010 C   0  0  0  0  0  1  0  0  0  0  0  0
  -20.3950   -3.9290  -29.5620 C   0  0  0  0  0  1  0  0  0  0  0  0
  -20.0440   -3.8390  -31.5290 H   0  0  0  0  0  0  0  0  0  0  0  0
  1 10  1  1  0  0  0
  2 27  1  0  0  0  0
  2  1  1  0  0  0  0
  3  2  1  0  0  0  0
  4  3  2  0  0  0  0
  5  3  1  0  0  0  0
  5  7  1  0  0  0  0
  6  5  2  0  0  0  0
  7  1  1  0  0  0  0
  8  7  2  0  0  0  0
  8  9  1  0  0  0  0
 10 11  1  0  0  0  0
 11 12  2  0  0  0  0
 12 13  1  0  0  0  0
 14 12  1  0  0  0  0
 15 14  2  0  0  0  0
 16 10  2  0  0  0  0
 16 15  1  0  0  0  0
 17  8  1  0  0  0  0
 18 17  1  0  0  0  0
 18 20  1  0  0  0  0
 19 18  1  0  0  0  0
 21 19  2  0  0  0  0
 21 23  1  0  0  0  0
 22 19  1  0  0  0  0
 22 25  2  0  0  0  0
 23 17  2  0  0  0  0
 24 23  1  0  0  0  0
 25 26  1  0  0  0  0
 26 20  2  0  0  0  0
 27 28  1  0  0  0  0
 28 29  1  0  0  0  0
 29 30  1  0  0  0  0
 30 32  1  0  0  0  0
 31 30  1  0  0  0  0
 33 30  1  0  0  0  0
M  END
>  <Pose>
1

>  <Score>
-7.204

$$$$
