MODEL 1
REMARK VINA RESULT:    -7.204      0.000      0.000
REMARK INTER + INTRA:         -10.332
REMARK INTER:                  -9.731
REMARK INTRA:                  -0.601
REMARK UNBOUND:                -0.601
REMARK  6 active torsions:
REMARK  status: ('A' for Active; 'I' for Inactive)
REMARK    1  A    between atoms: C_4  and  C_8 
REMARK    2  A    between atoms: N_9  and  C_27 
REMARK    3  A    between atoms: C_15  and  C_17 
REMARK    4  A    between atoms: C_27  and  C_28 
REMARK    5  A    between atoms: C_28  and  C_29 
REMARK    6  A    between atoms: C_29  and  N_30 
ROOT
ATOM      1  C   UNK d   1     -21.615  -0.612 -33.379  0.00  0.00     0.161 C 
ATOM      2  N   UNK d   1     -21.885  -1.863 -34.061  0.00  0.00    -0.332 N 
ATOM      3  C   UNK d   1     -22.538  -1.489 -35.282  0.00  0.00     0.295 C 
ATOM      4  O   UNK d   1     -23.316  -2.175 -35.968  0.00  0.00    -0.264 OA
ATOM      5  C   UNK d   1     -22.117  -0.127 -35.589  0.00  0.00     0.251 C 
ATOM      6  O   UNK d   1     -22.424   0.631 -36.556  0.00  0.00    -0.282 OA
ATOM      7  C   UNK d   1     -21.211   0.267 -34.521  0.00  0.00     0.064 C 
ATOM      8  C   UNK d   1     -20.300   1.218 -34.589  0.00  0.00     0.149 C 
ATOM      9  O   UNK d   1     -19.583   1.469 -33.411  0.00  0.00    -0.189 OA
ENDROOT
BRANCH   1  10
ATOM     10  C   UNK d   1     -20.565  -0.682 -32.357  0.00  0.00    -0.029 A 
ATOM     11  C   UNK d   1     -20.724  -0.287 -31.071  0.00  0.00     0.028 A 
ATOM     12  C   UNK d   1     -19.669  -0.382 -30.162  0.00  0.00     0.011 A 
ATOM     13 Br   UNK d   1     -19.933   0.183 -28.368  0.00  0.00    -0.051 Br
ATOM     14  C   UNK d   1     -18.430  -0.879 -30.539  0.00  0.00     0.019 A 
ATOM     15  C   UNK d   1     -18.289  -1.276 -31.851  0.00  0.00     0.002 A 
ATOM     16  C   UNK d   1     -19.317  -1.186 -32.741  0.00  0.00     0.009 A 
ENDBRANCH   1  10
BRANCH   8  17
ATOM     17  C   UNK d   1     -19.991   2.000 -35.777  0.00  0.00     0.102 A 
ATOM     18  N   UNK d   1     -20.286   3.287 -36.009  0.00  0.00    -0.302 N 
ATOM     19  C   UNK d   1     -19.798   3.686 -37.212  0.00  0.00     0.134 A 
ATOM     20  C   UNK d   1     -20.975   4.216 -35.281  0.00  0.00     0.099 A 
ATOM     21  N   UNK d   1     -19.184   2.584 -37.725  0.00  0.00    -0.233 NA
ATOM     22  C   UNK d   1     -19.972   4.969 -37.707  0.00  0.00     0.051 A 
ATOM     23  C   UNK d   1     -19.276   1.555 -36.900  0.00  0.00     0.063 A 
ATOM     24  C   UNK d   1     -18.777   0.167 -37.010  0.00  0.00     0.073 C 
ATOM     25  C   UNK d   1     -20.668   5.901 -36.965  0.00  0.00     0.005 A 
ATOM     26  C   UNK d   1     -21.164   5.484 -35.736  0.00  0.00     0.018 A 
ENDBRANCH   8  17
BRANCH   2  27
ATOM     27  C   UNK d   1     -21.584  -3.226 -33.618  0.00  0.00     0.129 C 
BRANCH  27  28
ATOM     28  C   UNK d   1     -22.532  -3.742 -32.598  0.00  0.00     0.048 C 
BRANCH  28  29
ATOM     29  C   UNK d   1     -22.099  -3.785 -31.191  0.00  0.00     0.235 C 
BRANCH  29  30
ATOM     30  N   UNK d   1     -20.788  -4.275 -30.941  0.00  0.00    -0.079 N 
ATOM     31  C   UNK d   1     -20.777  -5.717 -31.001  0.00  0.00     0.269 C 
ATOM     32  C   UNK d   1     -20.395  -3.929 -29.562  0.00  0.00     0.269 C 
ATOM     33  H   UNK d   1     -20.044  -3.839 -31.529  0.00  0.00     0.278 HD
ENDBRANCH  29  30
ENDBRANCH  28  29
ENDBRANCH  27  28
ENDBRANCH   2  27
TORSDOF 6
ENDMDL
