MODEL 1
REMARK VINA RESULT:    -8.097      0.000      0.000
REMARK INTER + INTRA:         -10.197
REMARK INTER:                  -9.517
REMARK INTRA:                  -0.680
REMARK UNBOUND:                -0.680
REMARK  3 active torsions:
REMARK  status: ('A' for Active; 'I' for Inactive)
REMARK    1  A    between atoms: C_4  and  N_8 
REMARK       I    between atoms: N_8  and  C_9 
REMARK    2  A    between atoms: C_9  and  C_11 
REMARK    3  A    between atoms: N_13  and  C_15 
ROOT
ATOM      1  C   UNK d   1     -21.156   1.333 -35.058  0.00  0.00     0.114 C 
ATOM      2  C   UNK d   1     -22.155   1.544 -36.165  0.00  0.00     0.140 C 
ATOM      3  N   UNK d   1     -21.405   0.644 -37.053  0.00  0.00    -0.362 N 
ATOM      4  C   UNK d   1     -20.273   0.839 -36.166  0.00  0.00     0.140 C 
ENDROOT
BRANCH   1   5
ATOM      5  C   UNK d   1     -21.560   0.278 -34.064  0.00  0.00     0.229 C 
ATOM      6  N   UNK d   1     -20.932  -0.976 -34.106  0.00  0.00    -0.327 N 
ATOM      7  H   UNK d   1     -20.168  -1.149 -34.857  0.00  0.00     0.169 HD
ATOM      8  O   UNK d   1     -22.446   0.619 -33.267  0.00  0.00    -0.273 OA
BRANCH   6   9
ATOM      9  C   UNK d   1     -21.208  -2.055 -33.243  0.00  0.00     0.035 A 
ATOM     10  C   UNK d   1     -20.616  -2.081 -31.972  0.00  0.00     0.048 A 
ATOM     11  C   UNK d   1     -20.831  -3.095 -31.068  0.00  0.00     0.013 A 
ATOM     12 Br   UNK d   1     -20.006  -3.090 -29.351  0.00  0.00    -0.051 Br
ATOM     13  C   UNK d   1     -21.652  -4.132 -31.399  0.00  0.00     0.019 A 
ATOM     14  C   UNK d   1     -22.238  -4.131 -32.624  0.00  0.00     0.004 A 
ATOM     15  C   UNK d   1     -22.026  -3.106 -33.549  0.00  0.00     0.029 A 
ENDBRANCH   6   9
ENDBRANCH   1   5
BRANCH   3  16
ATOM     16  C   UNK d   1     -21.733  -0.061 -38.244  0.00  0.00     0.162 A 
ATOM     17  N   UNK d   1     -21.191   0.262 -39.447  0.00  0.00    -0.222 NA
ATOM     18  C   UNK d   1     -21.522  -0.432 -40.575  0.00  0.00     0.237 A 
ATOM     19  N   UNK d   1     -22.389  -1.449 -40.534  0.00  0.00    -0.220 NA
ATOM     20  C   UNK d   1     -22.958  -1.819 -39.386  0.00  0.00     0.183 A 
ATOM     21  N   UNK d   1     -23.845  -2.790 -39.086  0.00  0.00    -0.236 N 
ATOM     22  C   UNK d   1     -22.622  -1.117 -38.247  0.00  0.00     0.173 A 
ATOM     23  N   UNK d   1     -24.064  -2.705 -37.792  0.00  0.00    -0.064 NA
ATOM     24  C   UNK d   1     -24.459  -3.760 -39.990  0.00  0.00     0.183 C 
ATOM     25  N   UNK d   1     -23.345  -1.710 -37.259  0.00  0.00    -0.124 NA
ENDBRANCH   3  16
TORSDOF 3
ENDMDL
