MODEL 1
REMARK VINA RESULT:    -7.992      0.000      0.000
REMARK INTER + INTRA:          -9.333
REMARK INTER:                  -8.927
REMARK INTRA:                  -0.407
REMARK UNBOUND:                -0.407
REMARK  2 active torsions:
REMARK  status: ('A' for Active; 'I' for Inactive)
REMARK    1  A    between atoms: C_4  and  N_8 
REMARK    2  A    between atoms: N_8  and  C_9 
ROOT
ATOM      1  C   UNK d   1     -22.805  -0.943 -37.417  0.00  0.00     0.180 A 
ATOM      2  N   UNK d   1     -22.046  -0.111 -38.122  0.00  0.00    -0.202 NA
ATOM      3  C   UNK d   1     -21.777  -0.229 -39.433  0.00  0.00     0.231 A 
ATOM      4  N   UNK d   1     -21.066   0.455 -40.346  0.00  0.00    -0.081 NA
ATOM      5  O   UNK d   1     -21.136  -0.104 -41.513  0.00  0.00    -0.103 OA
ATOM      6  N   UNK d   1     -21.879  -1.147 -41.399  0.00  0.00    -0.081 NA
ATOM      7  C   UNK d   1     -22.318  -1.295 -40.138  0.00  0.00     0.229 A 
ATOM      8  N   UNK d   1     -23.091  -2.164 -39.469  0.00  0.00    -0.196 N 
ATOM      9  N   UNK d   1     -23.713  -3.251 -39.917  0.00  0.00     0.004 NA
ATOM     10  N   UNK d   1     -24.362  -3.793 -38.875  0.00  0.00     0.018 NA
ATOM     11  N   UNK d   1     -24.129  -3.033 -37.804  0.00  0.00    -0.138 NA
ATOM     12  C   UNK d   1     -23.339  -2.015 -38.158  0.00  0.00     0.212 A 
ENDROOT
BRANCH   1  13
ATOM     13  N   UNK d   1     -23.115  -0.860 -36.039  0.00  0.00    -0.338 N 
ATOM     14  H   UNK d   1     -24.011  -0.384 -35.733  0.00  0.00     0.167 HD
BRANCH  13  15
ATOM     15  C   UNK d   1     -22.307  -1.371 -35.002  0.00  0.00     0.035 A 
ATOM     16  C   UNK d   1     -22.560  -2.476 -34.235  0.00  0.00     0.048 A 
ATOM     17  C   UNK d   1     -21.739  -2.946 -33.224  0.00  0.00     0.013 A 
ATOM     18 Br   UNK d   1     -22.184  -4.499 -32.211  0.00  0.00    -0.051 Br
ATOM     19  C   UNK d   1     -20.578  -2.268 -32.952  0.00  0.00     0.019 A 
ATOM     20  C   UNK d   1     -20.264  -1.148 -33.688  0.00  0.00     0.004 A 
ATOM     21  C   UNK d   1     -21.102  -0.711 -34.684  0.00  0.00     0.029 A 
ENDBRANCH  13  15
ENDBRANCH   1  13
TORSDOF 2
ENDMDL
