MODEL 1
REMARK VINA RESULT:    -9.191      0.000      0.000
REMARK INTER + INTRA:         -11.590
REMARK INTER:                 -11.340
REMARK INTRA:                  -0.250
REMARK UNBOUND:                -0.250
REMARK  4 active torsions:
REMARK  status: ('A' for Active; 'I' for Inactive)
REMARK    1  A    between atoms: C_4  and  N_8 
REMARK    2  A    between atoms: C_11  and  C_13 
REMARK       I    between atoms: C_13  and  N_15 
REMARK    3  A    between atoms: N_15  and  C_16 
REMARK    4  A    between atoms: C_16  and  C_17 
ROOT
ATOM      1  C   UNK d   1     -20.155  -4.367 -28.075  0.00  0.00     0.273 C 
ATOM      2  O   UNK d   1     -20.554  -5.485 -27.664  0.00  0.00    -0.266 OA
ATOM      3  N   UNK d   1     -20.239  -4.078 -29.452  0.00  0.00    -0.348 N 
ATOM      4  H   UNK d   1     -19.903  -3.143 -29.775  0.00  0.00     0.163 HD
ENDROOT
BRANCH   1   5
ATOM      5  C   UNK d   1     -19.625  -3.423 -27.098  0.00  0.00     0.165 A 
ATOM      6  N   UNK d   1     -19.202  -3.680 -25.837  0.00  0.00    -0.125 NA
ATOM      7  N   UNK d   1     -18.799  -2.542 -25.295  0.00  0.00    -0.060 NA
ATOM      8  N   UNK d   1     -18.937  -1.555 -26.140  0.00  0.00    -0.224 N 
ATOM      9  C   UNK d   1     -19.448  -2.069 -27.271  0.00  0.00     0.159 A 
BRANCH   8  10
ATOM     10  C   UNK d   1     -18.628  -0.164 -25.973  0.00  0.00     0.060 A 
ATOM     11  C   UNK d   1     -18.126   0.354 -24.804  0.00  0.00     0.050 A 
ATOM     12  C   UNK d   1     -17.840   1.719 -24.691  0.00  0.00     0.013 A 
ATOM     13 Br   UNK d   1     -17.144   2.441 -23.071  0.00  0.00    -0.051 Br
ATOM     14  C   UNK d   1     -18.056   2.575 -25.749  0.00  0.00     0.019 A 
ATOM     15  C   UNK d   1     -18.558   2.067 -26.925  0.00  0.00     0.004 A 
ATOM     16  C   UNK d   1     -18.840   0.700 -27.025  0.00  0.00     0.032 A 
ENDBRANCH   8  10
ENDBRANCH   1   5
BRANCH   3  17
ATOM     17  C   UNK d   1     -20.758  -4.987 -30.448  0.00  0.00     0.203 C 
BRANCH  17  18
ATOM     18  C   UNK d   1     -21.244  -4.241 -31.661  0.00  0.00     0.148 A 
ATOM     19  N   UNK d   1     -20.940  -2.978 -32.046  0.00  0.00    -0.319 N 
ATOM     20  C   UNK d   1     -21.579  -2.693 -33.186  0.00  0.00     0.130 A 
ATOM     21  C   UNK d   1     -20.141  -1.853 -31.594  0.00  0.00     0.132 C 
ATOM     22  N   UNK d   1     -22.288  -3.803 -33.502  0.00  0.00    -0.135 NA
ATOM     23  C   UNK d   1     -21.266  -1.292 -33.647  0.00  0.00     0.082 C 
ATOM     24  N   UNK d   1     -22.086  -4.731 -32.588  0.00  0.00    -0.133 NA
ATOM     25  C   UNK d   1     -20.722  -0.686 -32.371  0.00  0.00     0.028 C 
ENDBRANCH  17  18
ENDBRANCH   3  17
TORSDOF 4
ENDMDL
