MODEL 1
REMARK VINA RESULT:    -9.563      0.000      0.000
REMARK INTER + INTRA:         -10.655
REMARK INTER:                 -10.681
REMARK INTRA:                   0.026
REMARK UNBOUND:                 0.026
REMARK  2 active torsions:
REMARK  status: ('A' for Active; 'I' for Inactive)
REMARK    1  A    between atoms: C_4  and  N_8 
REMARK    2  A    between atoms: C_14  and  C_18 
ROOT
ATOM      1  N   UNK d   1     -20.263  -2.993 -29.324  0.00  0.00    -0.246 N 
ATOM      2  C   UNK d   1     -20.505  -4.293 -29.898  0.00  0.00     0.268 C 
ATOM      3  O   UNK d   1     -19.955  -5.353 -29.487  0.00  0.00    -0.269 OA
ATOM      4  C   UNK d   1     -21.464  -4.163 -30.994  0.00  0.00     0.285 C 
ATOM      5  O   UNK d   1     -21.304  -4.967 -32.087  0.00  0.00    -0.260 OA
ATOM      6  N   UNK d   1     -21.732  -4.141 -33.124  0.00  0.00    -0.264 N 
ATOM      7  C   UNK d   1     -21.270  -2.837 -32.864  0.00  0.00     0.083 C 
ATOM      8  C   UNK d   1     -21.081  -2.806 -31.537  0.00  0.00     0.080 C 
ATOM      9  C   UNK d   1     -20.629  -2.068 -30.363  0.00  0.00     0.266 C 
ATOM     10  O   UNK d   1     -20.568  -0.824 -30.275  0.00  0.00    -0.267 OA
ATOM     11  H   UNK d   1     -22.287  -4.434 -33.938  0.00  0.00     0.194 HD
ENDROOT
BRANCH   1  12
ATOM     12  C   UNK d   1     -19.770  -2.656 -28.043  0.00  0.00     0.047 A 
ATOM     13  C   UNK d   1     -19.282  -1.384 -27.751  0.00  0.00     0.049 A 
ATOM     14  C   UNK d   1     -18.796  -1.016 -26.522  0.00  0.00     0.013 A 
ATOM     15 Br   UNK d   1     -18.133   0.735 -26.160  0.00  0.00    -0.051 Br
ATOM     16  C   UNK d   1     -18.769  -1.926 -25.485  0.00  0.00     0.019 A 
ATOM     17  C   UNK d   1     -19.253  -3.202 -25.758  0.00  0.00     0.004 A 
ATOM     18  C   UNK d   1     -19.738  -3.561 -26.993  0.00  0.00     0.030 A 
ENDBRANCH   1  12
BRANCH   7  19
ATOM     19  C   UNK d   1     -21.080  -1.726 -33.783  0.00  0.00     0.036 A 
ATOM     20  C   UNK d   1     -22.112  -1.072 -34.462  0.00  0.00     0.040 A 
ATOM     21  N   UNK d   1     -21.586  -0.103 -35.185  0.00  0.00    -0.278 N 
ATOM     22  C   UNK d   1     -23.551  -1.421 -34.409  0.00  0.00     0.071 C 
ATOM     23  N   UNK d   1     -20.268  -0.108 -34.999  0.00  0.00    -0.184 NA
ATOM     24  C   UNK d   1     -22.302   0.828 -36.055  0.00  0.00     0.179 C 
ATOM     25  C   UNK d   1     -19.939  -1.076 -34.162  0.00  0.00     0.154 A 
ENDBRANCH   7  19
TORSDOF 2
ENDMDL
