/Users/jonathanwahrer/Desktop/Msc/3_Semester/Drug_Design_Praktikum/waehrer_HTS_screening/HTS_experiment/out/docking_results/vina_output/5l4q/0205_docked.pdbqt
 OpenBabel03212217493D

 25 28  0  0  1  0  0  0  0  0999 V2000
  -20.2630   -2.9930  -29.3240 N   0  0  0  0  0  0  0  0  0  0  0  0
  -20.5050   -4.2930  -29.8980 C   0  0  0  0  0  0  0  0  0  0  0  0
  -19.9550   -5.3530  -29.4870 O   0  0  0  0  0  0  0  0  0  0  0  0
  -21.4640   -4.1630  -30.9940 C   0  0  2  0  0  3  0  0  0  0  0  0
  -21.3040   -4.9670  -32.0870 O   0  0  0  0  0  0  0  0  0  0  0  0
  -21.7320   -4.1410  -33.1240 N   0  0  0  0  0  0  0  0  0  0  0  0
  -21.2700   -2.8370  -32.8640 C   0  0  0  0  0  0  0  0  0  0  0  0
  -21.0810   -2.8060  -31.5370 C   0  0  0  0  0  0  0  0  0  0  0  0
  -20.6290   -2.0680  -30.3630 C   0  0  0  0  0  0  0  0  0  0  0  0
  -20.5680   -0.8240  -30.2750 O   0  0  0  0  0  0  0  0  0  0  0  0
  -22.2870   -4.4340  -33.9380 H   0  0  0  0  0  0  0  0  0  0  0  0
  -19.7700   -2.6560  -28.0430 C   0  0  0  0  0  0  0  0  0  0  0  0
  -19.2820   -1.3840  -27.7510 C   0  0  0  0  0  3  0  0  0  0  0  0
  -18.7960   -1.0160  -26.5220 C   0  0  0  0  0  0  0  0  0  0  0  0
  -18.1330    0.7350  -26.1600 Br  0  0  0  0  0  0  0  0  0  0  0  0
  -18.7690   -1.9260  -25.4850 C   0  0  0  0  0  3  0  0  0  0  0  0
  -19.2530   -3.2020  -25.7580 C   0  0  0  0  0  3  0  0  0  0  0  0
  -19.7380   -3.5610  -26.9930 C   0  0  0  0  0  3  0  0  0  0  0  0
  -21.0800   -1.7260  -33.7830 C   0  0  0  0  0  0  0  0  0  0  0  0
  -22.1120   -1.0720  -34.4620 C   0  0  0  0  0  0  0  0  0  0  0  0
  -21.5860   -0.1030  -35.1850 N   0  0  0  0  0  0  0  0  0  0  0  0
  -23.5510   -1.4210  -34.4090 C   0  0  0  0  0  1  0  0  0  0  0  0
  -20.2680   -0.1080  -34.9990 N   0  0  0  0  0  0  0  0  0  0  0  0
  -22.3020    0.8280  -36.0550 C   0  0  0  0  0  1  0  0  0  0  0  0
  -19.9390   -1.0760  -34.1620 C   0  0  0  0  0  3  0  0  0  0  0  0
  1 12  1  0  0  0  0
  2  3  2  0  0  0  0
  2  1  1  0  0  0  0
  4  5  1  6  0  0  0
  4  2  1  0  0  0  0
  6  7  1  0  0  0  0
  6  5  1  0  0  0  0
  7  8  2  0  0  0  0
  8  4  1  0  0  0  0
  8  9  1  0  0  0  0
  9 10  2  0  0  0  0
  9  1  1  0  0  0  0
 11  6  1  0  0  0  0
 12 13  2  0  0  0  0
 12 18  1  0  0  0  0
 13 14  1  0  0  0  0
 14 15  1  0  0  0  0
 14 16  2  0  0  0  0
 17 16  1  0  0  0  0
 18 17  2  0  0  0  0
 19  7  1  0  0  0  0
 20 22  1  0  0  0  0
 20 19  2  0  0  0  0
 21 23  1  0  0  0  0
 21 20  1  0  0  0  0
 23 25  2  0  0  0  0
 24 21  1  0  0  0  0
 25 19  1  0  0  0  0
M  END
>  <Pose>
1

>  <Score>
-9.563

$$$$
