MODEL 1
REMARK VINA RESULT:    -7.578      0.000      0.000
REMARK INTER + INTRA:          -8.980
REMARK INTER:                  -8.686
REMARK INTRA:                  -0.294
REMARK UNBOUND:                -0.294
REMARK  3 active torsions:
REMARK  status: ('A' for Active; 'I' for Inactive)
REMARK    1  A    between atoms: C_4  and  N_8 
REMARK    2  A    between atoms: C_12  and  C_20 
REMARK    3  A    between atoms: C_20  and  O_21 
ROOT
ATOM      1  N   UNK d   1     -19.780  -1.601 -31.834  0.00  0.00    -0.252 N 
ATOM      2  C   UNK d   1     -20.356  -2.327 -32.911  0.00  0.00     0.239 C 
ATOM      3  O   UNK d   1     -20.731  -3.556 -32.848  0.00  0.00    -0.272 OA
ATOM      4  C   UNK d   1     -20.448  -1.447 -34.085  0.00  0.00     0.135 C 
ATOM      5  C   UNK d   1     -21.803  -0.809 -34.091  0.00  0.00     0.113 C 
ATOM      6  O   UNK d   1     -21.658   0.067 -32.984  0.00  0.00    -0.363 OA
ATOM      7  C   UNK d   1     -20.582   0.821 -33.523  0.00  0.00     0.159 C 
ATOM      8  C   UNK d   1     -19.563  -0.283 -33.738  0.00  0.00     0.128 C 
ATOM      9  C   UNK d   1     -18.983  -0.582 -32.414  0.00  0.00     0.239 C 
ATOM     10  O   UNK d   1     -17.972  -0.027 -31.910  0.00  0.00    -0.272 OA
ATOM     11  C   UNK d   1     -21.184   1.237 -34.810  0.00  0.00     0.005 C 
ATOM     12  C   UNK d   1     -21.979   0.208 -35.162  0.00  0.00     0.012 C 
ENDROOT
BRANCH   1  13
ATOM     13  C   UNK d   1     -19.970  -1.855 -30.423  0.00  0.00     0.046 A 
ATOM     14  C   UNK d   1     -20.033  -3.142 -29.910  0.00  0.00     0.049 A 
ATOM     15  C   UNK d   1     -20.208  -3.442 -28.597  0.00  0.00     0.013 A 
ATOM     16 Br   UNK d   1     -20.276  -5.267 -28.039  0.00  0.00    -0.051 Br
ATOM     17  C   UNK d   1     -20.333  -2.405 -27.693  0.00  0.00     0.019 A 
ATOM     18  C   UNK d   1     -20.277  -1.106 -28.154  0.00  0.00     0.004 A 
ATOM     19  C   UNK d   1     -20.096  -0.831 -29.512  0.00  0.00     0.030 A 
ENDBRANCH   1  13
BRANCH   5  20
ATOM     20  C   UNK d   1     -22.946  -1.741 -33.954  0.00  0.00     0.207 C 
BRANCH  20  21
ATOM     21  O   UNK d   1     -22.902  -2.661 -35.003  0.00  0.00    -0.398 OA
ATOM     22  H   UNK d   1     -22.741  -3.573 -34.653  0.00  0.00     0.209 HD
ENDBRANCH  20  21
ENDBRANCH   5  20
TORSDOF 3
ENDMDL
