MODEL 1
REMARK VINA RESULT:    -8.855      0.000      0.000
REMARK INTER + INTRA:         -10.179
REMARK INTER:                  -9.890
REMARK INTRA:                  -0.289
REMARK UNBOUND:                -0.289
REMARK  2 active torsions:
REMARK  status: ('A' for Active; 'I' for Inactive)
REMARK    1  A    between atoms: C_4  and  N_8 
REMARK    2  A    between atoms: C_14  and  C_18 
ROOT
ATOM      1  N   UNK d   1     -19.789  -1.915 -29.082  0.00  0.00    -0.246 N 
ATOM      2  C   UNK d   1     -20.667  -3.048 -29.261  0.00  0.00     0.268 C 
ATOM      3  O   UNK d   1     -21.451  -3.542 -28.444  0.00  0.00    -0.269 OA
ATOM      4  C   UNK d   1     -20.472  -3.549 -30.653  0.00  0.00     0.285 C 
ATOM      5  O   UNK d   1     -21.623  -4.025 -31.253  0.00  0.00    -0.260 OA
ATOM      6  N   UNK d   1     -21.384  -3.736 -32.576  0.00  0.00    -0.264 N 
ATOM      7  C   UNK d   1     -20.860  -2.396 -32.559  0.00  0.00     0.083 C 
ATOM      8  C   UNK d   1     -20.290  -2.238 -31.390  0.00  0.00     0.080 C 
ATOM      9  C   UNK d   1     -19.559  -1.416 -30.418  0.00  0.00     0.266 C 
ATOM     10  O   UNK d   1     -18.864  -0.450 -30.751  0.00  0.00    -0.267 OA
ATOM     11  H   UNK d   1     -21.534  -4.320 -33.406  0.00  0.00     0.194 HD
ENDROOT
BRANCH   1  12
ATOM     12  C   UNK d   1     -19.291  -1.437 -27.848  0.00  0.00     0.047 A 
ATOM     13  C   UNK d   1     -19.132  -0.086 -27.642  0.00  0.00     0.049 A 
ATOM     14  C   UNK d   1     -18.635   0.412 -26.433  0.00  0.00     0.013 A 
ATOM     15 Br   UNK d   1     -18.424   2.286 -26.176  0.00  0.00    -0.051 Br
ATOM     16  C   UNK d   1     -18.287  -0.432 -25.404  0.00  0.00     0.019 A 
ATOM     17  C   UNK d   1     -18.446  -1.786 -25.609  0.00  0.00     0.004 A 
ATOM     18  C   UNK d   1     -18.944  -2.281 -26.822  0.00  0.00     0.030 A 
ENDBRANCH   1  12
BRANCH   7  19
ATOM     19  C   UNK d   1     -20.932  -1.392 -33.586  0.00  0.00     0.036 A 
ATOM     20  C   UNK d   1     -19.825  -0.643 -33.980  0.00  0.00     0.127 A 
ATOM     21  N   UNK d   1     -20.181   0.203 -34.963  0.00  0.00    -0.284 N 
ATOM     22  N   UNK d   1     -21.469  -0.012 -35.173  0.00  0.00    -0.177 NA
ATOM     23  C   UNK d   1     -19.307   1.167 -35.651  0.00  0.00     0.179 C 
ATOM     24  C   UNK d   1     -21.969  -0.956 -34.378  0.00  0.00     0.065 A 
ATOM     25  C   UNK d   1     -23.377  -1.477 -34.329  0.00  0.00     0.073 C 
ENDBRANCH   7  19
TORSDOF 2
ENDMDL
