/Users/jonathanwahrer/Desktop/Msc/3_Semester/Drug_Design_Praktikum/waehrer_HTS_screening/HTS_experiment/out/docking_results/vina_output/5l4q/0216_docked.pdbqt
 OpenBabel03212217503D

 28 31  0  0  1  0  0  0  0  0999 V2000
  -20.2090   -1.0070  -34.0430 C   0  0  0  0  0  0  0  0  0  0  0  0
  -21.0680   -1.5850  -34.7540 O   0  0  0  0  0  0  0  0  0  0  0  0
  -19.3940    0.0270  -34.5530 N   0  0  0  0  0  0  0  0  0  0  0  0
  -18.3900    0.7200  -33.7580 C   0  0  0  0  0  2  0  0  0  0  0  0
  -18.2110    2.1270  -34.3130 C   0  0  0  0  0  2  0  0  0  0  0  0
  -19.4010    2.6260  -34.9750 N   0  0  0  0  0  0  0  0  0  0  0  0
  -19.6180    1.8850  -36.1670 C   0  0  0  0  0  2  0  0  0  0  0  0
  -19.5850    0.4090  -35.9580 C   0  0  0  0  0  2  0  0  0  0  0  0
  -20.0660   -1.4250  -32.6630 C   0  0  1  0  0  3  0  0  0  0  0  0
  -20.7370   -0.4440  -31.6790 C   0  0  0  0  0  2  0  0  0  0  0  0
  -20.4550   -1.1960  -30.4650 N   0  0  0  0  0  0  0  0  0  0  0  0
  -20.8310   -2.5240  -30.8130 C   0  0  0  0  0  0  0  0  0  0  0  0
  -20.8980   -2.6590  -32.2950 C   0  0  0  0  0  2  0  0  0  0  0  0
  -21.0700   -3.4410  -29.9940 O   0  0  0  0  0  0  0  0  0  0  0  0
  -19.9250   -0.6400  -29.2790 C   0  0  0  0  0  0  0  0  0  0  0  0
  -19.5380   -1.4710  -28.2430 C   0  0  0  0  0  3  0  0  0  0  0  0
  -19.0170   -0.9850  -27.0490 C   0  0  0  0  0  0  0  0  0  0  0  0
  -18.5190   -2.2050  -25.6950 Br  0  0  0  0  0  0  0  0  0  0  0  0
  -18.8810    0.3940  -26.8940 C   0  0  0  0  0  3  0  0  0  0  0  0
  -19.2540    1.2590  -27.8990 C   0  0  0  0  0  3  0  0  0  0  0  0
  -19.7630    0.7100  -29.0570 C   0  0  0  0  0  3  0  0  0  0  0  0
  -20.4990    2.7660  -34.0860 C   0  0  0  0  0  2  0  0  0  0  0  0
  -21.8180    3.0160  -34.7720 C   0  0  0  0  0  2  0  0  0  0  0  0
  -22.7160    1.8970  -34.7370 N   0  0  0  0  0  0  0  0  0  0  0  0
  -23.1340    1.1360  -35.7500 C   0  0  0  0  0  3  0  0  0  0  0  0
  -23.9820    0.1940  -35.2860 N   0  0  0  0  0  0  0  0  0  0  0  0
  -24.1040    0.3570  -33.9640 C   0  0  0  0  0  3  0  0  0  0  0  0
  -23.3070    1.4270  -33.6300 C   0  0  0  0  0  3  0  0  0  0  0  0
  2  1  2  0  0  0  0
  3  1  1  0  0  0  0
  3  4  1  0  0  0  0
  5  4  1  0  0  0  0
  6  5  1  0  0  0  0
  6 22  1  0  0  0  0
  7  8  1  0  0  0  0
  7  6  1  0  0  0  0
  8  3  1  0  0  0  0
  9  1  1  6  0  0  0
  9 13  1  0  0  0  0
  9 10  1  0  0  0  0
 10 11  1  0  0  0  0
 11 15  1  0  0  0  0
 12 11  1  0  0  0  0
 12 14  2  0  0  0  0
 13 12  1  0  0  0  0
 15 21  2  0  0  0  0
 15 16  1  0  0  0  0
 16 17  2  0  0  0  0
 17 19  1  0  0  0  0
 17 18  1  0  0  0  0
 20 19  2  0  0  0  0
 21 20  1  0  0  0  0
 23 24  1  0  0  0  0
 23 22  1  0  0  0  0
 24 28  1  0  0  0  0
 25 26  2  0  0  0  0
 25 24  1  0  0  0  0
 26 27  1  0  0  0  0
 27 28  2  0  0  0  0
M  END
>  <Pose>
1

>  <Score>
-8.098

$$$$
