MODEL 1
REMARK VINA RESULT:    -8.098      0.000      0.000
REMARK INTER + INTRA:         -11.486
REMARK INTER:                 -10.465
REMARK INTRA:                  -1.021
REMARK UNBOUND:                -1.021
REMARK  5 active torsions:
REMARK  status: ('A' for Active; 'I' for Inactive)
REMARK    1  A    between atoms: C_4  and  N_8 
REMARK    2  A    between atoms: C_10  and  C_14 
REMARK       I    between atoms: C_14  and  N_16 
REMARK    3  A    between atoms: N_19  and  C_22 
REMARK    4  A    between atoms: C_22  and  C_23 
REMARK    5  A    between atoms: C_23  and  N_24 
ROOT
ATOM      1  C   UNK d   1     -20.209  -1.007 -34.043  0.00  0.00     0.226 C 
ATOM      2  O   UNK d   1     -21.068  -1.585 -34.754  0.00  0.00    -0.273 OA
ATOM      3  N   UNK d   1     -19.394   0.027 -34.553  0.00  0.00    -0.348 N 
ATOM      4  C   UNK d   1     -18.390   0.720 -33.758  0.00  0.00     0.156 C 
ATOM      5  C   UNK d   1     -18.211   2.127 -34.313  0.00  0.00     0.292 C 
ATOM      6  N   UNK d   1     -19.401   2.626 -34.975  0.00  0.00     0.093 N 
ATOM      7  C   UNK d   1     -19.618   1.885 -36.167  0.00  0.00     0.292 C 
ATOM      8  C   UNK d   1     -19.585   0.409 -35.958  0.00  0.00     0.156 C 
ENDROOT
BRANCH   1   9
ATOM      9  C   UNK d   1     -20.066  -1.425 -32.663  0.00  0.00     0.105 C 
ATOM     10  C   UNK d   1     -20.737  -0.444 -31.679  0.00  0.00     0.146 C 
ATOM     11  N   UNK d   1     -20.455  -1.196 -30.465  0.00  0.00    -0.317 N 
ATOM     12  C   UNK d   1     -20.831  -2.524 -30.813  0.00  0.00     0.225 C 
ATOM     13  C   UNK d   1     -20.898  -2.659 -32.295  0.00  0.00     0.119 C 
ATOM     14  O   UNK d   1     -21.070  -3.441 -29.994  0.00  0.00    -0.273 OA
BRANCH  11  15
ATOM     15  C   UNK d   1     -19.925  -0.640 -29.279  0.00  0.00     0.038 A 
ATOM     16  C   UNK d   1     -19.538  -1.471 -28.243  0.00  0.00     0.048 A 
ATOM     17  C   UNK d   1     -19.017  -0.985 -27.049  0.00  0.00     0.013 A 
ATOM     18 Br   UNK d   1     -18.519  -2.205 -25.695  0.00  0.00    -0.051 Br
ATOM     19  C   UNK d   1     -18.881   0.394 -26.894  0.00  0.00     0.019 A 
ATOM     20  C   UNK d   1     -19.254   1.259 -27.899  0.00  0.00     0.004 A 
ATOM     21  C   UNK d   1     -19.763   0.710 -29.057  0.00  0.00     0.030 A 
ENDBRANCH  11  15
ENDBRANCH   1   9
BRANCH   6  22
ATOM     22  C   UNK d   1     -20.499   2.766 -34.086  0.00  0.00     0.292 C 
BRANCH  22  23
ATOM     23  C   UNK d   1     -21.818   3.016 -34.772  0.00  0.00     0.159 C 
BRANCH  23  24
ATOM     24  N   UNK d   1     -22.716   1.897 -34.737  0.00  0.00    -0.348 N 
ATOM     25  C   UNK d   1     -23.134   1.136 -35.750  0.00  0.00     0.209 A 
ATOM     26  N   UNK d   1     -23.982   0.194 -35.286  0.00  0.00    -0.255 NA
ATOM     27  C   UNK d   1     -24.104   0.357 -33.964  0.00  0.00     0.135 A 
ATOM     28  C   UNK d   1     -23.307   1.427 -33.630  0.00  0.00     0.111 A 
ENDBRANCH  23  24
ENDBRANCH  22  23
ENDBRANCH   6  22
TORSDOF 5
ENDMDL
