/Users/jonathanwahrer/Desktop/Msc/3_Semester/Drug_Design_Praktikum/waehrer_HTS_screening/HTS_experiment/out/docking_results/vina_output/5l4q/0219_docked.pdbqt
 OpenBabel03212217503D

 27 30  0  0  1  0  0  0  0  0999 V2000
  -21.2650   -1.2010  -34.1260 N   0  0  0  0  0  0  0  0  0  0  0  0
  -22.4910   -1.8830  -34.3650 C   0  0  0  0  0  0  0  0  0  0  0  0
  -22.4900   -3.1230  -34.0500 O   0  0  0  0  0  0  0  0  0  0  0  0
  -21.2110   -0.1880  -34.3600 H   0  0  0  0  0  0  0  0  0  0  0  0
  -23.7070   -1.2660  -34.9320 C   0  0  0  0  0  2  0  0  0  0  0  0
  -23.5480   -0.7300  -36.2560 N   0  0  0  0  0  0  0  0  0  0  0  0
  -23.8300   -1.5070  -37.4320 C   0  0  0  0  0  0  0  0  0  0  0  0
  -23.9440   -2.7550  -37.5210 O   0  0  0  0  0  0  0  0  0  0  0  0
  -23.9660   -0.5780  -38.5540 C   0  0  1  0  0  3  0  0  0  0  0  0
  -23.7560    0.8410  -37.9900 C   0  0  2  0  0  3  0  0  0  0  0  0
  -22.8530   -0.6340  -39.5630 C   0  0  1  0  0  3  0  0  0  0  0  0
  -22.7550    1.4950  -38.8750 C   0  0  2  0  0  3  0  0  0  0  0  0
  -23.1320    0.5800  -36.6670 C   0  0  0  0  0  0  0  0  0  0  0  0
  -23.0200    0.7580  -40.2050 C   0  0  0  0  0  2  0  0  0  0  0  0
  -21.4310    0.9000  -38.5660 C   0  0  0  0  0  2  0  0  0  0  0  0
  -21.5560   -0.3930  -38.8440 C   0  0  0  0  0  2  0  0  0  0  0  0
  -22.3860    1.3290  -36.0140 O   0  0  0  0  0  0  0  0  0  0  0  0
  -20.1120   -1.8500  -33.5800 C   0  0  0  0  0  2  0  0  0  0  0  0
  -19.3550   -0.8990  -32.6410 C   0  0  0  0  0  2  0  0  0  0  0  0
  -19.5790   -1.1700  -31.3960 O   0  0  0  0  0  0  0  0  0  0  0  0
  -19.7420   -1.5130  -30.1720 C   0  0  0  0  0  0  0  0  0  0  0  0
  -19.9160   -2.8680  -29.8360 C   0  0  0  0  0  3  0  0  0  0  0  0
  -20.0960   -3.3030  -28.5510 C   0  0  0  0  0  0  0  0  0  0  0  0
  -20.3280   -5.1520  -28.1330 Br  0  0  0  0  0  0  0  0  0  0  0  0
  -20.1130   -2.4050  -27.5190 C   0  0  0  0  0  3  0  0  0  0  0  0
  -19.9490   -1.0600  -27.7870 C   0  0  0  0  0  3  0  0  0  0  0  0
  -19.7680   -0.6260  -29.0770 C   0  0  0  0  0  3  0  0  0  0  0  0
  1 18  1  0  0  0  0
  2  1  1  0  0  0  0
  2  3  2  0  0  0  0
  4  1  1  0  0  0  0
  5  2  1  0  0  0  0
  6  5  1  0  0  0  0
  7  6  1  0  0  0  0
  8  7  2  0  0  0  0
  9 10  1  0  0  0  0
  9  7  1  1  0  0  0
 10 13  1  1  0  0  0
 11 14  1  6  0  0  0
 11 16  1  0  0  0  0
 11  9  1  0  0  0  0
 12 14  1  6  0  0  0
 12 15  1  0  0  0  0
 12 10  1  0  0  0  0
 13  6  1  0  0  0  0
 13 17  2  0  0  0  0
 16 15  1  0  0  0  0
 18 19  1  0  0  0  0
 19 20  1  0  0  0  0
 20 21  1  0  0  0  0
 21 22  2  0  0  0  0
 21 27  1  0  0  0  0
 22 23  1  0  0  0  0
 23 24  1  0  0  0  0
 23 25  2  0  0  0  0
 26 25  1  0  0  0  0
 27 26  2  0  0  0  0
M  END
>  <Pose>
1

>  <Score>
-8.273

$$$$
