MODEL 1
REMARK VINA RESULT:    -8.320      0.000      0.000
REMARK INTER + INTRA:         -11.176
REMARK INTER:                 -10.265
REMARK INTRA:                  -0.910
REMARK UNBOUND:                -0.910
REMARK  4 active torsions:
REMARK  status: ('A' for Active; 'I' for Inactive)
REMARK    1  A    between atoms: C_5  and  C_8 
REMARK    2  A    between atoms: C_8  and  C_10 
REMARK    3  A    between atoms: C_10  and  N_11 
REMARK    4  A    between atoms: C_15  and  N_16 
ROOT
ATOM      1  N   UNK d   1     -21.804   0.294 -35.451  0.00  0.00    -0.165 N 
ATOM      2  C   UNK d   1     -22.265  -0.485 -36.444  0.00  0.00     0.167 A 
ATOM      3  C   UNK d   1     -22.016   0.116 -37.662  0.00  0.00     0.185 A 
ATOM      4  N   UNK d   1     -21.396   1.264 -37.362  0.00  0.00    -0.044 NA
ATOM      5  C   UNK d   1     -21.254   1.398 -36.031  0.00  0.00     0.708 A 
ATOM      6  N   UNK d   1     -22.392  -0.488 -38.804  0.00  0.00    -0.286 N 
ATOM      7  C   UNK d   1     -23.013  -1.680 -38.777  0.00  0.00     0.330 A 
ATOM      8  O   UNK d   1     -23.381  -2.279 -39.818  0.00  0.00    -0.246 OA
ATOM      9  N   UNK d   1     -23.265  -2.284 -37.583  0.00  0.00    -0.273 N 
ATOM     10  C   UNK d   1     -22.909  -1.720 -36.415  0.00  0.00     0.280 A 
ATOM     11  O   UNK d   1     -23.164  -2.316 -35.318  0.00  0.00    -0.265 OA
ATOM     12  C   UNK d   1     -22.145   0.117 -40.097  0.00  0.00     0.163 C 
ATOM     13  H   UNK d   1     -23.750  -3.211 -37.605  0.00  0.00     0.173 HD
ENDROOT
BRANCH   1  14
ATOM     14  C   UNK d   1     -21.858   0.029 -34.041  0.00  0.00     0.232 C 
BRANCH  14  15
ATOM     15  C   UNK d   1     -20.737  -0.839 -33.562  0.00  0.00     0.178 C 
ATOM     16  O   UNK d   1     -19.931  -1.335 -34.366  0.00  0.00    -0.290 OA
BRANCH  15  17
ATOM     17  C   UNK d   1     -20.566  -1.122 -32.139  0.00  0.00     0.011 A 
ATOM     18  C   UNK d   1     -20.273  -0.129 -31.237  0.00  0.00     0.016 A 
ATOM     19  C   UNK d   1     -20.109  -0.401 -29.889  0.00  0.00     0.020 A 
ATOM     20  C   UNK d   1     -20.232  -1.688 -29.387  0.00  0.00     0.011 A 
ATOM     21 Br   UNK d   1     -19.999  -2.019 -27.529  0.00  0.00    -0.051 Br
ATOM     22  C   UNK d   1     -20.525  -2.686 -30.290  0.00  0.00     0.020 A 
ATOM     23  C   UNK d   1     -20.686  -2.401 -31.627  0.00  0.00     0.016 A 
ENDBRANCH  15  17
ENDBRANCH  14  15
ENDBRANCH   1  14
BRANCH   5  24
ATOM     24  N   UNK d   1     -20.654   2.453 -35.303  0.00  0.00    -0.212 N 
ATOM     25  C   UNK d   1     -21.432   3.607 -34.986  0.00  0.00     0.171 C 
ATOM     26  C   UNK d   1     -20.901   4.517 -33.942  0.00  0.00     0.292 C 
ATOM     27  N   UNK d   1     -19.481   4.487 -33.751  0.00  0.00     0.087 N 
ATOM     28  C   UNK d   1     -19.082   3.104 -33.574  0.00  0.00     0.292 C 
ATOM     29  C   UNK d   1     -18.745   5.152 -34.788  0.00  0.00     0.310 C 
ATOM     30  C   UNK d   1     -19.288   2.352 -34.890  0.00  0.00     0.171 C 
ENDBRANCH   5  24
TORSDOF 4
ENDMDL
