MODEL 1
REMARK VINA RESULT:    -7.857      0.000      0.000
REMARK INTER + INTRA:         -11.428
REMARK INTER:                 -11.073
REMARK INTRA:                  -0.355
REMARK UNBOUND:                -0.355
REMARK  7 active torsions:
REMARK  status: ('A' for Active; 'I' for Inactive)
REMARK    1  A    between atoms: C_5  and  C_8 
REMARK    2  A    between atoms: C_8  and  C_10 
REMARK    3  A    between atoms: C_11  and  C_25 
REMARK    4  A    between atoms: N_12  and  C_17 
REMARK    5  A    between atoms: C_17  and  C_18 
REMARK    6  A    between atoms: C_18  and  N_19 
REMARK    7  A    between atoms: C_27  and  O_32 
ROOT
ATOM      1  C   UNK d   1     -22.399  -0.547 -34.687  0.00  0.00     0.167 C 
ATOM      2  C   UNK d   1     -21.688  -0.635 -36.015  0.00  0.00     0.140 C 
ATOM      3  N   UNK d   1     -22.788  -0.598 -36.952  0.00  0.00    -0.334 N 
ATOM      4  C   UNK d   1     -23.776   0.250 -36.375  0.00  0.00     0.291 C 
ATOM      5  O   UNK d   1     -24.834   0.654 -36.949  0.00  0.00    -0.264 OA
ATOM      6  C   UNK d   1     -23.356   0.577 -34.999  0.00  0.00     0.230 C 
ATOM      7  O   UNK d   1     -23.720   1.542 -34.308  0.00  0.00    -0.286 OA
ENDROOT
BRANCH   1   8
ATOM      8  C   UNK d   1     -21.549  -0.246 -33.550  0.00  0.00     0.173 C 
ATOM      9  O   UNK d   1     -21.076   0.897 -33.380  0.00  0.00    -0.291 OA
BRANCH   8  10
ATOM     10  C   UNK d   1     -21.235  -1.282 -32.583  0.00  0.00     0.011 A 
ATOM     11  C   UNK d   1     -21.463  -2.630 -32.879  0.00  0.00     0.016 A 
ATOM     12  C   UNK d   1     -21.180  -3.626 -31.980  0.00  0.00     0.020 A 
ATOM     13  C   UNK d   1     -20.657  -3.299 -30.752  0.00  0.00     0.011 A 
ATOM     14 Br   UNK d   1     -20.271  -4.691 -29.521  0.00  0.00    -0.051 Br
ATOM     15  C   UNK d   1     -20.410  -1.998 -30.402  0.00  0.00     0.020 A 
ATOM     16  C   UNK d   1     -20.708  -1.021 -31.334  0.00  0.00     0.016 A 
ENDBRANCH   8  10
ENDBRANCH   1   8
BRANCH   2  17
ATOM     17  C   UNK d   1     -20.682   0.393 -36.230  0.00  0.00    -0.031 A 
ATOM     18  C   UNK d   1     -21.015   1.676 -36.688  0.00  0.00     0.049 A 
ATOM     19  C   UNK d   1     -20.056   2.648 -36.885  0.00  0.00     0.105 A 
ATOM     20  C   UNK d   1     -18.720   2.392 -36.634  0.00  0.00     0.140 A 
ATOM     21  C   UNK d   1     -18.371   1.138 -36.182  0.00  0.00     0.043 A 
ATOM     22  O   UNK d   1     -17.735   3.352 -36.825  0.00  0.00    -0.189 OA
ATOM     23  C   UNK d   1     -19.346   0.172 -35.990  0.00  0.00     0.012 A 
BRANCH  19  24
ATOM     24  O   UNK d   1     -20.378   3.915 -37.338  0.00  0.00    -0.353 OA
ATOM     25  C   UNK d   1     -21.629   4.521 -37.132  0.00  0.00     0.210 C 
ENDBRANCH  19  24
ENDBRANCH   2  17
BRANCH   3  26
ATOM     26  C   UNK d   1     -22.940  -1.253 -38.227  0.00  0.00     0.154 C 
BRANCH  26  27
ATOM     27  C   UNK d   1     -22.019  -0.725 -39.285  0.00  0.00     0.255 C 
BRANCH  27  28
ATOM     28  N   UNK d   1     -22.642  -0.035 -40.347  0.00  0.00    -0.066 N 
ATOM     29  C   UNK d   1     -21.757  -0.103 -41.515  0.00  0.00     0.261 C 
ATOM     30  C   UNK d   1     -20.529   0.730 -41.353  0.00  0.00     0.195 C 
ATOM     31  O   UNK d   1     -20.578   1.633 -40.320  0.00  0.00    -0.388 OA
ATOM     32  C   UNK d   1     -21.792   2.274 -40.274  0.00  0.00     0.195 C 
ATOM     33  C   UNK d   1     -22.956   1.332 -40.126  0.00  0.00     0.261 C 
ATOM     34  H   UNK d   1     -23.526  -0.527 -40.656  0.00  0.00     0.280 HD
ENDBRANCH  27  28
ENDBRANCH  26  27
ENDBRANCH   3  26
TORSDOF 7
ENDMDL
