MODEL 1
REMARK VINA RESULT:    -8.887      0.000      0.000
REMARK INTER + INTRA:         -11.335
REMARK INTER:                 -10.965
REMARK INTRA:                  -0.370
REMARK UNBOUND:                -0.370
REMARK  4 active torsions:
REMARK  status: ('A' for Active; 'I' for Inactive)
REMARK    1  A    between atoms: C_5  and  C_8 
REMARK       I    between atoms: C_8  and  N_10 
REMARK    2  A    between atoms: N_10  and  C_11 
REMARK    3  A    between atoms: C_19  and  C_22 
REMARK    4  A    between atoms: C_22  and  C_23 
ROOT
ATOM      1  C   UNK d   1     -19.570  -0.165 -33.490  0.00  0.00     0.105 C 
ATOM      2  C   UNK d   1     -20.393   1.064 -33.790  0.00  0.00     0.152 C 
ATOM      3  N   UNK d   1     -21.549   0.554 -34.497  0.00  0.00    -0.335 N 
ATOM      4  C   UNK d   1     -21.270  -0.776 -35.012  0.00  0.00     0.181 C 
ATOM      5  C   UNK d   1     -19.927  -1.195 -34.525  0.00  0.00     0.061 C 
ATOM      6  C   UNK d   1     -22.370  -1.640 -34.530  0.00  0.00     0.241 C 
ATOM      7  O   UNK d   1     -22.099  -2.736 -33.989  0.00  0.00    -0.271 OA
ATOM      8  N   UNK d   1     -23.700  -1.186 -34.703  0.00  0.00    -0.346 N 
ATOM      9  C   UNK d   1     -24.051   0.192 -34.956  0.00  0.00     0.181 C 
ATOM     10  C   UNK d   1     -22.848   1.055 -34.785  0.00  0.00     0.243 C 
ATOM     11  O   UNK d   1     -22.960   2.329 -34.896  0.00  0.00    -0.271 OA
ATOM     12  H   UNK d   1     -24.453  -1.921 -34.636  0.00  0.00     0.163 HD
ENDROOT
BRANCH   1  13
ATOM     13  N   UNK d   1     -19.861  -0.718 -32.192  0.00  0.00    -0.351 N 
ATOM     14  C   UNK d   1     -18.861  -0.843 -31.224  0.00  0.00     0.252 C 
ATOM     15  O   UNK d   1     -17.665  -0.468 -31.467  0.00  0.00    -0.268 OA
ATOM     16  H   UNK d   1     -20.828  -1.022 -31.992  0.00  0.00     0.163 HD
BRANCH  14  17
ATOM     17  C   UNK d   1     -19.096  -1.399 -29.884  0.00  0.00     0.032 A 
ATOM     18  C   UNK d   1     -19.774  -2.586 -29.699  0.00  0.00     0.018 A 
ATOM     19  C   UNK d   1     -19.994  -3.109 -28.441  0.00  0.00     0.020 A 
ATOM     20  C   UNK d   1     -19.549  -2.473 -27.300  0.00  0.00     0.011 A 
ATOM     21 Br   UNK d   1     -19.828  -3.155 -25.549  0.00  0.00    -0.051 Br
ATOM     22  C   UNK d   1     -18.865  -1.277 -27.489  0.00  0.00     0.020 A 
ATOM     23  C   UNK d   1     -18.652  -0.765 -28.746  0.00  0.00     0.018 A 
ENDBRANCH  14  17
ENDBRANCH   1  13
BRANCH   9  24
ATOM     24  C   UNK d   1     -24.688   0.354 -36.315  0.00  0.00     0.073 C 
BRANCH  24  25
ATOM     25  C   UNK d   1     -23.992  -0.468 -37.344  0.00  0.00    -0.056 A 
ATOM     26  C   UNK d   1     -24.400  -1.777 -37.600  0.00  0.00     0.007 A 
ATOM     27  C   UNK d   1     -23.721  -2.491 -38.563  0.00  0.00     0.001 A 
ATOM     28  C   UNK d   1     -22.660  -1.967 -39.282  0.00  0.00     0.000 A 
ATOM     29  C   UNK d   1     -22.295  -0.673 -38.995  0.00  0.00     0.001 A 
ATOM     30  C   UNK d   1     -22.936   0.089 -38.043  0.00  0.00     0.007 A 
ENDBRANCH  24  25
ENDBRANCH   9  24
TORSDOF 4
ENDMDL
