/Users/jonathanwahrer/Desktop/Msc/3_Semester/Drug_Design_Praktikum/waehrer_HTS_screening/HTS_experiment/out/docking_results/vina_output/5l4q/0244_docked.pdbqt
 OpenBabel03212217513D

 25 28  0  0  1  0  0  0  0  0999 V2000
  -23.9660   -1.7170  -37.4610 C   0  0  2  0  0  3  0  0  0  0  0  0
  -23.5150   -2.1800  -38.8260 C   0  0  0  0  0  2  0  0  0  0  0  0
  -22.9640   -0.9720  -39.4150 N   0  0  0  0  0  0  0  0  0  0  0  0
  -23.5960    0.1820  -38.8040 C   0  0  1  0  0  3  0  0  0  0  0  0
  -24.4260   -0.2930  -37.6600 C   0  0  0  0  0  2  0  0  0  0  0  0
  -22.5000    1.0940  -38.3900 C   0  0  0  0  0  0  0  0  0  0  0  0
  -22.4500    1.6550  -37.2710 O   0  0  0  0  0  0  0  0  0  0  0  0
  -21.4390    1.3660  -39.2880 N   0  0  0  0  0  0  0  0  0  0  0  0
  -21.0400    0.4350  -40.3230 C   0  0  2  0  0  3  0  0  0  0  0  0
  -21.0280    1.3320  -41.5200 C   0  0  0  0  0  2  0  0  0  0  0  0
  -20.3950    2.6030  -40.9420 C   0  0  0  0  0  2  0  0  0  0  0  0
  -20.5650    2.4970  -39.4230 C   0  0  0  0  0  2  0  0  0  0  0  0
  -21.9880   -0.7040  -40.4130 C   0  0  0  0  0  0  0  0  0  0  0  0
  -21.9410   -1.4900  -41.4210 O   0  0  0  0  0  0  0  0  0  0  0  0
  -22.9210   -1.7150  -36.4900 N   0  0  0  0  0  0  0  0  0  0  0  0
  -23.2180   -1.4050  -35.1390 C   0  0  0  0  0  0  0  0  0  0  0  0
  -24.3930   -1.1370  -34.8090 O   0  0  0  0  0  0  0  0  0  0  0  0
  -21.9470   -1.9450  -36.8110 H   0  0  0  0  0  0  0  0  0  0  0  0
  -22.1640   -1.3920  -34.1060 C   0  0  0  0  0  0  0  0  0  0  0  0
  -21.7900   -0.1910  -33.5440 C   0  0  0  0  0  3  0  0  0  0  0  0
  -20.8100   -0.1450  -32.5780 C   0  0  0  0  0  3  0  0  0  0  0  0
  -20.1650   -1.2850  -32.1300 C   0  0  0  0  0  0  0  0  0  0  0  0
  -18.8230   -1.1440  -30.7950 Br  0  0  0  0  0  0  0  0  0  0  0  0
  -20.5400   -2.4900  -32.6930 C   0  0  0  0  0  3  0  0  0  0  0  0
  -21.5330   -2.5180  -33.6690 C   0  0  0  0  0  3  0  0  0  0  0  0
  1 15  1  1  0  0  0
  2  1  1  0  0  0  0
  3  2  1  0  0  0  0
  3  4  1  0  0  0  0
  4  6  1  0  0  0  0
  4  5  1  1  0  0  0
  5  1  1  0  0  0  0
  6  7  2  0  0  0  0
  8  6  1  0  0  0  0
  9 10  1  6  0  0  0
  9  8  1  0  0  0  0
 10 11  1  0  0  0  0
 11 12  1  0  0  0  0
 12  8  1  0  0  0  0
 13  9  1  0  0  0  0
 13  3  1  0  0  0  0
 14 13  2  0  0  0  0
 15 16  1  0  0  0  0
 16 17  2  0  0  0  0
 16 19  1  0  0  0  0
 18 15  1  0  0  0  0
 19 25  2  0  0  0  0
 19 20  1  0  0  0  0
 20 21  2  0  0  0  0
 21 22  1  0  0  0  0
 22 23  1  0  0  0  0
 24 22  2  0  0  0  0
 25 24  1  0  0  0  0
M  END
>  <Pose>
1

>  <Score>
-8.030

$$$$
