MODEL 1
REMARK VINA RESULT:    -8.030      0.000      0.000
REMARK INTER + INTRA:          -9.184
REMARK INTER:                  -8.969
REMARK INTRA:                  -0.215
REMARK UNBOUND:                -0.215
REMARK  2 active torsions:
REMARK  status: ('A' for Active; 'I' for Inactive)
REMARK    1  A    between atoms: C_5  and  C_8 
REMARK       I    between atoms: C_8  and  N_10 
REMARK    2  A    between atoms: N_10  and  C_11 
ROOT
ATOM      1  C   UNK d   1     -23.966  -1.717 -37.461  0.00  0.00     0.105 C 
ATOM      2  C   UNK d   1     -23.515  -2.180 -38.826  0.00  0.00     0.152 C 
ATOM      3  N   UNK d   1     -22.964  -0.972 -39.415  0.00  0.00    -0.335 N 
ATOM      4  C   UNK d   1     -23.596   0.182 -38.804  0.00  0.00     0.181 C 
ATOM      5  C   UNK d   1     -24.426  -0.293 -37.660  0.00  0.00     0.061 C 
ATOM      6  C   UNK d   1     -22.500   1.094 -38.390  0.00  0.00     0.243 C 
ATOM      7  O   UNK d   1     -22.450   1.655 -37.271  0.00  0.00    -0.271 OA
ATOM      8  N   UNK d   1     -21.439   1.366 -39.288  0.00  0.00    -0.337 N 
ATOM      9  C   UNK d   1     -21.040   0.435 -40.323  0.00  0.00     0.179 C 
ATOM     10  C   UNK d   1     -21.028   1.332 -41.520  0.00  0.00     0.037 C 
ATOM     11  C   UNK d   1     -20.395   2.603 -40.942  0.00  0.00     0.022 C 
ATOM     12  C   UNK d   1     -20.565   2.497 -39.423  0.00  0.00     0.127 C 
ATOM     13  C   UNK d   1     -21.988  -0.704 -40.413  0.00  0.00     0.243 C 
ATOM     14  O   UNK d   1     -21.941  -1.490 -41.421  0.00  0.00    -0.271 OA
ENDROOT
BRANCH   1  15
ATOM     15  N   UNK d   1     -22.921  -1.715 -36.490  0.00  0.00    -0.351 N 
ATOM     16  C   UNK d   1     -23.218  -1.405 -35.139  0.00  0.00     0.252 C 
ATOM     17  O   UNK d   1     -24.393  -1.137 -34.809  0.00  0.00    -0.268 OA
ATOM     18  H   UNK d   1     -21.947  -1.945 -36.811  0.00  0.00     0.163 HD
BRANCH  16  19
ATOM     19  C   UNK d   1     -22.164  -1.392 -34.106  0.00  0.00     0.032 A 
ATOM     20  C   UNK d   1     -21.790  -0.191 -33.544  0.00  0.00     0.018 A 
ATOM     21  C   UNK d   1     -20.810  -0.145 -32.578  0.00  0.00     0.020 A 
ATOM     22  C   UNK d   1     -20.165  -1.285 -32.130  0.00  0.00     0.011 A 
ATOM     23 Br   UNK d   1     -18.823  -1.144 -30.795  0.00  0.00    -0.051 Br
ATOM     24  C   UNK d   1     -20.540  -2.490 -32.693  0.00  0.00     0.020 A 
ATOM     25  C   UNK d   1     -21.533  -2.518 -33.669  0.00  0.00     0.018 A 
ENDBRANCH  16  19
ENDBRANCH   1  15
TORSDOF 2
ENDMDL
