MODEL 1
REMARK VINA RESULT:    -8.347      0.000      0.000
REMARK INTER + INTRA:          -9.813
REMARK INTER:                  -9.323
REMARK INTRA:                  -0.490
REMARK UNBOUND:                -0.490
REMARK  2 active torsions:
REMARK  status: ('A' for Active; 'I' for Inactive)
REMARK    1  A    between atoms: C_5  and  C_8 
REMARK       I    between atoms: C_8  and  N_10 
REMARK    2  A    between atoms: N_10  and  N_11 
ROOT
ATOM      1  N   UNK d   1     -20.241  -1.413 -30.997  0.00  0.00    -0.187 N 
ATOM      2  C   UNK d   1     -18.957  -0.931 -30.616  0.00  0.00     0.251 C 
ATOM      3  O   UNK d   1     -18.337  -0.060 -31.316  0.00  0.00    -0.271 OA
ATOM      4  C   UNK d   1     -18.509  -1.577 -29.355  0.00  0.00     0.101 C 
ATOM      5  C   UNK d   1     -19.740  -2.366 -28.952  0.00  0.00     0.101 C 
ATOM      6  C   UNK d   1     -20.347  -1.434 -27.924  0.00  0.00     0.022 C 
ATOM      7  C   UNK d   1     -19.071  -1.214 -27.084  0.00  0.00     0.018 C 
ATOM      8  C   UNK d   1     -18.319  -0.565 -28.261  0.00  0.00     0.022 C 
ATOM      9  C   UNK d   1     -19.304   0.539 -28.544  0.00  0.00    -0.025 C 
ATOM     10  C   UNK d   1     -20.490  -0.054 -28.468  0.00  0.00    -0.025 C 
ATOM     11  C   UNK d   1     -20.580  -2.497 -30.155  0.00  0.00     0.251 C 
ATOM     12  O   UNK d   1     -21.418  -3.401 -30.365  0.00  0.00    -0.271 OA
ENDROOT
BRANCH   1  13
ATOM     13  N   UNK d   1     -21.101  -0.949 -32.025  0.00  0.00    -0.254 N 
ATOM     14  C   UNK d   1     -20.988  -1.424 -33.349  0.00  0.00     0.270 C 
ATOM     15  O   UNK d   1     -20.114  -2.290 -33.677  0.00  0.00    -0.266 OA
ATOM     16  H   UNK d   1     -21.828  -0.251 -31.785  0.00  0.00     0.191 HD
BRANCH  14  17
ATOM     17  C   UNK d   1     -21.871  -0.939 -34.382  0.00  0.00     0.033 A 
ATOM     18  C   UNK d   1     -22.589  -1.858 -35.142  0.00  0.00     0.018 A 
ATOM     19  C   UNK d   1     -23.436  -1.442 -36.148  0.00  0.00     0.020 A 
ATOM     20  C   UNK d   1     -23.588  -0.113 -36.420  0.00  0.00     0.011 A 
ATOM     21 Br   UNK d   1     -24.765   0.439 -37.823  0.00  0.00    -0.051 Br
ATOM     22  C   UNK d   1     -22.876   0.821 -35.668  0.00  0.00     0.020 A 
ATOM     23  C   UNK d   1     -22.037   0.396 -34.671  0.00  0.00     0.018 A 
ENDBRANCH  14  17
ENDBRANCH   1  13
TORSDOF 2
ENDMDL
