/Users/jonathanwahrer/Desktop/Msc/3_Semester/Drug_Design_Praktikum/waehrer_HTS_screening/HTS_experiment/out/docking_results/vina_output/5l4q/0257_docked.pdbqt
 OpenBabel03212217523D

 31 34  0  0  1  0  0  0  0  0999 V2000
  -21.3910   -0.9950  -34.6210 C   0  0  2  0  0  3  0  0  0  0  0  0
  -19.9370   -0.8170  -34.3030 C   0  0  2  0  0  3  0  0  0  0  0  0
  -19.9020   -1.2770  -32.9200 N   0  0  0  0  0  0  0  0  0  0  0  0
  -20.7830   -2.4180  -32.9010 C   0  0  0  0  0  0  0  0  0  0  0  0
  -20.7050   -3.3520  -32.0880 O   0  0  0  0  0  0  0  0  0  0  0  0
  -21.7540   -2.2570  -33.9940 C   0  0  0  0  0  0  0  0  0  0  0  0
  -22.6890   -3.0340  -34.3210 O   0  0  0  0  0  0  0  0  0  0  0  0
  -22.1700   -0.2210  -35.3320 C   0  0  2  0  0  3  0  0  0  0  0  0
  -23.0000    0.6990  -34.6620 O   0  0  0  0  0  1  0  0  0  0  0  0
  -22.1680   -0.3200  -36.7810 C   0  0  0  0  0  0  0  0  0  0  0  0
  -23.0810   -1.1720  -37.4160 C   0  0  0  0  0  3  0  0  0  0  0  0
  -23.0840   -1.3090  -38.7870 C   0  0  0  0  0  3  0  0  0  0  0  0
  -22.2040   -0.6270  -39.5980 C   0  0  0  0  0  0  0  0  0  0  0  0
  -22.1880   -0.7980  -41.4960 Br  0  0  0  0  0  0  0  0  0  0  0  0
  -21.2980    0.2180  -38.9940 C   0  0  0  0  0  3  0  0  0  0  0  0
  -21.2950    0.3550  -37.6070 C   0  0  0  0  0  3  0  0  0  0  0  0
  -19.5350    0.6030  -34.4530 C   0  0  0  0  0  0  0  0  0  0  0  0
  -20.1290    1.5110  -33.6610 N   0  0  0  0  0  0  0  0  0  0  0  0
  -19.8410    2.8140  -33.6970 C   0  0  0  0  0  3  0  0  0  0  0  0
  -18.8890    3.2420  -34.5930 C   0  0  0  0  0  3  0  0  0  0  0  0
  -18.2560    2.3470  -35.4230 C   0  0  0  0  0  3  0  0  0  0  0  0
  -18.5880    1.0190  -35.3460 C   0  0  0  0  0  3  0  0  0  0  0  0
  -19.1440   -0.7170  -31.8390 C   0  0  0  0  0  2  0  0  0  0  0  0
  -20.0100   -0.4350  -30.6210 C   0  0  0  0  0  2  0  0  0  0  0  0
  -19.0840   -0.3410  -29.4080 C   0  0  0  0  0  2  0  0  0  0  0  0
  -19.3500   -1.3970  -28.4500 N   0  0  0  0  0  0  0  0  0  0  0  0
  -20.0980   -2.5100  -28.6390 C   0  0  0  0  0  2  0  0  0  0  0  0
  -20.0930   -3.2340  -27.5070 N   0  0  0  0  0  0  0  0  0  0  0  0
  -19.3510   -2.6130  -26.5780 C   0  0  0  0  0  3  0  0  0  0  0  0
  -20.5890   -4.1560  -27.3500 H   0  0  0  0  0  0  0  0  0  0  0  0
  -18.8940   -1.4630  -27.1900 C   0  0  0  0  0  3  0  0  0  0  0  0
  1  8  1  6  0  0  0
  1  2  1  0  0  0  0
  1  6  1  0  0  0  0
  2 17  1  1  0  0  0
  2  3  1  0  0  0  0
  3  4  1  0  0  0  0
  3 23  1  0  0  0  0
  4  5  2  0  0  0  0
  6  4  1  0  0  0  0
  7  6  2  0  0  0  0
  8  9  1  1  0  0  0
 10  8  1  0  0  0  0
 11 10  1  0  0  0  0
 12 11  2  0  0  0  0
 13 15  2  0  0  0  0
 13 12  1  0  0  0  0
 14 13  1  0  0  0  0
 15 16  1  0  0  0  0
 16 10  2  0  0  0  0
 17 18  1  0  0  0  0
 19 18  2  0  0  0  0
 20 19  1  0  0  0  0
 21 22  1  0  0  0  0
 21 20  2  0  0  0  0
 22 17  2  0  0  0  0
 23 24  1  0  0  0  0
 24 25  1  0  0  0  0
 25 26  1  0  0  0  0
 26 31  1  0  0  0  0
 27 26  1  0  0  0  0
 27 28  1  0  0  0  0
 28 30  1  0  0  0  0
 28 29  1  0  0  0  0
 31 29  2  0  0  0  0
M  END
>  <Pose>
1

>  <Score>
-7.646

$$$$
