MODEL 1
REMARK VINA RESULT:    -7.646      0.000      0.000
REMARK INTER + INTRA:         -11.821
REMARK INTER:                 -10.775
REMARK INTRA:                  -1.046
REMARK UNBOUND:                -1.046
REMARK  7 active torsions:
REMARK  status: ('A' for Active; 'I' for Inactive)
REMARK    1  A    between atoms: C_5  and  C_8 
REMARK    2  A    between atoms: C_8  and  C_9 
REMARK    3  A    between atoms: C_10  and  C_24 
REMARK    4  A    between atoms: N_11  and  C_16 
REMARK    5  A    between atoms: C_16  and  C_17 
REMARK    6  A    between atoms: C_17  and  C_18 
REMARK    7  A    between atoms: C_18  and  N_19 
ROOT
ATOM      1  C   UNK d   1     -21.391  -0.995 -34.621  0.00  0.00     0.064 C 
ATOM      2  C   UNK d   1     -19.937  -0.817 -34.303  0.00  0.00     0.180 C 
ATOM      3  N   UNK d   1     -19.902  -1.277 -32.920  0.00  0.00    -0.331 N 
ATOM      4  C   UNK d   1     -20.783  -2.418 -32.901  0.00  0.00     0.295 C 
ATOM      5  O   UNK d   1     -20.705  -3.352 -32.088  0.00  0.00    -0.264 OA
ATOM      6  C   UNK d   1     -21.754  -2.257 -33.994  0.00  0.00     0.251 C 
ATOM      7  O   UNK d   1     -22.689  -3.034 -34.321  0.00  0.00    -0.282 OA
ENDROOT
BRANCH   1   8
ATOM      8  C   UNK d   1     -22.170  -0.221 -35.332  0.00  0.00     0.130 C 
ATOM      9  O   UNK d   1     -23.000   0.699 -34.662  0.00  0.00    -0.190 OA
BRANCH   8  10
ATOM     10  C   UNK d   1     -22.168  -0.320 -36.781  0.00  0.00     0.001 A 
ATOM     11  C   UNK d   1     -23.081  -1.172 -37.416  0.00  0.00     0.015 A 
ATOM     12  C   UNK d   1     -23.084  -1.309 -38.787  0.00  0.00     0.020 A 
ATOM     13  C   UNK d   1     -22.204  -0.627 -39.598  0.00  0.00     0.011 A 
ATOM     14 Br   UNK d   1     -22.188  -0.798 -41.496  0.00  0.00    -0.051 Br
ATOM     15  C   UNK d   1     -21.298   0.218 -38.994  0.00  0.00     0.020 A 
ATOM     16  C   UNK d   1     -21.295   0.355 -37.607  0.00  0.00     0.015 A 
ENDBRANCH   8  10
ENDBRANCH   1   8
BRANCH   2  17
ATOM     17  C   UNK d   1     -19.535   0.603 -34.453  0.00  0.00     0.061 A 
ATOM     18  N   UNK d   1     -20.129   1.511 -33.661  0.00  0.00    -0.263 NA
ATOM     19  C   UNK d   1     -19.841   2.814 -33.697  0.00  0.00     0.117 A 
ATOM     20  C   UNK d   1     -18.889   3.242 -34.593  0.00  0.00     0.019 A 
ATOM     21  C   UNK d   1     -18.256   2.347 -35.423  0.00  0.00     0.003 A 
ATOM     22  C   UNK d   1     -18.588   1.019 -35.346  0.00  0.00     0.029 A 
ENDBRANCH   2  17
BRANCH   3  23
ATOM     23  C   UNK d   1     -19.144  -0.717 -31.839  0.00  0.00     0.129 C 
BRANCH  23  24
ATOM     24  C   UNK d   1     -20.010  -0.435 -30.621  0.00  0.00     0.040 C 
BRANCH  24  25
ATOM     25  C   UNK d   1     -19.084  -0.341 -29.408  0.00  0.00     0.131 C 
BRANCH  25  26
ATOM     26  N   UNK d   1     -19.350  -1.397 -28.450  0.00  0.00    -0.352 N 
ATOM     27  C   UNK d   1     -20.098  -2.510 -28.639  0.00  0.00     0.182 A 
ATOM     28  N   UNK d   1     -20.093  -3.234 -27.507  0.00  0.00    -0.361 N 
ATOM     29  C   UNK d   1     -19.351  -2.613 -26.578  0.00  0.00     0.106 A 
ATOM     30  H   UNK d   1     -20.589  -4.156 -27.350  0.00  0.00     0.166 HD
ATOM     31  C   UNK d   1     -18.894  -1.463 -27.190  0.00  0.00     0.108 A 
ENDBRANCH  25  26
ENDBRANCH  24  25
ENDBRANCH  23  24
ENDBRANCH   3  23
TORSDOF 7
ENDMDL
