MODEL 1
REMARK VINA RESULT:    -8.740      0.000      0.000
REMARK INTER + INTRA:         -11.984
REMARK INTER:                 -11.806
REMARK INTRA:                  -0.178
REMARK UNBOUND:                -0.178
REMARK  6 active torsions:
REMARK  status: ('A' for Active; 'I' for Inactive)
REMARK    1  A    between atoms: C_5  and  C_8 
REMARK    2  A    between atoms: C_10  and  C_24 
REMARK    3  A    between atoms: N_11  and  C_16 
REMARK    4  A    between atoms: C_16  and  C_17 
REMARK    5  A    between atoms: C_17  and  N_18 
REMARK    6  A    between atoms: C_26  and  N_30 
ROOT
ATOM      1  C   UNK d   1     -20.777  -1.212 -32.661  0.00  0.00     0.130 C 
ATOM      2  C   UNK d   1     -19.992  -0.410 -33.331  0.00  0.00     0.062 C 
ATOM      3  C   UNK d   1     -20.179   0.076 -34.744  0.00  0.00     0.161 C 
ATOM      4  N   UNK d   1     -19.603   1.376 -34.723  0.00  0.00    -0.331 N 
ATOM      5  C   UNK d   1     -18.555   1.360 -33.724  0.00  0.00     0.295 C 
ATOM      6  O   UNK d   1     -17.595   2.160 -33.613  0.00  0.00    -0.264 OA
ATOM      7  C   UNK d   1     -18.795   0.229 -32.834  0.00  0.00     0.250 C 
ATOM      8  O   UNK d   1     -18.069  -0.089 -31.833  0.00  0.00    -0.282 OA
ATOM      9  O   UNK d   1     -21.943  -1.689 -33.300  0.00  0.00    -0.190 OA
ENDROOT
BRANCH   1  10
ATOM     10  C   UNK d   1     -20.465  -1.605 -31.297  0.00  0.00     0.001 A 
ATOM     11  C   UNK d   1     -20.609  -0.608 -30.333  0.00  0.00     0.015 A 
ATOM     12  C   UNK d   1     -20.387  -0.875 -29.012  0.00  0.00     0.020 A 
ATOM     13  C   UNK d   1     -20.018  -2.149 -28.645  0.00  0.00     0.011 A 
ATOM     14 Br   UNK d   1     -19.713  -2.490 -26.777  0.00  0.00    -0.051 Br
ATOM     15  C   UNK d   1     -19.874  -3.140 -29.594  0.00  0.00     0.020 A 
ATOM     16  C   UNK d   1     -20.101  -2.857 -30.924  0.00  0.00     0.015 A 
ENDBRANCH   1  10
BRANCH   3  17
ATOM     17  C   UNK d   1     -21.566  -0.051 -35.173  0.00  0.00    -0.028 A 
ATOM     18  C   UNK d   1     -22.027  -0.867 -36.172  0.00  0.00     0.045 A 
ATOM     19  C   UNK d   1     -23.354  -0.936 -36.509  0.00  0.00     0.103 A 
ATOM     20  C   UNK d   1     -24.262  -0.168 -35.833  0.00  0.00     0.036 A 
ATOM     21  C   UNK d   1     -23.854   0.680 -34.808  0.00  0.00     0.003 A 
ATOM     22  C   UNK d   1     -22.520   0.726 -34.496  0.00  0.00     0.010 A 
BRANCH  19  23
ATOM     23  N   UNK d   1     -23.758  -1.798 -37.548  0.00  0.00    -0.116 N 
ATOM     24  O   UNK d   1     -24.848  -2.426 -37.515  0.00  0.00    -0.532 OA
ATOM     25  O   UNK d   1     -22.926  -1.953 -38.633  0.00  0.00    -0.532 OA
ENDBRANCH  19  23
ENDBRANCH   3  17
BRANCH   4  26
ATOM     26  C   UNK d   1     -19.831   2.585 -35.494  0.00  0.00     0.155 C 
BRANCH  26  27
ATOM     27  C   UNK d   1     -19.139   2.645 -36.817  0.00  0.00     0.255 C 
BRANCH  27  28
ATOM     28  N   UNK d   1     -20.038   2.416 -37.936  0.00  0.00    -0.066 N 
ATOM     29  C   UNK d   1     -21.434   2.607 -37.528  0.00  0.00     0.261 C 
ATOM     30  C   UNK d   1     -22.243   2.494 -38.828  0.00  0.00     0.195 C 
ATOM     31  O   UNK d   1     -22.088   1.272 -39.435  0.00  0.00    -0.388 OA
ATOM     32  C   UNK d   1     -20.768   0.903 -39.640  0.00  0.00     0.195 C 
ATOM     33  C   UNK d   1     -19.935   1.052 -38.391  0.00  0.00     0.261 C 
ATOM     34  H   UNK d   1     -19.893   3.045 -38.730  0.00  0.00     0.280 HD
ENDBRANCH  27  28
ENDBRANCH  26  27
ENDBRANCH   4  26
TORSDOF 6
ENDMDL
