/Users/jonathanwahrer/Desktop/Msc/3_Semester/Drug_Design_Praktikum/waehrer_HTS_screening/HTS_experiment/out/docking_results/vina_output/5l4q/0263_docked.pdbqt
 OpenBabel03212217523D

 34 37  0  0  1  0  0  0  0  0999 V2000
  -20.7770   -1.2120  -32.6610 C   0  0  0  0  0  0  0  0  0  0  0  0
  -19.9920   -0.4100  -33.3310 C   0  0  0  0  0  0  0  0  0  0  0  0
  -20.1790    0.0760  -34.7440 C   0  0  2  0  0  3  0  0  0  0  0  0
  -19.6030    1.3760  -34.7230 N   0  0  0  0  0  0  0  0  0  0  0  0
  -18.5550    1.3600  -33.7240 C   0  0  0  0  0  0  0  0  0  0  0  0
  -17.5950    2.1600  -33.6130 O   0  0  0  0  0  0  0  0  0  0  0  0
  -18.7950    0.2290  -32.8340 C   0  0  0  0  0  0  0  0  0  0  0  0
  -18.0690   -0.0890  -31.8330 O   0  0  0  0  0  0  0  0  0  0  0  0
  -21.9430   -1.6890  -33.3000 O   0  0  0  0  0  1  0  0  0  0  0  0
  -20.4650   -1.6050  -31.2970 C   0  0  0  0  0  0  0  0  0  0  0  0
  -20.6090   -0.6080  -30.3330 C   0  0  0  0  0  3  0  0  0  0  0  0
  -20.3870   -0.8750  -29.0120 C   0  0  0  0  0  3  0  0  0  0  0  0
  -20.0180   -2.1490  -28.6450 C   0  0  0  0  0  0  0  0  0  0  0  0
  -19.7130   -2.4900  -26.7770 Br  0  0  0  0  0  0  0  0  0  0  0  0
  -19.8740   -3.1400  -29.5940 C   0  0  0  0  0  3  0  0  0  0  0  0
  -20.1010   -2.8570  -30.9240 C   0  0  0  0  0  3  0  0  0  0  0  0
  -21.5660   -0.0510  -35.1730 C   0  0  0  0  0  0  0  0  0  0  0  0
  -22.0270   -0.8670  -36.1720 C   0  0  0  0  0  3  0  0  0  0  0  0
  -23.3540   -0.9360  -36.5090 C   0  0  0  0  0  0  0  0  0  0  0  0
  -24.2620   -0.1680  -35.8330 C   0  0  0  0  0  3  0  0  0  0  0  0
  -23.8540    0.6800  -34.8080 C   0  0  0  0  0  3  0  0  0  0  0  0
  -22.5200    0.7260  -34.4960 C   0  0  0  0  0  3  0  0  0  0  0  0
  -23.7580   -1.7980  -37.5480 N   0  0  0  0  0  0  0  0  0  0  0  0
  -24.8480   -2.4260  -37.5150 O   0  0  0  0  0  0  0  0  0  0  0  0
  -22.9260   -1.9530  -38.6330 O   0  0  0  0  0  0  0  0  0  0  0  0
  -19.8310    2.5850  -35.4940 C   0  0  0  0  0  2  0  0  0  0  0  0
  -19.1390    2.6450  -36.8170 C   0  0  0  0  0  2  0  0  0  0  0  0
  -20.0380    2.4160  -37.9360 N   0  0  0  0  0  4  0  0  0  0  0  0
  -21.4340    2.6070  -37.5280 C   0  0  0  0  0  2  0  0  0  0  0  0
  -22.2430    2.4940  -38.8280 C   0  0  0  0  0  2  0  0  0  0  0  0
  -22.0880    1.2720  -39.4350 O   0  0  0  0  0  0  0  0  0  0  0  0
  -20.7680    0.9030  -39.6400 C   0  0  0  0  0  2  0  0  0  0  0  0
  -19.9350    1.0520  -38.3910 C   0  0  0  0  0  2  0  0  0  0  0  0
  -19.8930    3.0450  -38.7300 H   0  0  0  0  0  0  0  0  0  0  0  0
  1 10  1  0  0  0  0
  2  7  1  0  0  0  0
  2  1  2  0  0  0  0
  3 17  1  1  0  0  0
  3  4  1  0  0  0  0
  3  2  1  0  0  0  0
  4  5  1  0  0  0  0
  5  6  2  0  0  0  0
  5  7  1  0  0  0  0
  7  8  2  0  0  0  0
  9  1  1  0  0  0  0
 10 16  2  0  0  0  0
 10 11  1  0  0  0  0
 11 12  2  0  0  0  0
 12 13  1  0  0  0  0
 13 14  1  0  0  0  0
 15 13  2  0  0  0  0
 16 15  1  0  0  0  0
 17 22  1  0  0  0  0
 18 17  2  0  0  0  0
 19 18  1  0  0  0  0
 19 20  2  0  0  0  0
 20 21  1  0  0  0  0
 21 22  2  0  0  0  0
 23 24  2  0  0  0  0
 23 19  1  0  0  0  0
 25 23  2  0  0  0  0
 26  4  1  0  0  0  0
 27 26  1  0  0  0  0
 28 29  1  0  0  0  0
 28 27  1  0  0  0  0
 30 29  1  0  0  0  0
 31 30  1  0  0  0  0
 32 31  1  0  0  0  0
 32 33  1  0  0  0  0
 33 28  1  0  0  0  0
 34 28  1  0  0  0  0
M  END
>  <Pose>
1

>  <Score>
-8.740

$$$$
