/Users/jonathanwahrer/Desktop/Msc/3_Semester/Drug_Design_Praktikum/waehrer_HTS_screening/HTS_experiment/out/docking_results/vina_output/5l4q/0274_docked.pdbqt
 OpenBabel03212217533D

 31 34  0  0  1  0  0  0  0  0999 V2000
  -20.2780   -1.7890  -32.8100 C   0  0  0  0  0  0  0  0  0  0  0  0
  -21.0200   -0.8750  -33.4050 C   0  0  0  0  0  0  0  0  0  0  0  0
  -21.2720   -0.6410  -34.8550 C   0  0  1  0  0  3  0  0  0  0  0  0
  -22.6620   -0.1570  -34.8730 N   0  0  0  0  0  0  0  0  0  0  0  0
  -22.7940    0.6090  -33.6910 C   0  0  0  0  0  0  0  0  0  0  0  0
  -23.6440    1.4900  -33.5100 O   0  0  0  0  0  0  0  0  0  0  0  0
  -21.7730    0.1860  -32.7390 C   0  0  0  0  0  0  0  0  0  0  0  0
  -21.5200    0.5920  -31.5780 O   0  0  0  0  0  0  0  0  0  0  0  0
  -19.5940   -2.7050  -33.6350 O   0  0  0  0  0  1  0  0  0  0  0  0
  -20.1140   -1.9210  -31.3730 C   0  0  0  0  0  0  0  0  0  0  0  0
  -19.1340   -1.2310  -30.6940 C   0  0  0  0  0  3  0  0  0  0  0  0
  -18.9550   -1.3750  -29.3270 C   0  0  0  0  0  3  0  0  0  0  0  0
  -19.7570   -2.2190  -28.5940 C   0  0  0  0  0  0  0  0  0  0  0  0
  -19.5180   -2.4250  -26.7030 Br  0  0  0  0  0  0  0  0  0  0  0  0
  -20.7390   -2.9150  -29.2590 C   0  0  0  0  0  3  0  0  0  0  0  0
  -20.9140   -2.7650  -30.6380 C   0  0  0  0  0  3  0  0  0  0  0  0
  -20.3340    0.2910  -35.4850 C   0  0  0  0  0  0  0  0  0  0  0  0
  -19.1820    0.7150  -34.8120 C   0  0  0  0  0  3  0  0  0  0  0  0
  -18.2720    1.5780  -35.3420 C   0  0  0  0  0  3  0  0  0  0  0  0
  -18.4640    2.0850  -36.6130 C   0  0  0  0  0  3  0  0  0  0  0  0
  -19.5790    1.6900  -37.2950 C   0  0  0  0  0  3  0  0  0  0  0  0
  -20.5130    0.8040  -36.7500 C   0  0  0  0  0  3  0  0  0  0  0  0
  -23.5670   -0.4650  -35.9200 C   0  0  0  0  0  3  0  0  0  0  0  0
  -23.2920   -1.6330  -36.7750 C   0  0  0  0  0  3  0  0  0  0  0  0
  -24.0300   -1.7150  -37.9970 N   0  0  0  0  0  4  0  0  0  0  0  0
  -24.1820   -3.0160  -38.5470 C   0  0  0  0  0  2  0  0  0  0  0  0
  -23.2800   -3.1450  -39.7550 C   0  0  0  0  0  2  0  0  0  0  0  0
  -22.0420   -2.5390  -39.5590 O   0  0  0  0  0  0  0  0  0  0  0  0
  -22.1360   -1.1630  -39.4610 C   0  0  0  0  0  2  0  0  0  0  0  0
  -23.5400   -0.8150  -39.0190 C   0  0  0  0  0  2  0  0  0  0  0  0
  -25.0060   -1.3610  -37.7520 H   0  0  0  0  0  0  0  0  0  0  0  0
  1 10  1  0  0  0  0
  2  1  2  0  0  0  0
  2  7  1  0  0  0  0
  3 17  1  1  0  0  0
  3  2  1  0  0  0  0
  4  3  1  0  0  0  0
  4  5  1  0  0  0  0
  5  6  2  0  0  0  0
  5  7  1  0  0  0  0
  7  8  2  0  0  0  0
  9  1  1  0  0  0  0
 10 11  2  0  0  0  0
 10 16  1  0  0  0  0
 11 12  1  0  0  0  0
 12 13  2  0  0  0  0
 13 14  1  0  0  0  0
 15 13  1  0  0  0  0
 16 15  2  0  0  0  0
 17 18  1  0  0  0  0
 19 18  2  0  0  0  0
 20 19  1  0  0  0  0
 21 22  1  0  0  0  0
 21 20  2  0  0  0  0
 22 17  2  0  0  0  0
 23  4  1  0  0  0  0
 24 23  2  0  0  0  0
 25 31  1  0  0  0  0
 25 24  1  0  0  0  0
 26 25  1  0  0  0  0
 27 28  1  0  0  0  0
 27 26  1  0  0  0  0
 28 29  1  0  0  0  0
 29 30  1  0  0  0  0
 30 25  1  0  0  0  0
M  END
>  <Pose>
1

>  <Score>
-7.957

$$$$
