MODEL 1
REMARK VINA RESULT:    -7.957      0.000      0.000
REMARK INTER + INTRA:         -11.140
REMARK INTER:                 -10.283
REMARK INTRA:                  -0.857
REMARK UNBOUND:                -0.857
REMARK  5 active torsions:
REMARK  status: ('A' for Active; 'I' for Inactive)
REMARK    1  A    between atoms: C_5  and  C_8 
REMARK    2  A    between atoms: C_10  and  C_24 
REMARK    3  A    between atoms: N_11  and  C_16 
REMARK    4  A    between atoms: C_16  and  C_17 
REMARK    5  A    between atoms: C_17  and  N_18 
ROOT
ATOM      1  C   UNK d   1     -20.278  -1.789 -32.810  0.00  0.00     0.130 C 
ATOM      2  C   UNK d   1     -21.020  -0.875 -33.405  0.00  0.00     0.062 C 
ATOM      3  C   UNK d   1     -21.272  -0.641 -34.855  0.00  0.00     0.161 C 
ATOM      4  N   UNK d   1     -22.662  -0.157 -34.873  0.00  0.00    -0.331 N 
ATOM      5  C   UNK d   1     -22.794   0.609 -33.691  0.00  0.00     0.295 C 
ATOM      6  O   UNK d   1     -23.644   1.490 -33.510  0.00  0.00    -0.264 OA
ATOM      7  C   UNK d   1     -21.773   0.186 -32.739  0.00  0.00     0.250 C 
ATOM      8  O   UNK d   1     -21.520   0.592 -31.578  0.00  0.00    -0.282 OA
ATOM      9  O   UNK d   1     -19.594  -2.705 -33.635  0.00  0.00    -0.190 OA
ENDROOT
BRANCH   1  10
ATOM     10  C   UNK d   1     -20.114  -1.921 -31.373  0.00  0.00     0.001 A 
ATOM     11  C   UNK d   1     -19.134  -1.231 -30.694  0.00  0.00     0.015 A 
ATOM     12  C   UNK d   1     -18.955  -1.375 -29.327  0.00  0.00     0.020 A 
ATOM     13  C   UNK d   1     -19.757  -2.219 -28.594  0.00  0.00     0.011 A 
ATOM     14 Br   UNK d   1     -19.518  -2.425 -26.703  0.00  0.00    -0.051 Br
ATOM     15  C   UNK d   1     -20.739  -2.915 -29.259  0.00  0.00     0.020 A 
ATOM     16  C   UNK d   1     -20.914  -2.765 -30.638  0.00  0.00     0.015 A 
ENDBRANCH   1  10
BRANCH   3  17
ATOM     17  C   UNK d   1     -20.334   0.291 -35.485  0.00  0.00    -0.031 A 
ATOM     18  C   UNK d   1     -19.182   0.715 -34.812  0.00  0.00     0.009 A 
ATOM     19  C   UNK d   1     -18.272   1.578 -35.342  0.00  0.00     0.001 A 
ATOM     20  C   UNK d   1     -18.464   2.085 -36.613  0.00  0.00     0.000 A 
ATOM     21  C   UNK d   1     -19.579   1.690 -37.295  0.00  0.00     0.001 A 
ATOM     22  C   UNK d   1     -20.513   0.804 -36.750  0.00  0.00     0.009 A 
ENDBRANCH   3  17
BRANCH   4  23
ATOM     23  C   UNK d   1     -23.567  -0.465 -35.920  0.00  0.00     0.155 C 
BRANCH  23  24
ATOM     24  C   UNK d   1     -23.292  -1.633 -36.775  0.00  0.00     0.255 C 
BRANCH  24  25
ATOM     25  N   UNK d   1     -24.030  -1.715 -37.997  0.00  0.00    -0.066 N 
ATOM     26  C   UNK d   1     -24.182  -3.016 -38.547  0.00  0.00     0.261 C 
ATOM     27  C   UNK d   1     -23.280  -3.145 -39.755  0.00  0.00     0.195 C 
ATOM     28  O   UNK d   1     -22.042  -2.539 -39.559  0.00  0.00    -0.388 OA
ATOM     29  C   UNK d   1     -22.136  -1.163 -39.461  0.00  0.00     0.195 C 
ATOM     30  C   UNK d   1     -23.540  -0.815 -39.019  0.00  0.00     0.261 C 
ATOM     31  H   UNK d   1     -25.006  -1.361 -37.752  0.00  0.00     0.280 HD
ENDBRANCH  24  25
ENDBRANCH  23  24
ENDBRANCH   4  23
TORSDOF 5
ENDMDL
