MODEL 1
REMARK VINA RESULT:    -8.591      0.000      0.000
REMARK INTER + INTRA:         -12.820
REMARK INTER:                 -11.604
REMARK INTRA:                  -1.216
REMARK UNBOUND:                -1.216
REMARK  7 active torsions:
REMARK  status: ('A' for Active; 'I' for Inactive)
REMARK    1  A    between atoms: C_5  and  C_8 
REMARK    2  A    between atoms: C_8  and  O_9 
REMARK    3  A    between atoms: C_8  and  C_10 
REMARK    4  A    between atoms: C_10  and  N_11 
REMARK    5  A    between atoms: N_18  and  C_21 
REMARK    6  A    between atoms: C_19  and  N_20 
REMARK    7  A    between atoms: C_21  and  C_22 
ROOT
ATOM      1  N   UNK d   1     -19.202  -1.014 -30.316  0.00  0.00    -0.178 N 
ATOM      2  C   UNK d   1     -19.795  -2.230 -30.256  0.00  0.00     0.079 A 
ATOM      3  C   UNK d   1     -20.302  -2.476 -31.522  0.00  0.00     0.079 A 
ATOM      4  C   UNK d   1     -20.976  -3.662 -31.748  0.00  0.00     0.032 A 
ATOM      5  C   UNK d   1     -21.157  -4.614 -30.738  0.00  0.00     0.002 A 
ATOM      6  C   UNK d   1     -20.631  -4.322 -29.486  0.00  0.00     0.002 A 
ATOM      7  C   UNK d   1     -19.958  -3.153 -29.234  0.00  0.00     0.032 A 
ATOM      8  N   UNK d   1     -20.021  -1.425 -32.348  0.00  0.00    -0.177 N 
ATOM      9  C   UNK d   1     -19.342  -0.541 -31.569  0.00  0.00     0.681 A 
ENDROOT
BRANCH   1  10
ATOM     10  C   UNK d   1     -18.557  -0.425 -29.179  0.00  0.00     0.184 C 
BRANCH  10  11
ATOM     11  C   UNK d   1     -19.413   0.574 -28.460  0.00  0.00     0.170 C 
BRANCH  11  12
ATOM     12  C   UNK d   1     -18.860   0.856 -27.082  0.00  0.00    -0.028 A 
ATOM     13  C   UNK d   1     -18.624  -0.175 -26.208  0.00  0.00     0.011 A 
ATOM     14  C   UNK d   1     -18.119   0.078 -24.961  0.00  0.00     0.019 A 
ATOM     15  C   UNK d   1     -17.854   1.380 -24.601  0.00  0.00     0.011 A 
ATOM     16 Br   UNK d   1     -17.148   1.745 -22.859  0.00  0.00    -0.051 Br
ATOM     17  C   UNK d   1     -18.070   2.450 -25.437  0.00  0.00     0.019 A 
ATOM     18  C   UNK d   1     -18.582   2.143 -26.688  0.00  0.00     0.011 A 
ENDBRANCH  11  12
BRANCH  11  19
ATOM     19  O   UNK d   1     -19.531   1.789 -29.106  0.00  0.00    -0.389 OA
ATOM     20  H   UNK d   1     -18.900   1.905 -29.842  0.00  0.00     0.210 HD
ENDBRANCH  11  19
ENDBRANCH  10  11
ENDBRANCH   1  10
BRANCH   9  21
ATOM     21  N   UNK d   1     -18.904   0.593 -32.003  0.00  0.00    -0.234 N 
ATOM     22  H   UNK d   1     -19.578   1.414 -32.062  0.00  0.00     0.174 HD
ATOM     23  H   UNK d   1     -17.953   0.802 -32.314  0.00  0.00     0.174 HD
ENDBRANCH   9  21
BRANCH   8  24
ATOM     24  C   UNK d   1     -20.392  -1.369 -33.730  0.00  0.00     0.186 C 
BRANCH  24  25
ATOM     25  C   UNK d   1     -21.774  -0.823 -33.960  0.00  0.00    -0.039 A 
ATOM     26  C   UNK d   1     -22.017   0.516 -33.703  0.00  0.00     0.009 A 
ATOM     27  C   UNK d   1     -23.259   1.092 -33.891  0.00  0.00     0.001 A 
ATOM     28  C   UNK d   1     -24.268   0.284 -34.351  0.00  0.00     0.000 A 
ATOM     29  C   UNK d   1     -24.055  -1.044 -34.613  0.00  0.00     0.001 A 
ATOM     30  C   UNK d   1     -22.813  -1.585 -34.416  0.00  0.00     0.009 A 
ENDBRANCH  24  25
ENDBRANCH   8  24
TORSDOF 7
ENDMDL
