/Users/jonathanwahrer/Desktop/Msc/3_Semester/Drug_Design_Praktikum/waehrer_HTS_screening/HTS_experiment/out/docking_results/vina_output/5l4q/0289_docked.pdbqt
 OpenBabel03212217533D

 31 34  0  0  0  0  0  0  0  0999 V2000
  -21.3370    0.6570  -37.2710 C   0  0  0  0  0  0  0  0  0  0  0  0
  -20.9360    0.7830  -38.5470 N   0  0  0  0  0  0  0  0  0  0  0  0
  -21.5510   -0.1570  -39.3020 C   0  0  0  0  0  0  0  0  0  0  0  0
  -22.3700   -0.9080  -38.4880 C   0  0  0  0  0  0  0  0  0  0  0  0
  -22.2210   -0.3970  -37.2660 N   0  0  0  0  0  0  0  0  0  0  0  0
  -23.0930   -1.9120  -39.0190 N   0  0  0  0  0  0  0  0  0  0  0  0
  -23.0420   -2.2060  -40.3250 C   0  0  0  0  0  0  0  0  0  0  0  0
  -23.7430   -3.1620  -40.7900 O   0  0  0  0  0  0  0  0  0  0  0  0
  -22.2510   -1.4850  -41.1370 N   0  0  0  0  0  0  0  0  0  0  0  0
  -21.5170   -0.4790  -40.6410 C   0  0  0  0  0  0  0  0  0  0  0  0
  -20.7790    0.1940  -41.4020 O   0  0  0  0  0  0  0  0  0  0  0  0
  -23.9570   -2.6870  -38.1220 C   0  0  0  0  0  1  0  0  0  0  0  0
  -22.2050   -1.7130  -42.1720 H   0  0  0  0  0  0  0  0  0  0  0  0
  -20.9820    1.4510  -36.1660 N   0  0  0  0  0  0  0  0  0  0  0  0
  -19.6450    1.6220  -35.7160 C   0  0  0  0  0  2  0  0  0  0  0  0
  -19.5750    1.0700  -34.2960 C   0  0  0  0  0  2  0  0  0  0  0  0
  -20.8290    0.6780  -33.8080 N   0  0  0  0  0  0  0  0  0  0  0  0
  -21.9750    1.4600  -34.0300 C   0  0  0  0  0  2  0  0  0  0  0  0
  -22.0070    2.1290  -35.4090 C   0  0  0  0  0  2  0  0  0  0  0  0
  -21.0070   -0.7170  -33.5770 C   0  0  0  0  0  2  0  0  0  0  0  0
  -20.7700   -1.1450  -32.1860 C   0  0  0  0  0  0  0  0  0  0  0  0
  -20.7240   -2.4910  -31.9200 C   0  0  0  0  0  3  0  0  0  0  0  0
  -20.4910   -2.9390  -30.6300 C   0  0  0  0  0  3  0  0  0  0  0  0
  -20.3020   -2.0460  -29.5950 C   0  0  0  0  0  0  0  0  0  0  0  0
  -19.9750   -2.6720  -27.8080 Br  0  0  0  0  0  0  0  0  0  0  0  0
  -20.3530   -0.7010  -29.8830 C   0  0  0  0  0  3  0  0  0  0  0  0
  -20.5850   -0.2390  -31.1630 C   0  0  0  0  0  3  0  0  0  0  0  0
  -19.9770    1.7030  -39.0970 C   0  0  0  0  0  2  0  0  0  0  0  0
  -20.5650    3.0800  -39.3090 C   0  0  0  0  0  2  0  0  0  0  0  0
  -20.9480    3.3330  -40.6110 O   0  0  0  0  0  0  0  0  0  0  0  0
  -22.3590    3.4270  -40.5840 C   0  0  0  0  0  1  0  0  0  0  0  0
  1  5  2  0  0  0  0
  1 14  1  0  0  0  0
  2  1  1  0  0  0  0
  3  2  1  0  0  0  0
  3  4  2  0  0  0  0
  4  5  1  0  0  0  0
  6  4  1  0  0  0  0
  6 12  1  0  0  0  0
  7  6  1  0  0  0  0
  8  7  2  0  0  0  0
  9 10  1  0  0  0  0
  9  7  1  0  0  0  0
 10  3  1  0  0  0  0
 11 10  2  0  0  0  0
 13  9  1  0  0  0  0
 14 15  1  0  0  0  0
 14 19  1  0  0  0  0
 15 16  1  0  0  0  0
 16 17  1  0  0  0  0
 17 20  1  0  0  0  0
 18 17  1  0  0  0  0
 19 18  1  0  0  0  0
 20 21  1  0  0  0  0
 21 22  2  0  0  0  0
 21 27  1  0  0  0  0
 22 23  1  0  0  0  0
 23 24  2  0  0  0  0
 24 25  1  0  0  0  0
 26 24  1  0  0  0  0
 27 26  2  0  0  0  0
 28  2  1  0  0  0  0
 29 28  1  0  0  0  0
 30 31  1  0  0  0  0
 30 29  1  0  0  0  0
M  END
>  <Pose>
1

>  <Score>
-7.954

$$$$
