/Users/jonathanwahrer/Desktop/Msc/3_Semester/Drug_Design_Praktikum/waehrer_HTS_screening/HTS_experiment/out/docking_results/vina_output/5l4q/0293_docked.pdbqt
 OpenBabel03212217533D

 27 30  0  0  0  0  0  0  0  0999 V2000
  -19.4060   -2.3770  -27.6610 C   0  0  0  0  0  3  0  0  0  0  0  0
  -19.9690   -2.7880  -28.8040 C   0  0  0  0  0  0  0  0  0  0  0  0
  -20.1650   -1.9630  -29.8990 O   0  0  0  0  0  0  0  0  0  0  0  0
  -20.7700   -2.6420  -30.9520 C   0  0  0  0  0  0  0  0  0  0  0  0
  -20.9800   -3.9290  -30.5570 C   0  0  0  0  0  0  0  0  0  0  0  0
  -21.5720   -4.8270  -31.4200 C   0  0  0  0  0  3  0  0  0  0  0  0
  -21.9290   -4.3720  -32.6620 C   0  0  0  0  0  3  0  0  0  0  0  0
  -21.7140   -3.0490  -33.0700 C   0  0  0  0  0  0  0  0  0  0  0  0
  -21.1280   -2.1400  -32.2260 C   0  0  0  0  0  0  0  0  0  0  0  0
  -22.1080   -2.6650  -34.3530 O   0  0  0  0  0  1  0  0  0  0  0  0
  -20.4840   -4.0760  -29.1820 C   0  0  0  0  0  0  0  0  0  0  0  0
  -20.4880   -5.1010  -28.4520 O   0  0  0  0  0  0  0  0  0  0  0  0
  -18.9640   -0.9920  -27.5340 C   0  0  0  0  0  0  0  0  0  0  0  0
  -17.7560   -0.6950  -26.9250 C   0  0  0  0  0  3  0  0  0  0  0  0
  -17.3100    0.6050  -26.7840 C   0  0  0  0  0  3  0  0  0  0  0  0
  -18.0550    1.6660  -27.2480 C   0  0  0  0  0  0  0  0  0  0  0  0
  -17.4320    3.4740  -27.0550 Br  0  0  0  0  0  0  0  0  0  0  0  0
  -19.2600    1.3890  -27.8570 C   0  0  0  0  0  3  0  0  0  0  0  0
  -19.7060    0.0720  -27.9960 C   0  0  0  0  0  3  0  0  0  0  0  0
  -20.8410   -0.7280  -32.5090 C   0  0  0  0  0  2  0  0  0  0  0  0
  -19.8710   -0.4220  -33.4880 N   0  0  0  0  0  4  0  0  0  0  0  0
  -20.3480    0.5430  -34.4560 C   0  0  0  0  0  2  0  0  0  0  0  0
  -20.1020    1.9470  -33.9350 C   0  0  0  0  0  2  0  0  0  0  0  0
  -18.7630    2.2470  -34.1290 O   0  0  0  0  0  0  0  0  0  0  0  0
  -18.0280    1.0710  -33.9400 C   0  0  0  0  0  2  0  0  0  0  0  0
  -18.6890    0.2100  -32.8760 C   0  0  0  0  0  2  0  0  0  0  0  0
  -19.4950   -1.2750  -33.9500 H   0  0  0  0  0  0  0  0  0  0  0  0
  1 13  1  0  0  0  0
  2  1  2  0  0  0  0
  3  2  1  0  0  0  0
  4  5  1  0  0  0  0
  4  3  1  0  0  0  0
  5 11  1  0  0  0  0
  6  5  2  0  0  0  0
  7  6  1  0  0  0  0
  8  7  2  0  0  0  0
  8  9  1  0  0  0  0
  9  4  2  0  0  0  0
 10  8  1  0  0  0  0
 11  2  1  0  0  0  0
 11 12  2  0  0  0  0
 13 14  1  0  0  0  0
 14 15  2  0  0  0  0
 16 17  1  0  0  0  0
 16 15  1  0  0  0  0
 18 16  2  0  0  0  0
 19 18  1  0  0  0  0
 19 13  2  0  0  0  0
 20  9  1  0  0  0  0
 21 26  1  0  0  0  0
 21 20  1  0  0  0  0
 22 23  1  0  0  0  0
 22 21  1  0  0  0  0
 24 25  1  0  0  0  0
 24 23  1  0  0  0  0
 25 26  1  0  0  0  0
 27 21  1  0  0  0  0
M  END
>  <Pose>
1

>  <Score>
-9.289

$$$$
