MODEL 1
REMARK VINA RESULT:    -9.289      0.000      0.000
REMARK INTER + INTRA:         -11.426
REMARK INTER:                 -10.919
REMARK INTRA:                  -0.507
REMARK UNBOUND:                -0.507
REMARK  3 active torsions:
REMARK  status: ('A' for Active; 'I' for Inactive)
REMARK    1  A    between atoms: C_5  and  C_8 
REMARK    2  A    between atoms: C_16  and  C_17 
REMARK    3  A    between atoms: C_17  and  N_18 
ROOT
ATOM      1  C   UNK d   1     -19.406  -2.377 -27.661  0.00  0.00     0.053 C 
ATOM      2  C   UNK d   1     -19.969  -2.788 -28.804  0.00  0.00     0.127 A 
ATOM      3  O   UNK d   1     -20.165  -1.963 -29.899  0.00  0.00    -0.305 OA
ATOM      4  C   UNK d   1     -20.770  -2.642 -30.952  0.00  0.00     0.101 A 
ATOM      5  C   UNK d   1     -20.980  -3.929 -30.557  0.00  0.00     0.051 A 
ATOM      6  C   UNK d   1     -21.572  -4.827 -31.420  0.00  0.00     0.021 A 
ATOM      7  C   UNK d   1     -21.929  -4.372 -32.662  0.00  0.00     0.041 A 
ATOM      8  C   UNK d   1     -21.714  -3.049 -33.070  0.00  0.00     0.118 A 
ATOM      9  C   UNK d   1     -21.128  -2.140 -32.226  0.00  0.00     0.039 A 
ATOM     10  O   UNK d   1     -22.108  -2.665 -34.353  0.00  0.00    -0.191 OA
ATOM     11  C   UNK d   1     -20.484  -4.076 -29.182  0.00  0.00     0.218 A 
ATOM     12  O   UNK d   1     -20.488  -5.101 -28.452  0.00  0.00    -0.284 OA
ENDROOT
BRANCH   1  13
ATOM     13  C   UNK d   1     -18.964  -0.992 -27.534  0.00  0.00    -0.033 A 
ATOM     14  C   UNK d   1     -17.756  -0.695 -26.925  0.00  0.00     0.013 A 
ATOM     15  C   UNK d   1     -17.310   0.605 -26.784  0.00  0.00     0.020 A 
ATOM     16  C   UNK d   1     -18.055   1.666 -27.248  0.00  0.00     0.011 A 
ATOM     17 Br   UNK d   1     -17.432   3.474 -27.055  0.00  0.00    -0.051 Br
ATOM     18  C   UNK d   1     -19.260   1.389 -27.857  0.00  0.00     0.020 A 
ATOM     19  C   UNK d   1     -19.706   0.072 -27.996  0.00  0.00     0.013 A 
ENDBRANCH   1  13
BRANCH   9  20
ATOM     20  C   UNK d   1     -20.841  -0.728 -32.509  0.00  0.00     0.279 C 
BRANCH  20  21
ATOM     21  N   UNK d   1     -19.871  -0.422 -33.488  0.00  0.00    -0.063 N 
ATOM     22  C   UNK d   1     -20.348   0.543 -34.456  0.00  0.00     0.261 C 
ATOM     23  C   UNK d   1     -20.102   1.947 -33.935  0.00  0.00     0.195 C 
ATOM     24  O   UNK d   1     -18.763   2.247 -34.129  0.00  0.00    -0.388 OA
ATOM     25  C   UNK d   1     -18.028   1.071 -33.940  0.00  0.00     0.195 C 
ATOM     26  C   UNK d   1     -18.689   0.210 -32.876  0.00  0.00     0.261 C 
ATOM     27  H   UNK d   1     -19.495  -1.275 -33.950  0.00  0.00     0.280 HD
ENDBRANCH  20  21
ENDBRANCH   9  20
TORSDOF 3
ENDMDL
