MODEL 1
REMARK VINA RESULT:    -9.233      0.000      0.000
REMARK INTER + INTRA:         -14.019
REMARK INTER:                 -13.011
REMARK INTRA:                  -1.008
REMARK UNBOUND:                -1.008
REMARK  8 active torsions:
REMARK  status: ('A' for Active; 'I' for Inactive)
REMARK    1  A    between atoms: C_5  and  C_8 
REMARK    2  A    between atoms: N_9  and  N_10 
REMARK       I    between atoms: N_10  and  C_11 
REMARK    3  A    between atoms: C_11  and  C_13 
REMARK    4  A    between atoms: C_13  and  N_14 
REMARK    5  A    between atoms: C_16  and  C_25 
REMARK    6  A    between atoms: C_18  and  C_19 
REMARK    7  A    between atoms: C_23  and  N_24 
REMARK    8  A    between atoms: C_29  and  N_30 
ROOT
ATOM      1  N   UNK d   1     -22.300  -0.691 -37.113  0.00  0.00    -0.239 N 
ATOM      2  N   UNK d   1     -21.461   0.217 -36.528  0.00  0.00    -0.147 NA
ATOM      3  C   UNK d   1     -20.614   0.683 -37.456  0.00  0.00     0.206 A 
ATOM      4  N   UNK d   1     -20.942   0.060 -38.586  0.00  0.00    -0.203 NA
ATOM      5  C   UNK d   1     -22.003  -0.808 -38.380  0.00  0.00     0.184 A 
ENDROOT
BRANCH   1   6
ATOM      6  C   UNK d   1     -23.331  -1.330 -36.318  0.00  0.00     0.257 C 
BRANCH   6   7
ATOM      7  C   UNK d   1     -22.937  -1.414 -34.888  0.00  0.00     0.257 C 
ATOM      8  N   UNK d   1     -21.664  -1.905 -34.510  0.00  0.00    -0.246 N 
ATOM      9  H   UNK d   1     -20.960  -2.224 -35.244  0.00  0.00     0.192 HD
ATOM     10  O   UNK d   1     -23.738  -1.047 -33.999  0.00  0.00    -0.270 OA
BRANCH   8  11
ATOM     11  N   UNK d   1     -21.329  -1.968 -33.175  0.00  0.00    -0.184 NA
ATOM     12  C   UNK d   1     -21.023  -3.027 -32.535  0.00  0.00     0.150 C 
BRANCH  12  13
ATOM     13  C   UNK d   1     -20.676  -3.036 -31.118  0.00  0.00    -0.017 A 
ATOM     14  C   UNK d   1     -20.763  -4.185 -30.360  0.00  0.00     0.014 A 
ATOM     15  C   UNK d   1     -20.429  -4.170 -29.018  0.00  0.00     0.020 A 
ATOM     16  C   UNK d   1     -19.998  -3.015 -28.382  0.00  0.00     0.011 A 
ATOM     17 Br   UNK d   1     -19.544  -3.026 -26.528  0.00  0.00    -0.051 Br
ATOM     18  C   UNK d   1     -19.912  -1.865 -29.138  0.00  0.00     0.020 A 
ATOM     19  C   UNK d   1     -20.247  -1.893 -30.477  0.00  0.00     0.014 A 
ENDBRANCH  12  13
ENDBRANCH   8  11
ENDBRANCH   6   7
ENDBRANCH   1   6
BRANCH   5  20
ATOM     20  C   UNK d   1     -22.562  -1.615 -39.445  0.00  0.00     0.181 A 
ATOM     21  N   UNK d   1     -22.405  -1.274 -40.785  0.00  0.00    -0.097 NA
ATOM     22  O   UNK d   1     -22.972  -2.149 -41.520  0.00  0.00    -0.104 OA
ATOM     23  N   UNK d   1     -23.499  -3.055 -40.795  0.00  0.00    -0.085 NA
ATOM     24  C   UNK d   1     -23.261  -2.752 -39.483  0.00  0.00     0.186 A 
BRANCH  24  25
ATOM     25  N   UNK d   1     -23.722  -3.595 -38.464  0.00  0.00    -0.380 N 
ATOM     26  H   UNK d   1     -24.736  -3.854 -38.434  0.00  0.00     0.158 HD
ATOM     27  H   UNK d   1     -23.119  -4.002 -37.719  0.00  0.00     0.158 HD
ENDBRANCH  24  25
ENDBRANCH   5  20
BRANCH   3  28
ATOM     28  C   UNK d   1     -19.552   1.666 -37.276  0.00  0.00     0.183 A 
ATOM     29  N   UNK d   1     -19.309   2.739 -38.033  0.00  0.00    -0.097 NA
ATOM     30  O   UNK d   1     -18.261   3.383 -37.549  0.00  0.00    -0.104 OA
ATOM     31  N   UNK d   1     -17.801   2.773 -36.494  0.00  0.00    -0.085 NA
ATOM     32  C   UNK d   1     -18.597   1.678 -36.291  0.00  0.00     0.186 A 
BRANCH  32  33
ATOM     33  N   UNK d   1     -18.412   0.756 -35.230  0.00  0.00    -0.380 N 
ATOM     34  H   UNK d   1     -18.530  -0.281 -35.409  0.00  0.00     0.158 HD
ATOM     35  H   UNK d   1     -18.163   1.031 -34.261  0.00  0.00     0.158 HD
ENDBRANCH  32  33
ENDBRANCH   3  28
TORSDOF 8
ENDMDL
