/Users/jonathanwahrer/Desktop/Msc/3_Semester/Drug_Design_Praktikum/waehrer_HTS_screening/HTS_experiment/out/docking_results/vina_output/5l4q/0294_docked.pdbqt
 OpenBabel03212217543D

 35 38  0  0  0  0  0  0  0  0999 V2000
  -22.3000   -0.6910  -37.1130 N   0  0  0  0  0  0  0  0  0  0  0  0
  -21.4610    0.2170  -36.5280 N   0  0  0  0  0  0  0  0  0  0  0  0
  -20.6140    0.6830  -37.4560 C   0  0  0  0  0  0  0  0  0  0  0  0
  -20.9420    0.0600  -38.5860 N   0  0  0  0  0  0  0  0  0  0  0  0
  -22.0030   -0.8080  -38.3800 C   0  0  0  0  0  0  0  0  0  0  0  0
  -23.3310   -1.3300  -36.3180 C   0  0  0  0  0  2  0  0  0  0  0  0
  -22.9370   -1.4140  -34.8880 C   0  0  0  0  0  0  0  0  0  0  0  0
  -21.6640   -1.9050  -34.5100 N   0  0  0  0  0  0  0  0  0  0  0  0
  -20.9600   -2.2240  -35.2440 H   0  0  0  0  0  0  0  0  0  0  0  0
  -23.7380   -1.0470  -33.9990 O   0  0  0  0  0  0  0  0  0  0  0  0
  -21.3290   -1.9680  -33.1750 N   0  0  0  0  0  0  0  0  0  0  0  0
  -21.0230   -3.0270  -32.5350 C   0  0  0  0  0  3  0  0  0  0  0  0
  -20.6760   -3.0360  -31.1180 C   0  0  0  0  0  0  0  0  0  0  0  0
  -20.7630   -4.1850  -30.3600 C   0  0  0  0  0  3  0  0  0  0  0  0
  -20.4290   -4.1700  -29.0180 C   0  0  0  0  0  3  0  0  0  0  0  0
  -19.9980   -3.0150  -28.3820 C   0  0  0  0  0  0  0  0  0  0  0  0
  -19.5440   -3.0260  -26.5280 Br  0  0  0  0  0  0  0  0  0  0  0  0
  -19.9120   -1.8650  -29.1380 C   0  0  0  0  0  3  0  0  0  0  0  0
  -20.2470   -1.8930  -30.4770 C   0  0  0  0  0  3  0  0  0  0  0  0
  -22.5620   -1.6150  -39.4450 C   0  0  0  0  0  0  0  0  0  0  0  0
  -22.4050   -1.2740  -40.7850 N   0  0  0  0  0  0  0  0  0  0  0  0
  -22.9720   -2.1490  -41.5200 O   0  0  0  0  0  0  0  0  0  0  0  0
  -23.4990   -3.0550  -40.7950 N   0  0  0  0  0  0  0  0  0  0  0  0
  -23.2610   -2.7520  -39.4830 C   0  0  0  0  0  0  0  0  0  0  0  0
  -23.7220   -3.5950  -38.4640 N   0  0  0  0  0  0  0  0  0  0  0  0
  -24.7360   -3.8540  -38.4340 H   0  0  0  0  0  0  0  0  0  0  0  0
  -23.1190   -4.0020  -37.7190 H   0  0  0  0  0  0  0  0  0  0  0  0
  -19.5520    1.6660  -37.2760 C   0  0  0  0  0  0  0  0  0  0  0  0
  -19.3090    2.7390  -38.0330 N   0  0  0  0  0  0  0  0  0  0  0  0
  -18.2610    3.3830  -37.5490 O   0  0  0  0  0  0  0  0  0  0  0  0
  -17.8010    2.7730  -36.4940 N   0  0  0  0  0  0  0  0  0  0  0  0
  -18.5970    1.6780  -36.2910 C   0  0  0  0  0  0  0  0  0  0  0  0
  -18.4120    0.7560  -35.2300 N   0  0  0  0  0  0  0  0  0  0  0  0
  -18.5300   -0.2810  -35.4090 H   0  0  0  0  0  0  0  0  0  0  0  0
  -18.1630    1.0310  -34.2610 H   0  0  0  0  0  0  0  0  0  0  0  0
  1  2  1  0  0  0  0
  1  6  1  0  0  0  0
  3 28  1  0  0  0  0
  3  2  2  0  0  0  0
  4  5  2  0  0  0  0
  4  3  1  0  0  0  0
  5  1  1  0  0  0  0
  6  7  1  0  0  0  0
  7  8  1  0  0  0  0
  7 10  2  0  0  0  0
  8 11  1  0  0  0  0
  9  8  1  0  0  0  0
 11 12  2  0  0  0  0
 12 13  1  0  0  0  0
 13 19  2  0  0  0  0
 13 14  1  0  0  0  0
 14 15  2  0  0  0  0
 15 16  1  0  0  0  0
 16 17  1  0  0  0  0
 18 16  2  0  0  0  0
 19 18  1  0  0  0  0
 20  5  1  0  0  0  0
 21 20  2  0  0  0  0
 22 23  1  0  0  0  0
 22 21  1  0  0  0  0
 23 24  2  0  0  0  0
 24 20  1  0  0  0  0
 24 25  1  0  0  0  0
 25 26  1  0  0  0  0
 25 27  1  0  0  0  0
 28 32  1  0  0  0  0
 29 30  1  0  0  0  0
 29 28  2  0  0  0  0
 30 31  1  0  0  0  0
 31 32  2  0  0  0  0
 32 33  1  0  0  0  0
 33 35  1  0  0  0  0
 34 33  1  0  0  0  0
M  END
>  <Pose>
1

>  <Score>
-9.233

$$$$
