/Users/jonathanwahrer/Desktop/Msc/3_Semester/Drug_Design_Praktikum/waehrer_HTS_screening/HTS_experiment/out/docking_results/vina_output/5l4q/0302_docked.pdbqt
 OpenBabel03212217543D

 29 33  0  0  1  0  0  0  0  0999 V2000
  -19.5630   -0.6340  -28.5590 C   0  0  0  0  0  0  0  0  0  0  0  0
  -19.6470   -0.0500  -29.7720 N   0  0  0  0  0  0  0  0  0  0  0  0
  -20.1900   -0.9120  -30.6670 C   0  0  2  0  0  3  0  0  0  0  0  0
  -20.4610   -2.0650  -30.0300 N   0  0  0  0  0  0  0  0  0  0  0  0
  -20.0800   -1.9000  -28.7420 C   0  0  0  0  0  3  0  0  0  0  0  0
  -20.9970   -2.8830  -30.9560 C   0  0  0  0  0  0  0  0  0  0  0  0
  -21.0610   -2.2440  -32.1750 C   0  0  0  0  0  0  0  0  0  0  0  0
  -21.5730   -2.8630  -33.3090 C   0  0  0  0  0  3  0  0  0  0  0  0
  -22.0350   -4.1570  -33.2270 C   0  0  0  0  0  3  0  0  0  0  0  0
  -21.9670   -4.7880  -32.0040 C   0  0  0  0  0  3  0  0  0  0  0  0
  -21.4640   -4.1980  -30.8640 C   0  0  0  0  0  3  0  0  0  0  0  0
  -20.5450   -1.0050  -31.9580 N   0  0  0  0  0  0  0  0  0  0  0  0
  -19.3460    0.9160  -30.0110 H   0  0  0  0  0  0  0  0  0  0  0  0
  -20.4370   -0.0140  -33.0080 C   0  0  0  0  0  2  0  0  0  0  0  0
  -18.9930    0.3050  -33.3300 C   0  0  0  0  0  2  0  0  0  0  0  0
  -18.8090    0.4120  -34.7490 N   0  0  0  0  0  4  0  0  0  0  0  0
  -18.1880    1.6760  -35.0840 C   0  0  0  0  0  2  0  0  0  0  0  0
  -18.8490    2.3570  -36.2580 C   0  0  0  0  0  2  0  0  0  0  0  0
  -18.9400    1.4480  -37.3130 O   0  0  0  0  0  0  0  0  0  0  0  0
  -19.6620    0.3240  -36.9740 C   0  0  0  0  0  2  0  0  0  0  0  0
  -20.0170    0.2980  -35.5100 C   0  0  0  0  0  2  0  0  0  0  0  0
  -18.1560   -0.3370  -35.0910 H   0  0  0  0  0  0  0  0  0  0  0  0
  -19.0360   -0.0350  -27.3370 C   0  0  0  0  0  0  0  0  0  0  0  0
  -18.8550    1.3240  -27.2140 C   0  0  0  0  0  3  0  0  0  0  0  0
  -18.3530    1.8950  -26.0470 C   0  0  0  0  0  3  0  0  0  0  0  0
  -18.0190    1.0970  -24.9700 C   0  0  0  0  0  0  0  0  0  0  0  0
  -17.3340    1.8710  -23.3790 Br  0  0  0  0  0  0  0  0  0  0  0  0
  -18.1960   -0.2680  -25.0800 C   0  0  0  0  0  3  0  0  0  0  0  0
  -18.7000   -0.8230  -26.2590 C   0  0  0  0  0  3  0  0  0  0  0  0
  1 23  1  0  0  0  0
  2  1  1  0  0  0  0
  3 12  1  6  0  0  0
  3  4  1  0  0  0  0
  3  2  1  0  0  0  0
  4  5  1  0  0  0  0
  5  1  2  0  0  0  0
  6 11  1  0  0  0  0
  6  4  1  0  0  0  0
  7 12  1  0  0  0  0
  7  6  2  0  0  0  0
  8  9  2  0  0  0  0
  8  7  1  0  0  0  0
  9 10  1  0  0  0  0
 10 11  2  0  0  0  0
 13  2  1  0  0  0  0
 14 12  1  0  0  0  0
 15 14  1  0  0  0  0
 16 15  1  0  0  0  0
 17 16  1  0  0  0  0
 18 17  1  0  0  0  0
 19 20  1  0  0  0  0
 19 18  1  0  0  0  0
 20 21  1  0  0  0  0
 21 16  1  0  0  0  0
 22 16  1  0  0  0  0
 23 24  2  0  0  0  0
 23 29  1  0  0  0  0
 24 25  1  0  0  0  0
 25 26  2  0  0  0  0
 26 27  1  0  0  0  0
 28 26  1  0  0  0  0
 29 28  2  0  0  0  0
M  END
>  <Pose>
1

>  <Score>
-9.206

$$$$
