MODEL 1
REMARK VINA RESULT:    -8.213      0.000      0.000
REMARK INTER + INTRA:         -12.355
REMARK INTER:                 -11.093
REMARK INTRA:                  -1.262
REMARK UNBOUND:                -1.262
REMARK  6 active torsions:
REMARK  status: ('A' for Active; 'I' for Inactive)
REMARK    1  A    between atoms: C_5  and  C_8 
REMARK    2  A    between atoms: C_9  and  C_28 
REMARK    3  A    between atoms: C_16  and  C_17 
REMARK    4  A    between atoms: C_17  and  N_18 
REMARK    5  A    between atoms: C_28  and  O_30 
REMARK    6  A    between atoms: O_30  and  C_31 
ROOT
ATOM      1  C   UNK d   1     -21.659  -0.849 -34.750  0.00  0.00     0.065 A 
ATOM      2  C   UNK d   1     -20.741  -0.269 -33.908  0.00  0.00     0.166 A 
ATOM      3  O   UNK d   1     -20.330  -0.843 -32.793  0.00  0.00    -0.302 OA
ATOM      4  C   UNK d   1     -20.776  -2.015 -32.420  0.00  0.00     0.101 A 
ATOM      5  C   UNK d   1     -21.681  -2.636 -33.205  0.00  0.00     0.050 A 
ATOM      6  C   UNK d   1     -22.167  -3.872 -32.840  0.00  0.00     0.021 A 
ATOM      7  C   UNK d   1     -21.710  -4.437 -31.678  0.00  0.00     0.041 A 
ATOM      8  C   UNK d   1     -20.766  -3.781 -30.866  0.00  0.00     0.118 A 
ATOM      9  C   UNK d   1     -20.271  -2.557 -31.206  0.00  0.00     0.039 A 
ATOM     10  O   UNK d   1     -20.422  -4.503 -29.735  0.00  0.00    -0.191 OA
ATOM     11  C   UNK d   1     -22.160  -2.099 -34.385  0.00  0.00     0.199 A 
ATOM     12  O   UNK d   1     -22.988  -2.670 -35.102  0.00  0.00    -0.286 OA
ENDROOT
BRANCH   9  13
ATOM     13  C   UNK d   1     -19.322  -1.756 -30.471  0.00  0.00     0.279 C 
BRANCH  13  14
ATOM     14  N   UNK d   1     -19.608  -1.158 -29.231  0.00  0.00    -0.064 N 
ATOM     15  C   UNK d   1     -19.775   0.248 -29.331  0.00  0.00     0.254 C 
ATOM     16  C   UNK d   1     -19.472   1.095 -28.158  0.00  0.00     0.144 C 
ATOM     17  N   UNK d   1     -18.659   0.472 -27.206  0.00  0.00    -0.413 N 
ATOM     18  C   UNK d   1     -18.934  -0.852 -26.852  0.00  0.00     0.144 C 
ATOM     19  C   UNK d   1     -17.583   1.160 -26.628  0.00  0.00     0.143 C 
ATOM     20  C   UNK d   1     -19.039  -1.725 -28.062  0.00  0.00     0.254 C 
ATOM     21  H   UNK d   1     -20.692  -1.479 -29.097  0.00  0.00     0.280 HD
ENDBRANCH  13  14
ENDBRANCH   9  13
BRANCH   2  22
ATOM     22  C   UNK d   1     -20.201   1.050 -34.273  0.00  0.00     0.318 C 
ATOM     23  O   UNK d   1     -19.044   1.097 -34.761  0.00  0.00    -0.257 OA
BRANCH  22  24
ATOM     24  O   UNK d   1     -20.883   2.216 -34.111  0.00  0.00    -0.316 OA
BRANCH  24  25
ATOM     25  C   UNK d   1     -20.502   3.373 -34.815  0.00  0.00     0.175 C 
ATOM     26  C   UNK d   1     -21.559   3.700 -35.833  0.00  0.00     0.034 C 
ENDBRANCH  24  25
ENDBRANCH  22  24
ENDBRANCH   2  22
BRANCH   1  27
ATOM     27  C   UNK d   1     -22.053  -0.195 -35.969  0.00  0.00    -0.019 A 
ATOM     28  C   UNK d   1     -21.239  -0.128 -37.097  0.00  0.00     0.014 A 
ATOM     29  C   UNK d   1     -21.619   0.486 -38.270  0.00  0.00     0.020 A 
ATOM     30  C   UNK d   1     -22.853   1.063 -38.349  0.00  0.00     0.011 A 
ATOM     31 Br   UNK d   1     -23.366   1.906 -39.987  0.00  0.00    -0.051 Br
ATOM     32  C   UNK d   1     -23.697   1.025 -37.259  0.00  0.00     0.020 A 
ATOM     33  C   UNK d   1     -23.286   0.393 -36.074  0.00  0.00     0.014 A 
ENDBRANCH   1  27
TORSDOF 6
ENDMDL
