/Users/jonathanwahrer/Desktop/Msc/3_Semester/Drug_Design_Praktikum/waehrer_HTS_screening/HTS_experiment/out/docking_results/vina_output/5l4q/0320_docked.pdbqt
 OpenBabel03212217553D

 32 36  0  0  1  0  0  0  0  0999 V2000
  -20.4280   -0.0900  -33.0110 C   0  0  0  0  0  0  0  0  0  0  0  0
  -19.9860    0.3310  -31.7460 C   0  0  0  0  0  3  0  0  0  0  0  0
  -20.0900   -0.7160  -30.9380 N   0  0  0  0  0  0  0  0  0  0  0  0
  -19.8630   -1.0400  -29.6280 C   0  0  0  0  0  0  0  0  0  0  0  0
  -20.2270   -2.3580  -29.5130 C   0  0  0  0  0  0  0  0  0  0  0  0
  -20.6400   -2.7590  -30.7050 N   0  0  0  0  0  0  0  0  0  0  0  0
  -20.5600   -1.7410  -31.6090 C   0  0  1  0  0  3  0  0  0  0  0  0
  -20.7790   -1.3770  -32.9070 N   0  0  0  0  0  0  0  0  0  0  0  0
  -20.1290   -3.0360  -28.2950 C   0  0  0  0  0  3  0  0  0  0  0  0
  -19.6570   -2.3750  -27.1820 C   0  0  0  0  0  3  0  0  0  0  0  0
  -19.2990   -1.0540  -27.3240 C   0  0  0  0  0  3  0  0  0  0  0  0
  -19.3940   -0.3710  -28.5310 C   0  0  0  0  0  3  0  0  0  0  0  0
  -20.9840   -3.7210  -30.8880 H   0  0  0  0  0  0  0  0  0  0  0  0
  -21.3070   -2.3040  -33.8610 C   0  0  0  0  0  2  0  0  0  0  0  0
  -22.7700   -2.3210  -34.0530 C   0  0  0  0  0  2  0  0  0  0  0  0
  -23.3690   -1.4300  -35.0800 C   0  0  0  0  0  2  0  0  0  0  0  0
  -22.6410   -1.4760  -36.3290 N   0  0  0  0  0  4  0  0  0  0  0  0
  -21.6340   -1.3490  -36.2730 H   0  0  0  0  0  0  0  0  0  0  0  0
  -22.7470   -2.4980  -36.6780 H   0  0  0  0  0  0  0  0  0  0  0  0
  -23.2340   -0.6770  -37.3600 C   0  0  0  0  0  3  0  0  0  0  0  0
  -24.1480    0.4120  -36.8750 C   0  0  0  0  0  2  0  0  0  0  0  0
  -25.0260    0.7980  -38.0750 C   0  0  0  0  0  2  0  0  0  0  0  0
  -24.1460    1.3290  -39.1530 C   0  0  0  0  0  2  0  0  0  0  0  0
  -23.0070    0.4080  -39.5200 C   0  0  0  0  0  2  0  0  0  0  0  0
  -22.2180    0.0020  -38.2700 C   0  0  0  0  0  2  0  0  0  0  0  0
  -20.4750    0.7900  -34.1580 C   0  0  0  0  0  0  0  0  0  0  0  0
  -21.5240    1.6820  -34.2650 C   0  0  0  0  0  3  0  0  0  0  0  0
  -21.6320    2.5510  -35.3120 C   0  0  0  0  0  3  0  0  0  0  0  0
  -20.7060    2.5800  -36.3090 C   0  0  0  0  0  0  0  0  0  0  0  0
  -20.8530    3.8040  -37.7890 Br  0  0  0  0  0  0  0  0  0  0  0  0
  -19.6520    1.7130  -36.2410 C   0  0  0  0  0  3  0  0  0  0  0  0
  -19.5530    0.8180  -35.1490 C   0  0  0  0  0  3  0  0  0  0  0  0
  1  8  1  0  0  0  0
  1  2  2  0  0  0  0
  2  3  1  0  0  0  0
  3  4  1  0  0  0  0
  4  5  2  0  0  0  0
  4 12  1  0  0  0  0
  5  9  1  0  0  0  0
  6  5  1  0  0  0  0
  7  8  1  1  0  0  0
  7  3  1  0  0  0  0
  7  6  1  0  0  0  0
  9 10  2  0  0  0  0
 11 10  1  0  0  0  0
 12 11  2  0  0  0  0
 13  6  1  0  0  0  0
 14  8  1  0  0  0  0
 15 14  1  0  0  0  0
 16 15  1  0  0  0  0
 17 18  1  0  0  0  0
 17 16  1  0  0  0  0
 19 17  1  0  0  0  0
 20 21  1  0  0  0  0
 20 17  1  0  0  0  0
 22 21  1  0  0  0  0
 23 22  1  0  0  0  0
 24 23  1  0  0  0  0
 24 25  1  0  0  0  0
 25 20  1  0  0  0  0
 26  1  1  0  0  0  0
 27 26  1  0  0  0  0
 28 27  2  0  0  0  0
 29 31  2  0  0  0  0
 29 28  1  0  0  0  0
 30 29  1  0  0  0  0
 31 32  1  0  0  0  0
 32 26  2  0  0  0  0
M  END
>  <Pose>
1

>  <Score>
-8.406

$$$$
