MODEL 1
REMARK VINA RESULT:    -9.005      0.000      0.000
REMARK INTER + INTRA:         -15.252
REMARK INTER:                 -13.217
REMARK INTRA:                  -2.035
REMARK UNBOUND:                -2.035
REMARK  8 active torsions:
REMARK  status: ('A' for Active; 'I' for Inactive)
REMARK    1  A    between atoms: C_5  and  C_8 
REMARK    2  A    between atoms: N_9  and  C_26 
REMARK    3  A    between atoms: C_14  and  C_15 
REMARK    4  A    between atoms: C_15  and  C_17 
REMARK    5  A    between atoms: C_20  and  O_23 
REMARK    6  A    between atoms: C_26  and  C_27 
REMARK    7  A    between atoms: C_27  and  C_28 
REMARK    8  A    between atoms: C_28  and  N_29 
ROOT
ATOM      1  C   UNK d   1     -21.458  -0.123 -33.345  0.00  0.00     0.161 A 
ATOM      2  N   UNK d   1     -20.748  -1.024 -32.480  0.00  0.00    -0.332 N 
ATOM      3  C   UNK d   1     -21.087  -2.370 -32.756  0.00  0.00     0.295 A 
ATOM      4  O   UNK d   1     -20.671  -3.420 -32.176  0.00  0.00    -0.264 OA
ATOM      5  C   UNK d   1     -22.049  -2.402 -33.880  0.00  0.00     0.250 A 
ATOM      6  O   UNK d   1     -22.552  -3.438 -34.370  0.00  0.00    -0.282 OA
ATOM      7  C   UNK d   1     -22.256  -1.017 -34.248  0.00  0.00     0.062 A 
ENDROOT
BRANCH   7   8
ATOM      8  C   UNK d   1     -23.073  -0.648 -35.209  0.00  0.00     0.130 C 
ATOM      9  O   UNK d   1     -24.178   0.155 -34.857  0.00  0.00    -0.190 OA
BRANCH   8  10
ATOM     10  C   UNK d   1     -22.948  -0.979 -36.606  0.00  0.00     0.002 A 
ATOM     11  C   UNK d   1     -23.502  -2.034 -37.241  0.00  0.00     0.024 A 
ATOM     12  C   UNK d   1     -23.330  -2.215 -38.597  0.00  0.00    -0.028 A 
ATOM     13  C   UNK d   1     -22.598  -1.354 -39.386  0.00  0.00     0.074 A 
ATOM     14  C   UNK d   1     -23.967  -3.403 -39.257  0.00  0.00     0.051 C 
ATOM     15  C   UNK d   1     -22.042  -0.284 -38.714  0.00  0.00     0.038 A 
ATOM     16  C   UNK d   1     -22.192  -0.076 -37.371  0.00  0.00     0.017 A 
BRANCH  13  17
ATOM     17  O   UNK d   1     -22.428  -1.542 -40.753  0.00  0.00    -0.355 OA
ATOM     18  C   UNK d   1     -21.685  -0.601 -41.513  0.00  0.00     0.210 C 
ENDBRANCH  13  17
ENDBRANCH   8  10
ENDBRANCH   7   8
BRANCH   1  19
ATOM     19  C   UNK d   1     -20.578   0.778 -34.094  0.00  0.00    -0.030 A 
ATOM     20  C   UNK d   1     -20.753   2.144 -34.042  0.00  0.00     0.011 A 
ATOM     21  C   UNK d   1     -19.915   3.005 -34.757  0.00  0.00     0.019 A 
ATOM     22  C   UNK d   1     -18.893   2.508 -35.534  0.00  0.00     0.011 A 
ATOM     23 Br   UNK d   1     -17.764   3.721 -36.506  0.00  0.00    -0.051 Br
ATOM     24  C   UNK d   1     -18.714   1.154 -35.592  0.00  0.00     0.019 A 
ATOM     25  C   UNK d   1     -19.546   0.321 -34.882  0.00  0.00     0.011 A 
ENDBRANCH   1  19
BRANCH   2  26
ATOM     26  C   UNK d   1     -19.815  -0.586 -31.458  0.00  0.00     0.129 C 
BRANCH  26  27
ATOM     27  C   UNK d   1     -20.412  -0.553 -30.078  0.00  0.00     0.048 C 
BRANCH  27  28
ATOM     28  C   UNK d   1     -19.967  -1.721 -29.252  0.00  0.00     0.236 C 
BRANCH  28  29
ATOM     29  N   UNK d   1     -19.148  -1.346 -28.136  0.00  0.00    -0.067 N 
ATOM     30  C   UNK d   1     -19.299  -2.223 -26.993  0.00  0.00     0.261 C 
ATOM     31  C   UNK d   1     -18.197  -1.845 -25.998  0.00  0.00     0.195 C 
ATOM     32  O   UNK d   1     -17.583  -0.659 -26.373  0.00  0.00    -0.388 OA
ATOM     33  C   UNK d   1     -18.551   0.352 -26.567  0.00  0.00     0.195 C 
ATOM     34  C   UNK d   1     -19.386   0.029 -27.801  0.00  0.00     0.261 C 
ATOM     35  H   UNK d   1     -18.128  -1.422 -28.428  0.00  0.00     0.280 HD
ENDBRANCH  28  29
ENDBRANCH  27  28
ENDBRANCH  26  27
ENDBRANCH   2  26
TORSDOF 8
ENDMDL
