/Users/jonathanwahrer/Desktop/Msc/3_Semester/Drug_Design_Praktikum/waehrer_HTS_screening/HTS_experiment/out/docking_results/vina_output/5l4q/0346_docked.pdbqt
 OpenBabel03212217563D

 35 38  0  0  1  0  0  0  0  0999 V2000
  -21.4580   -0.1230  -33.3450 C   0  0  2  0  0  3  0  0  0  0  0  0
  -20.7480   -1.0240  -32.4800 N   0  0  0  0  0  0  0  0  0  0  0  0
  -21.0870   -2.3700  -32.7560 C   0  0  0  0  0  0  0  0  0  0  0  0
  -20.6710   -3.4200  -32.1760 O   0  0  0  0  0  0  0  0  0  0  0  0
  -22.0490   -2.4020  -33.8800 C   0  0  0  0  0  0  0  0  0  0  0  0
  -22.5520   -3.4380  -34.3700 O   0  0  0  0  0  0  0  0  0  0  0  0
  -22.2560   -1.0170  -34.2480 C   0  0  1  0  0  3  0  0  0  0  0  0
  -23.0730   -0.6480  -35.2090 C   0  0  1  0  0  3  0  0  0  0  0  0
  -24.1780    0.1550  -34.8570 O   0  0  0  0  0  1  0  0  0  0  0  0
  -22.9480   -0.9790  -36.6060 C   0  0  0  0  0  0  0  0  0  0  0  0
  -23.5020   -2.0340  -37.2410 C   0  0  0  0  0  3  0  0  0  0  0  0
  -23.3300   -2.2150  -38.5970 C   0  0  0  0  0  0  0  0  0  0  0  0
  -22.5980   -1.3540  -39.3860 C   0  0  0  0  0  0  0  0  0  0  0  0
  -23.9670   -3.4030  -39.2570 C   0  0  0  0  0  1  0  0  0  0  0  0
  -22.0420   -0.2840  -38.7140 C   0  0  0  0  0  3  0  0  0  0  0  0
  -22.1920   -0.0760  -37.3710 C   0  0  0  0  0  3  0  0  0  0  0  0
  -22.4280   -1.5420  -40.7530 O   0  0  0  0  0  0  0  0  0  0  0  0
  -21.6850   -0.6010  -41.5130 C   0  0  0  0  0  1  0  0  0  0  0  0
  -20.5780    0.7780  -34.0940 C   0  0  0  0  0  0  0  0  0  0  0  0
  -20.7530    2.1440  -34.0420 C   0  0  0  0  0  3  0  0  0  0  0  0
  -19.9150    3.0050  -34.7570 C   0  0  0  0  0  3  0  0  0  0  0  0
  -18.8930    2.5080  -35.5340 C   0  0  0  0  0  0  0  0  0  0  0  0
  -17.7640    3.7210  -36.5060 Br  0  0  0  0  0  0  0  0  0  0  0  0
  -18.7140    1.1540  -35.5920 C   0  0  0  0  0  3  0  0  0  0  0  0
  -19.5460    0.3210  -34.8820 C   0  0  0  0  0  3  0  0  0  0  0  0
  -19.8150   -0.5860  -31.4580 C   0  0  0  0  0  2  0  0  0  0  0  0
  -20.4120   -0.5530  -30.0780 C   0  0  0  0  0  2  0  0  0  0  0  0
  -19.9670   -1.7210  -29.2520 C   0  0  0  0  0  2  0  0  0  0  0  0
  -19.1480   -1.3460  -28.1360 N   0  0  0  0  0  4  0  0  0  0  0  0
  -19.2990   -2.2230  -26.9930 C   0  0  0  0  0  2  0  0  0  0  0  0
  -18.1970   -1.8450  -25.9980 C   0  0  0  0  0  2  0  0  0  0  0  0
  -17.5830   -0.6590  -26.3730 O   0  0  0  0  0  0  0  0  0  0  0  0
  -18.5510    0.3520  -26.5670 C   0  0  0  0  0  2  0  0  0  0  0  0
  -19.3860    0.0290  -27.8010 C   0  0  0  0  0  2  0  0  0  0  0  0
  -18.1280   -1.4220  -28.4280 H   0  0  0  0  0  0  0  0  0  0  0  0
  1 19  1  6  0  0  0
  1  2  1  0  0  0  0
  2 26  1  0  0  0  0
  3  2  1  0  0  0  0
  3  4  2  0  0  0  0
  5  3  1  0  0  0  0
  6  5  2  0  0  0  0
  7  8  1  1  0  0  0
  7  5  1  0  0  0  0
  7  1  1  0  0  0  0
  8  9  1  6  0  0  0
 10  8  1  0  0  0  0
 11 10  1  0  0  0  0
 12 11  2  0  0  0  0
 13 15  2  0  0  0  0
 13 12  1  0  0  0  0
 14 12  1  0  0  0  0
 15 16  1  0  0  0  0
 16 10  2  0  0  0  0
 17 13  1  0  0  0  0
 18 17  1  0  0  0  0
 19 20  1  0  0  0  0
 21 20  2  0  0  0  0
 22 21  1  0  0  0  0
 23 22  1  0  0  0  0
 24 22  2  0  0  0  0
 24 25  1  0  0  0  0
 25 19  2  0  0  0  0
 26 27  1  0  0  0  0
 27 28  1  0  0  0  0
 28 29  1  0  0  0  0
 29 34  1  0  0  0  0
 29 30  1  0  0  0  0
 30 31  1  0  0  0  0
 32 31  1  0  0  0  0
 33 32  1  0  0  0  0
 34 33  1  0  0  0  0
 35 29  1  0  0  0  0
M  END
>  <Pose>
1

>  <Score>
-9.005

$$$$
