MODEL 1
REMARK VINA RESULT:    -7.276      0.000      0.000
REMARK INTER + INTRA:         -11.699
REMARK INTER:                 -10.253
REMARK INTRA:                  -1.446
REMARK UNBOUND:                -1.446
REMARK  7 active torsions:
REMARK  status: ('A' for Active; 'I' for Inactive)
REMARK    1  A    between atoms: C_5  and  C_8 
REMARK    2  A    between atoms: N_9  and  C_25 
REMARK    3  A    between atoms: C_15  and  C_17 
REMARK    4  A    between atoms: C_19  and  O_23 
REMARK    5  A    between atoms: C_25  and  C_26 
REMARK    6  A    between atoms: C_26  and  C_27 
REMARK    7  A    between atoms: C_27  and  N_28 
ROOT
ATOM      1  C   UNK d   1     -19.787   1.033 -34.851  0.00  0.00     0.161 C 
ATOM      2  N   UNK d   1     -20.301   2.302 -34.377  0.00  0.00    -0.332 N 
ATOM      3  C   UNK d   1     -21.695   2.314 -34.693  0.00  0.00     0.295 C 
ATOM      4  O   UNK d   1     -22.595   2.968 -34.109  0.00  0.00    -0.264 OA
ATOM      5  C   UNK d   1     -21.853   1.414 -35.831  0.00  0.00     0.250 C 
ATOM      6  O   UNK d   1     -22.893   1.099 -36.460  0.00  0.00    -0.282 OA
ATOM      7  C   UNK d   1     -20.530   0.890 -36.157  0.00  0.00     0.062 C 
ATOM      8  C   UNK d   1     -20.138   0.389 -37.302  0.00  0.00     0.130 C 
ATOM      9  O   UNK d   1     -18.821  -0.101 -37.344  0.00  0.00    -0.190 OA
ENDROOT
BRANCH   2  10
ATOM     10  C   UNK d   1     -19.557   3.380 -33.703  0.00  0.00     0.129 C 
BRANCH  10  11
ATOM     11  C   UNK d   1     -18.108   3.424 -34.210  0.00  0.00     0.048 C 
BRANCH  11  12
ATOM     12  C   UNK d   1     -17.953   4.577 -35.160  0.00  0.00     0.236 C 
BRANCH  12  13
ATOM     13  N   UNK d   1     -17.657   4.066 -36.477  0.00  0.00    -0.067 N 
ATOM     14  C   UNK d   1     -16.720   4.854 -37.213  0.00  0.00     0.261 C 
ATOM     15  C   UNK d   1     -17.286   6.147 -37.692  0.00  0.00     0.195 C 
ATOM     16  O   UNK d   1     -18.426   5.938 -38.449  0.00  0.00    -0.388 OA
ATOM     17  C   UNK d   1     -19.371   5.319 -37.629  0.00  0.00     0.195 C 
ATOM     18  C   UNK d   1     -18.852   3.935 -37.291  0.00  0.00     0.261 C 
ATOM     19  H   UNK d   1     -17.270   3.100 -36.371  0.00  0.00     0.280 HD
ENDBRANCH  12  13
ENDBRANCH  11  12
ENDBRANCH  10  11
ENDBRANCH   2  10
BRANCH   1  20
ATOM     20  C   UNK d   1     -20.109  -0.047 -33.928  0.00  0.00    -0.030 A 
ATOM     21  C   UNK d   1     -19.928   0.111 -32.576  0.00  0.00     0.011 A 
ATOM     22  C   UNK d   1     -20.221  -0.921 -31.680  0.00  0.00     0.019 A 
ATOM     23  C   UNK d   1     -20.699  -2.124 -32.143  0.00  0.00     0.011 A 
ATOM     24 Br   UNK d   1     -21.095  -3.530 -30.916  0.00  0.00    -0.051 Br
ATOM     25  C   UNK d   1     -20.884  -2.294 -33.489  0.00  0.00     0.019 A 
ATOM     26  C   UNK d   1     -20.589  -1.262 -34.362  0.00  0.00     0.011 A 
ENDBRANCH   1  20
BRANCH   8  27
ATOM     27  C   UNK d   1     -20.986   0.334 -38.489  0.00  0.00     0.004 A 
ATOM     28  C   UNK d   1     -21.609  -0.807 -38.940  0.00  0.00     0.051 A 
ATOM     29  C   UNK d   1     -22.397  -0.872 -40.075  0.00  0.00     0.069 A 
ATOM     30  C   UNK d   1     -22.578   0.267 -40.807  0.00  0.00     0.037 A 
ATOM     31  C   UNK d   1     -21.967   1.445 -40.387  0.00  0.00     0.004 A 
ATOM     32  C   UNK d   1     -21.188   1.472 -39.250  0.00  0.00     0.014 A 
BRANCH  29  33
ATOM     33  O   UNK d   1     -22.944  -2.099 -40.379  0.00  0.00    -0.356 OA
ATOM     34  C   UNK d   1     -23.486  -3.028 -39.505  0.00  0.00     0.210 C 
ENDBRANCH  29  33
ENDBRANCH   8  27
TORSDOF 7
ENDMDL
