MODEL 1
REMARK VINA RESULT:    -7.752      0.000      0.000
REMARK INTER + INTRA:         -11.144
REMARK INTER:                 -10.018
REMARK INTRA:                  -1.126
REMARK UNBOUND:                -1.126
REMARK  5 active torsions:
REMARK  status: ('A' for Active; 'I' for Inactive)
REMARK    1  A    between atoms: C_5  and  C_8 
REMARK    2  A    between atoms: N_9  and  C_24 
REMARK    3  A    between atoms: C_15  and  C_17 
REMARK    4  A    between atoms: C_24  and  C_25 
REMARK    5  A    between atoms: C_25  and  N_26 
ROOT
ATOM      1  C   UNK d   1     -20.829   2.234 -35.021  0.00  0.00     0.161 C 
ATOM      2  N   UNK d   1     -21.447   1.612 -36.111  0.00  0.00    -0.331 N 
ATOM      3  C   UNK d   1     -22.644   0.983 -35.515  0.00  0.00     0.295 C 
ATOM      4  O   UNK d   1     -23.754   0.772 -36.079  0.00  0.00    -0.264 OA
ATOM      5  C   UNK d   1     -22.243   0.667 -34.141  0.00  0.00     0.250 C 
ATOM      6  O   UNK d   1     -22.927   0.105 -33.232  0.00  0.00    -0.282 OA
ATOM      7  C   UNK d   1     -20.850   1.136 -34.014  0.00  0.00     0.062 C 
ATOM      8  C   UNK d   1     -19.904   0.647 -33.245  0.00  0.00     0.130 C 
ATOM      9  O   UNK d   1     -18.615   1.164 -33.299  0.00  0.00    -0.190 OA
ENDROOT
BRANCH   2  10
ATOM     10  C   UNK d   1     -21.247   1.476 -37.546  0.00  0.00     0.155 C 
BRANCH  10  11
ATOM     11  C   UNK d   1     -20.341   0.337 -37.934  0.00  0.00     0.255 C 
BRANCH  11  12
ATOM     12  N   UNK d   1     -20.764  -0.366 -39.101  0.00  0.00    -0.066 N 
ATOM     13  C   UNK d   1     -20.864   0.545 -40.226  0.00  0.00     0.261 C 
ATOM     14  C   UNK d   1     -21.270  -0.240 -41.446  0.00  0.00     0.195 C 
ATOM     15  O   UNK d   1     -22.600  -0.639 -41.233  0.00  0.00    -0.388 OA
ATOM     16  C   UNK d   1     -22.613  -1.498 -40.159  0.00  0.00     0.195 C 
ATOM     17  C   UNK d   1     -22.142  -0.850 -38.883  0.00  0.00     0.261 C 
ATOM     18  H   UNK d   1     -20.168  -1.175 -39.329  0.00  0.00     0.280 HD
ENDBRANCH  11  12
ENDBRANCH  10  11
ENDBRANCH   2  10
BRANCH   1  19
ATOM     19  C   UNK d   1     -19.749   3.144 -35.028  0.00  0.00    -0.030 A 
ATOM     20  C   UNK d   1     -19.773   4.180 -34.082  0.00  0.00     0.011 A 
ATOM     21  C   UNK d   1     -18.787   5.122 -34.006  0.00  0.00     0.019 A 
ATOM     22  C   UNK d   1     -17.714   5.090 -34.870  0.00  0.00     0.011 A 
ATOM     23 Br   UNK d   1     -16.316   6.396 -34.788  0.00  0.00    -0.051 Br
ATOM     24  C   UNK d   1     -17.686   4.078 -35.799  0.00  0.00     0.019 A 
ATOM     25  C   UNK d   1     -18.696   3.118 -35.873  0.00  0.00     0.011 A 
ENDBRANCH   1  19
BRANCH   8  26
ATOM     26  C   UNK d   1     -20.130  -0.435 -32.299  0.00  0.00     0.001 A 
ATOM     27  C   UNK d   1     -20.228  -1.757 -32.601  0.00  0.00     0.015 A 
ATOM     28  C   UNK d   1     -20.401  -2.696 -31.594  0.00  0.00     0.007 A 
ATOM     29  C   UNK d   1     -20.476  -2.303 -30.278  0.00  0.00    -0.062 A 
ATOM     30  C   UNK d   1     -20.382  -0.976 -29.931  0.00  0.00     0.007 A 
ATOM     31  C   UNK d   1     -20.661  -3.285 -29.168  0.00  0.00     0.048 C 
ATOM     32  C   UNK d   1     -20.209  -0.055 -30.954  0.00  0.00     0.015 A 
ENDBRANCH   8  26
TORSDOF 5
ENDMDL
