/Users/jonathanwahrer/Desktop/Msc/3_Semester/Drug_Design_Praktikum/waehrer_HTS_screening/HTS_experiment/out/docking_results/vina_output/5l4q/0351_docked.pdbqt
 OpenBabel03212217573D

 32 35  0  0  1  0  0  0  0  0999 V2000
  -21.5760    2.2260  -35.0110 C   0  0  1  0  0  3  0  0  0  0  0  0
  -22.2000    1.7870  -36.2050 N   0  0  0  0  0  0  0  0  0  0  0  0
  -23.2610    0.9050  -35.7260 C   0  0  0  0  0  0  0  0  0  0  0  0
  -24.3560    0.6770  -36.3070 O   0  0  0  0  0  0  0  0  0  0  0  0
  -22.7810    0.3600  -34.4570 C   0  0  0  0  0  0  0  0  0  0  0  0
  -23.3590   -0.4520  -33.6890 O   0  0  0  0  0  0  0  0  0  0  0  0
  -21.4590    0.9510  -34.2430 C   0  0  0  0  0  0  0  0  0  0  0  0
  -20.4410    0.4350  -33.5780 C   0  0  0  0  0  0  0  0  0  0  0  0
  -19.2280    1.1030  -33.5250 O   0  0  0  0  0  1  0  0  0  0  0  0
  -22.0020    2.0870  -37.6260 C   0  0  0  0  0  2  0  0  0  0  0  0
  -21.7380    0.8870  -38.4810 C   0  0  0  0  0  2  0  0  0  0  0  0
  -22.8880    0.4940  -39.2650 N   0  0  0  0  0  4  0  0  0  0  0  0
  -23.2410   -0.8870  -39.0880 C   0  0  0  0  0  2  0  0  0  0  0  0
  -22.2610   -1.8480  -39.6940 C   0  0  0  0  0  2  0  0  0  0  0  0
  -21.9920   -1.5540  -41.0310 O   0  0  0  0  0  0  0  0  0  0  0  0
  -21.4460   -0.2610  -41.0440 C   0  0  0  0  0  2  0  0  0  0  0  0
  -22.5610    0.6900  -40.6660 C   0  0  0  0  0  2  0  0  0  0  0  0
  -23.7260    1.0740  -39.0640 H   0  0  0  0  0  0  0  0  0  0  0  0
  -20.4510    3.0810  -34.9990 C   0  0  0  0  0  0  0  0  0  0  0  0
  -19.3900    2.9330  -35.8450 C   0  0  0  0  0  3  0  0  0  0  0  0
  -18.3040    3.8200  -35.8020 C   0  0  0  0  0  3  0  0  0  0  0  0
  -18.2670    4.8680  -34.9100 C   0  0  0  0  0  0  0  0  0  0  0  0
  -16.8190    6.0980  -34.8100 Br  0  0  0  0  0  0  0  0  0  0  0  0
  -19.3290    5.0190  -34.0590 C   0  0  0  0  0  3  0  0  0  0  0  0
  -20.3860    4.1390  -34.1160 C   0  0  0  0  0  3  0  0  0  0  0  0
  -20.5050   -0.8320  -32.8620 C   0  0  0  0  0  0  0  0  0  0  0  0
  -20.5540   -0.7110  -31.4670 C   0  0  0  0  0  3  0  0  0  0  0  0
  -20.6570   -1.8080  -30.6430 C   0  0  0  0  0  3  0  0  0  0  0  0
  -20.7140   -3.0670  -31.2300 C   0  0  0  0  0  0  0  0  0  0  0  0
  -20.6660   -3.1780  -32.6020 C   0  0  0  0  0  3  0  0  0  0  0  0
  -20.8440   -4.4550  -30.1730 Cl  0  0  0  0  0  0  0  0  0  0  0  0
  -20.5630   -2.0720  -33.4190 C   0  0  0  0  0  3  0  0  0  0  0  0
  1 19  1  6  0  0  0
  1  7  1  0  0  0  0
  2  3  1  0  0  0  0
  2  1  1  0  0  0  0
  3  5  1  0  0  0  0
  4  3  2  0  0  0  0
  5  7  1  0  0  0  0
  5  6  2  0  0  0  0
  7  8  2  0  0  0  0
  8  9  1  0  0  0  0
  8 26  1  0  0  0  0
 10  2  1  0  0  0  0
 11 10  1  0  0  0  0
 12 13  1  0  0  0  0
 12 18  1  0  0  0  0
 12 11  1  0  0  0  0
 14 13  1  0  0  0  0
 15 14  1  0  0  0  0
 16 15  1  0  0  0  0
 16 17  1  0  0  0  0
 17 12  1  0  0  0  0
 19 25  1  0  0  0  0
 20 21  1  0  0  0  0
 20 19  2  0  0  0  0
 21 22  2  0  0  0  0
 22 23  1  0  0  0  0
 22 24  1  0  0  0  0
 25 24  2  0  0  0  0
 26 27  1  0  0  0  0
 27 28  2  0  0  0  0
 29 28  1  0  0  0  0
 29 31  1  0  0  0  0
 30 29  2  0  0  0  0
 32 26  2  0  0  0  0
 32 30  1  0  0  0  0
M  END
>  <Pose>
1

>  <Score>
-7.596

$$$$
