MODEL 1
REMARK VINA RESULT:    -7.310      0.000      0.000
REMARK INTER + INTRA:         -10.579
REMARK INTER:                  -9.875
REMARK INTRA:                  -0.705
REMARK UNBOUND:                -0.705
REMARK  6 active torsions:
REMARK  status: ('A' for Active; 'I' for Inactive)
REMARK    1  A    between atoms: C_5  and  C_8 
REMARK    2  A    between atoms: N_9  and  C_23 
REMARK    3  A    between atoms: C_15  and  C_17 
REMARK    4  A    between atoms: C_23  and  C_24 
REMARK    5  A    between atoms: C_24  and  C_25 
REMARK    6  A    between atoms: C_25  and  N_26 
ROOT
ATOM      1  C   UNK d   1     -20.241  -1.121 -33.248  0.00  0.00     0.161 C 
ATOM      2  N   UNK d   1     -21.456  -1.842 -33.452  0.00  0.00    -0.332 N 
ATOM      3  C   UNK d   1     -21.842  -1.574 -34.825  0.00  0.00     0.295 C 
ATOM      4  O   UNK d   1     -22.631  -2.289 -35.496  0.00  0.00    -0.264 OA
ATOM      5  C   UNK d   1     -21.164  -0.365 -35.251  0.00  0.00     0.250 C 
ATOM      6  O   UNK d   1     -21.236   0.209 -36.380  0.00  0.00    -0.282 OA
ATOM      7  C   UNK d   1     -20.372   0.076 -34.121  0.00  0.00     0.062 C 
ATOM      8  C   UNK d   1     -19.911   1.299 -33.928  0.00  0.00     0.130 C 
ATOM      9  O   UNK d   1     -19.198   1.513 -32.723  0.00  0.00    -0.190 OA
ENDROOT
BRANCH   2  10
ATOM     10  C   UNK d   1     -22.211  -2.754 -32.591  0.00  0.00     0.129 C 
BRANCH  10  11
ATOM     11  C   UNK d   1     -21.542  -4.055 -32.304  0.00  0.00     0.048 C 
BRANCH  11  12
ATOM     12  C   UNK d   1     -21.784  -4.518 -30.876  0.00  0.00     0.236 C 
BRANCH  12  13
ATOM     13  N   UNK d   1     -20.679  -4.166 -30.016  0.00  0.00    -0.067 N 
ATOM     14  C   UNK d   1     -21.081  -3.323 -28.912  0.00  0.00     0.261 C 
ATOM     15  C   UNK d   1     -19.952  -3.385 -27.880  0.00  0.00     0.195 C 
ATOM     16  O   UNK d   1     -20.029  -4.610 -27.219  0.00  0.00    -0.388 OA
ATOM     17  C   UNK d   1     -20.339  -5.649 -28.096  0.00  0.00     0.195 C 
ATOM     18  C   UNK d   1     -19.964  -5.302 -29.522  0.00  0.00     0.261 C 
ATOM     19  H   UNK d   1     -20.016  -3.603 -30.601  0.00  0.00     0.280 HD
ENDBRANCH  12  13
ENDBRANCH  11  12
ENDBRANCH  10  11
ENDBRANCH   2  10
BRANCH   1  20
ATOM     20  C   UNK d   1     -19.841  -0.808 -31.891  0.00  0.00    -0.030 A 
ATOM     21  C   UNK d   1     -20.598  -0.241 -30.922  0.00  0.00     0.011 A 
ATOM     22  C   UNK d   1     -20.117  -0.008 -29.648  0.00  0.00     0.019 A 
ATOM     23  C   UNK d   1     -18.829  -0.343 -29.292  0.00  0.00     0.011 A 
ATOM     24 Br   UNK d   1     -18.144  -0.031 -27.537  0.00  0.00    -0.051 Br
ATOM     25  C   UNK d   1     -18.029  -0.922 -30.253  0.00  0.00     0.019 A 
ATOM     26  C   UNK d   1     -18.529  -1.145 -31.516  0.00  0.00     0.011 A 
ENDBRANCH   1  20
BRANCH   8  27
ATOM     27  C   UNK d   1     -20.084   2.398 -34.856  0.00  0.00     0.004 A 
ATOM     28  C   UNK d   1     -21.230   3.183 -34.675  0.00  0.00     0.033 A 
ATOM     29  C   UNK d   1     -21.498   4.286 -35.458  0.00  0.00     0.117 A 
ATOM     30  N   UNK d   1     -20.639   4.630 -36.435  0.00  0.00    -0.273 NA
ATOM     31  C   UNK d   1     -19.527   3.892 -36.632  0.00  0.00     0.117 A 
ATOM     32  C   UNK d   1     -19.245   2.777 -35.847  0.00  0.00     0.033 A 
ENDBRANCH   8  27
TORSDOF 6
ENDMDL
