/Users/jonathanwahrer/Desktop/Msc/3_Semester/Drug_Design_Praktikum/waehrer_HTS_screening/HTS_experiment/out/docking_results/vina_output/5l4q/0354_docked.pdbqt
 OpenBabel03212217573D

 32 35  0  0  1  0  0  0  0  0999 V2000
  -20.2410   -1.1210  -33.2480 C   0  0  1  0  0  3  0  0  0  0  0  0
  -21.4560   -1.8420  -33.4520 N   0  0  0  0  0  0  0  0  0  0  0  0
  -21.8420   -1.5740  -34.8250 C   0  0  0  0  0  0  0  0  0  0  0  0
  -22.6310   -2.2890  -35.4960 O   0  0  0  0  0  0  0  0  0  0  0  0
  -21.1640   -0.3650  -35.2510 C   0  0  0  0  0  0  0  0  0  0  0  0
  -21.2360    0.2090  -36.3800 O   0  0  0  0  0  0  0  0  0  0  0  0
  -20.3720    0.0760  -34.1210 C   0  0  0  0  0  0  0  0  0  0  0  0
  -19.9110    1.2990  -33.9280 C   0  0  0  0  0  0  0  0  0  0  0  0
  -19.1980    1.5130  -32.7230 O   0  0  0  0  0  1  0  0  0  0  0  0
  -22.2110   -2.7540  -32.5910 C   0  0  0  0  0  2  0  0  0  0  0  0
  -21.5420   -4.0550  -32.3040 C   0  0  0  0  0  2  0  0  0  0  0  0
  -21.7840   -4.5180  -30.8760 C   0  0  0  0  0  2  0  0  0  0  0  0
  -20.6790   -4.1660  -30.0160 N   0  0  0  0  0  4  0  0  0  0  0  0
  -21.0810   -3.3230  -28.9120 C   0  0  0  0  0  2  0  0  0  0  0  0
  -19.9520   -3.3850  -27.8800 C   0  0  0  0  0  2  0  0  0  0  0  0
  -20.0290   -4.6100  -27.2190 O   0  0  0  0  0  0  0  0  0  0  0  0
  -20.3390   -5.6490  -28.0960 C   0  0  0  0  0  2  0  0  0  0  0  0
  -19.9640   -5.3020  -29.5220 C   0  0  0  0  0  2  0  0  0  0  0  0
  -20.0160   -3.6030  -30.6010 H   0  0  0  0  0  0  0  0  0  0  0  0
  -19.8410   -0.8080  -31.8910 C   0  0  0  0  0  0  0  0  0  0  0  0
  -20.5980   -0.2410  -30.9220 C   0  0  0  0  0  3  0  0  0  0  0  0
  -20.1170   -0.0080  -29.6480 C   0  0  0  0  0  3  0  0  0  0  0  0
  -18.8290   -0.3430  -29.2920 C   0  0  0  0  0  0  0  0  0  0  0  0
  -18.1440   -0.0310  -27.5370 Br  0  0  0  0  0  0  0  0  0  0  0  0
  -18.0290   -0.9220  -30.2530 C   0  0  0  0  0  3  0  0  0  0  0  0
  -18.5290   -1.1450  -31.5160 C   0  0  0  0  0  3  0  0  0  0  0  0
  -20.0840    2.3980  -34.8560 C   0  0  0  0  0  0  0  0  0  0  0  0
  -21.2300    3.1830  -34.6750 C   0  0  0  0  0  3  0  0  0  0  0  0
  -21.4980    4.2860  -35.4580 C   0  0  0  0  0  3  0  0  0  0  0  0
  -20.6390    4.6300  -36.4350 N   0  0  0  0  0  0  0  0  0  0  0  0
  -19.5270    3.8920  -36.6320 C   0  0  0  0  0  3  0  0  0  0  0  0
  -19.2450    2.7770  -35.8470 C   0  0  0  0  0  3  0  0  0  0  0  0
  1 20  1  1  0  0  0
  2  1  1  0  0  0  0
  2 10  1  0  0  0  0
  3  2  1  0  0  0  0
  4  3  2  0  0  0  0
  5  3  1  0  0  0  0
  5  7  1  0  0  0  0
  6  5  2  0  0  0  0
  7  8  2  0  0  0  0
  7  1  1  0  0  0  0
  8  9  1  0  0  0  0
 10 11  1  0  0  0  0
 11 12  1  0  0  0  0
 12 13  1  0  0  0  0
 13 18  1  0  0  0  0
 13 14  1  0  0  0  0
 14 15  1  0  0  0  0
 15 16  1  0  0  0  0
 17 16  1  0  0  0  0
 18 17  1  0  0  0  0
 19 13  1  0  0  0  0
 20 26  2  0  0  0  0
 20 21  1  0  0  0  0
 21 22  2  0  0  0  0
 22 23  1  0  0  0  0
 23 24  1  0  0  0  0
 25 23  2  0  0  0  0
 26 25  1  0  0  0  0
 27 28  1  0  0  0  0
 27  8  1  0  0  0  0
 29 28  2  0  0  0  0
 30 29  1  0  0  0  0
 31 30  2  0  0  0  0
 31 32  1  0  0  0  0
 32 27  2  0  0  0  0
M  END
>  <Pose>
1

>  <Score>
-7.310

$$$$
