/Users/jonathanwahrer/Desktop/Msc/3_Semester/Drug_Design_Praktikum/waehrer_HTS_screening/HTS_experiment/out/docking_results/vina_output/5l4q/0361_docked.pdbqt
 OpenBabel03212217573D

 33 36  0  0  1  0  0  0  0  0999 V2000
  -21.2410   -0.7690  -35.2850 C   0  0  1  0  0  3  0  0  0  0  0  0
  -22.6990   -0.6010  -35.4200 N   0  0  0  0  0  0  0  0  0  0  0  0
  -22.9710    0.6500  -34.7970 C   0  0  0  0  0  0  0  0  0  0  0  0
  -24.0890    0.9670  -34.2980 O   0  0  0  0  0  0  0  0  0  0  0  0
  -21.7650    1.4700  -34.8400 C   0  0  0  0  0  0  0  0  0  0  0  0
  -21.6290    2.6290  -34.3970 O   0  0  0  0  0  0  0  0  0  0  0  0
  -20.7740    0.6480  -35.5100 C   0  0  0  0  0  0  0  0  0  0  0  0
  -19.7280    1.0360  -36.1940 C   0  0  0  0  0  0  0  0  0  0  0  0
  -18.9010    0.1150  -36.8200 O   0  0  0  0  0  1  0  0  0  0  0  0
  -20.8800   -1.1230  -33.8940 C   0  0  0  0  0  0  0  0  0  0  0  0
  -21.4110   -2.2300  -33.2760 C   0  0  0  0  0  3  0  0  0  0  0  0
  -21.0740   -2.5870  -31.9720 C   0  0  0  0  0  3  0  0  0  0  0  0
  -20.1770   -1.8170  -31.2530 C   0  0  0  0  0  0  0  0  0  0  0  0
  -19.6990   -2.2910  -29.4530 Br  0  0  0  0  0  0  0  0  0  0  0  0
  -19.6490   -0.7130  -31.8730 C   0  0  0  0  0  3  0  0  0  0  0  0
  -19.9890   -0.3700  -33.1600 C   0  0  0  0  0  3  0  0  0  0  0  0
  -19.3810    2.4380  -36.3280 C   0  0  0  0  0  0  0  0  0  0  0  0
  -18.7350    3.2840  -35.4990 N   0  0  0  0  0  0  0  0  0  0  0  0
  -18.6700    4.5140  -36.0280 C   0  0  0  0  0  0  0  0  0  0  0  0
  -18.1510    3.0970  -34.2870 C   0  0  0  0  0  3  0  0  0  0  0  0
  -19.2920    4.4390  -37.2240 N   0  0  0  0  0  0  0  0  0  0  0  0
  -18.0410    5.5840  -35.3910 C   0  0  0  0  0  3  0  0  0  0  0  0
  -19.7350    3.2180  -37.4510 C   0  0  0  0  0  0  0  0  0  0  0  0
  -20.4730    2.6740  -38.6350 C   0  0  0  0  0  1  0  0  0  0  0  0
  -17.4490    5.4010  -34.1630 C   0  0  0  0  0  3  0  0  0  0  0  0
  -17.5230    4.1320  -33.6360 C   0  0  0  0  0  3  0  0  0  0  0  0
  -23.6120   -1.5270  -36.0360 C   0  0  0  0  0  2  0  0  0  0  0  0
  -24.0760   -1.2790  -37.4170 C   0  0  0  0  0  2  0  0  0  0  0  0
  -23.1370   -0.8060  -38.4550 C   0  0  0  0  0  2  0  0  0  0  0  0
  -22.3220   -1.7770  -39.1190 N   0  0  0  0  0  4  0  0  0  0  0  0
  -23.2350   -2.8740  -39.5520 C   0  0  0  0  0  1  0  0  0  0  0  0
  -21.8140   -1.2300  -40.3600 C   0  0  0  0  0  1  0  0  0  0  0  0
  -21.5600   -2.1880  -38.5800 H   0  0  0  0  0  0  0  0  0  0  0  0
  1 10  1  1  0  0  0
  2  1  1  0  0  0  0
  2  3  1  0  0  0  0
  3  4  2  0  0  0  0
  5  3  1  0  0  0  0
  5  6  2  0  0  0  0
  7  1  1  0  0  0  0
  7  5  1  0  0  0  0
  8  7  2  0  0  0  0
  9  8  1  0  0  0  0
 10 11  2  0  0  0  0
 10 16  1  0  0  0  0
 11 12  1  0  0  0  0
 12 13  2  0  0  0  0
 13 14  1  0  0  0  0
 15 13  1  0  0  0  0
 16 15  2  0  0  0  0
 17  8  1  0  0  0  0
 17 18  1  0  0  0  0
 18 20  1  0  0  0  0
 19 18  1  0  0  0  0
 19 22  1  0  0  0  0
 20 26  2  0  0  0  0
 21 19  2  0  0  0  0
 22 25  2  0  0  0  0
 23 21  1  0  0  0  0
 23 17  2  0  0  0  0
 24 23  1  0  0  0  0
 25 26  1  0  0  0  0
 27  2  1  0  0  0  0
 28 27  1  0  0  0  0
 29 28  1  0  0  0  0
 30 33  1  0  0  0  0
 30 29  1  0  0  0  0
 31 30  1  0  0  0  0
 32 30  1  0  0  0  0
M  END
>  <Pose>
1

>  <Score>
-7.693

$$$$
