MODEL 1
REMARK VINA RESULT:    -7.457      0.000      0.000
REMARK INTER + INTRA:         -11.223
REMARK INTER:                  -9.637
REMARK INTRA:                  -1.585
REMARK UNBOUND:                -1.585
REMARK  5 active torsions:
REMARK  status: ('A' for Active; 'I' for Inactive)
REMARK    1  A    between atoms: C_5  and  C_8 
REMARK    2  A    between atoms: N_9  and  C_27 
REMARK    3  A    between atoms: C_15  and  C_17 
REMARK    4  A    between atoms: C_27  and  C_28 
REMARK    5  A    between atoms: C_28  and  N_29 
ROOT
ATOM      1  C   UNK d   1     -19.680  -1.412 -32.782  0.00  0.00     0.161 C 
ATOM      2  N   UNK d   1     -20.745  -2.369 -32.898  0.00  0.00    -0.331 N 
ATOM      3  C   UNK d   1     -21.831  -1.722 -33.538  0.00  0.00     0.295 C 
ATOM      4  O   UNK d   1     -23.006  -2.178 -33.634  0.00  0.00    -0.264 OA
ATOM      5  C   UNK d   1     -21.377  -0.436 -34.071  0.00  0.00     0.251 C 
ATOM      6  O   UNK d   1     -22.052   0.413 -34.704  0.00  0.00    -0.282 OA
ATOM      7  C   UNK d   1     -19.970  -0.317 -33.733  0.00  0.00     0.064 C 
ATOM      8  C   UNK d   1     -19.127   0.570 -34.236  0.00  0.00     0.149 C 
ATOM      9  O   UNK d   1     -17.779   0.474 -33.837  0.00  0.00    -0.189 OA
ENDROOT
BRANCH   1  10
ATOM     10  C   UNK d   1     -19.524  -0.911 -31.390  0.00  0.00    -0.030 A 
ATOM     11  C   UNK d   1     -18.374  -1.098 -30.656  0.00  0.00     0.011 A 
ATOM     12  C   UNK d   1     -18.197  -0.649 -29.369  0.00  0.00     0.019 A 
ATOM     13  C   UNK d   1     -19.207   0.031 -28.750  0.00  0.00     0.011 A 
ATOM     14 Br   UNK d   1     -18.942   0.648 -26.961  0.00  0.00    -0.051 Br
ATOM     15  C   UNK d   1     -20.376   0.244 -29.441  0.00  0.00     0.019 A 
ATOM     16  C   UNK d   1     -20.536  -0.213 -30.728  0.00  0.00     0.011 A 
ENDBRANCH   1  10
BRANCH   8  17
ATOM     17  C   UNK d   1     -19.453   1.636 -35.150  0.00  0.00     0.102 A 
ATOM     18  N   UNK d   1     -19.679   1.674 -36.469  0.00  0.00    -0.302 N 
ATOM     19  C   UNK d   1     -19.908   2.933 -36.881  0.00  0.00     0.134 A 
ATOM     20  C   UNK d   1     -19.728   0.688 -37.391  0.00  0.00     0.099 A 
ATOM     21  N   UNK d   1     -19.827   3.721 -35.796  0.00  0.00    -0.233 NA
ATOM     22  C   UNK d   1     -20.189   3.271 -38.200  0.00  0.00     0.051 A 
ATOM     23  C   UNK d   1     -19.553   2.969 -34.729  0.00  0.00     0.063 A 
ATOM     24  C   UNK d   1     -19.387   3.479 -33.339  0.00  0.00     0.073 C 
ATOM     25  C   UNK d   1     -20.237   2.268 -39.129  0.00  0.00     0.005 A 
ATOM     26  C   UNK d   1     -20.003   0.972 -38.708  0.00  0.00     0.018 A 
ENDBRANCH   8  17
BRANCH   2  27
ATOM     27  C   UNK d   1     -20.722  -3.776 -32.439  0.00  0.00     0.155 C 
BRANCH  27  28
ATOM     28  C   UNK d   1     -21.333  -3.878 -31.058  0.00  0.00     0.254 C 
BRANCH  28  29
ATOM     29  N   UNK d   1     -20.383  -4.153 -30.038  0.00  0.00    -0.077 N 
ATOM     30  C   UNK d   1     -20.789  -3.413 -28.842  0.00  0.00     0.269 C 
ATOM     31  C   UNK d   1     -20.238  -5.533 -29.695  0.00  0.00     0.269 C 
ATOM     32  H   UNK d   1     -19.420  -3.790 -30.285  0.00  0.00     0.279 HD
ENDBRANCH  28  29
ENDBRANCH  27  28
ENDBRANCH   2  27
TORSDOF 5
ENDMDL
