/Users/jonathanwahrer/Desktop/Msc/3_Semester/Drug_Design_Praktikum/waehrer_HTS_screening/HTS_experiment/out/docking_results/vina_output/5l4q/0364_docked.pdbqt
 OpenBabel03212217583D

 32 35  0  0  1  0  0  0  0  0999 V2000
  -19.6800   -1.4120  -32.7820 C   0  0  1  0  0  3  0  0  0  0  0  0
  -20.7450   -2.3690  -32.8980 N   0  0  0  0  0  0  0  0  0  0  0  0
  -21.8310   -1.7220  -33.5380 C   0  0  0  0  0  0  0  0  0  0  0  0
  -23.0060   -2.1780  -33.6340 O   0  0  0  0  0  0  0  0  0  0  0  0
  -21.3770   -0.4360  -34.0710 C   0  0  0  0  0  0  0  0  0  0  0  0
  -22.0520    0.4130  -34.7040 O   0  0  0  0  0  0  0  0  0  0  0  0
  -19.9700   -0.3170  -33.7330 C   0  0  0  0  0  0  0  0  0  0  0  0
  -19.1270    0.5700  -34.2360 C   0  0  0  0  0  0  0  0  0  0  0  0
  -17.7790    0.4740  -33.8370 O   0  0  0  0  0  1  0  0  0  0  0  0
  -19.5240   -0.9110  -31.3900 C   0  0  0  0  0  0  0  0  0  0  0  0
  -18.3740   -1.0980  -30.6560 C   0  0  0  0  0  3  0  0  0  0  0  0
  -18.1970   -0.6490  -29.3690 C   0  0  0  0  0  3  0  0  0  0  0  0
  -19.2070    0.0310  -28.7500 C   0  0  0  0  0  0  0  0  0  0  0  0
  -18.9420    0.6480  -26.9610 Br  0  0  0  0  0  0  0  0  0  0  0  0
  -20.3760    0.2440  -29.4410 C   0  0  0  0  0  3  0  0  0  0  0  0
  -20.5360   -0.2130  -30.7280 C   0  0  0  0  0  3  0  0  0  0  0  0
  -19.4530    1.6360  -35.1500 C   0  0  0  0  0  0  0  0  0  0  0  0
  -19.6790    1.6740  -36.4690 N   0  0  0  0  0  0  0  0  0  0  0  0
  -19.9080    2.9330  -36.8810 C   0  0  0  0  0  0  0  0  0  0  0  0
  -19.7280    0.6880  -37.3910 C   0  0  0  0  0  3  0  0  0  0  0  0
  -19.8270    3.7210  -35.7960 N   0  0  0  0  0  0  0  0  0  0  0  0
  -20.1890    3.2710  -38.2000 C   0  0  0  0  0  3  0  0  0  0  0  0
  -19.5530    2.9690  -34.7290 C   0  0  0  0  0  0  0  0  0  0  0  0
  -19.3870    3.4790  -33.3390 C   0  0  0  0  0  1  0  0  0  0  0  0
  -20.2370    2.2680  -39.1290 C   0  0  0  0  0  3  0  0  0  0  0  0
  -20.0030    0.9720  -38.7080 C   0  0  0  0  0  3  0  0  0  0  0  0
  -20.7220   -3.7760  -32.4390 C   0  0  0  0  0  2  0  0  0  0  0  0
  -21.3330   -3.8780  -31.0580 C   0  0  0  0  0  2  0  0  0  0  0  0
  -20.3830   -4.1530  -30.0380 N   0  0  0  0  0  4  0  0  0  0  0  0
  -20.7890   -3.4130  -28.8420 C   0  0  0  0  0  1  0  0  0  0  0  0
  -20.2380   -5.5330  -29.6950 C   0  0  0  0  0  1  0  0  0  0  0  0
  -19.4200   -3.7900  -30.2850 H   0  0  0  0  0  0  0  0  0  0  0  0
  1 10  1  1  0  0  0
  2  1  1  0  0  0  0
  2 27  1  0  0  0  0
  3  2  1  0  0  0  0
  4  3  2  0  0  0  0
  5  7  1  0  0  0  0
  5  3  1  0  0  0  0
  6  5  2  0  0  0  0
  7  1  1  0  0  0  0
  8  9  1  0  0  0  0
  8  7  2  0  0  0  0
 10 16  2  0  0  0  0
 10 11  1  0  0  0  0
 11 12  2  0  0  0  0
 12 13  1  0  0  0  0
 13 14  1  0  0  0  0
 15 13  2  0  0  0  0
 16 15  1  0  0  0  0
 17 23  2  0  0  0  0
 17  8  1  0  0  0  0
 18 17  1  0  0  0  0
 19 18  1  0  0  0  0
 19 21  2  0  0  0  0
 20 18  1  0  0  0  0
 21 23  1  0  0  0  0
 22 19  1  0  0  0  0
 23 24  1  0  0  0  0
 25 26  1  0  0  0  0
 25 22  2  0  0  0  0
 26 20  2  0  0  0  0
 27 28  1  0  0  0  0
 28 29  1  0  0  0  0
 29 31  1  0  0  0  0
 29 30  1  0  0  0  0
 32 29  1  0  0  0  0
M  END
>  <Pose>
1

>  <Score>
-7.457

$$$$
