MODEL 1
REMARK VINA RESULT:    -9.364      0.000      0.000
REMARK INTER + INTRA:         -11.925
REMARK INTER:                 -11.553
REMARK INTRA:                  -0.371
REMARK UNBOUND:                -0.371
REMARK  4 active torsions:
REMARK  status: ('A' for Active; 'I' for Inactive)
REMARK    1  A    between atoms: C_5  and  N_8 
REMARK       I    between atoms: N_8  and  C_9 
REMARK    2  A    between atoms: C_9  and  C_11 
REMARK    3  A    between atoms: C_11  and  N_12 
REMARK    4  A    between atoms: N_19  and  C_22 
ROOT
ATOM      1  N   UNK d   1     -19.987  -2.292 -31.575  0.00  0.00    -0.261 N 
ATOM      2  N   UNK d   1     -20.766  -3.371 -31.503  0.00  0.00    -0.239 N 
ATOM      3  N   UNK d   1     -21.014  -3.647 -30.243  0.00  0.00    -0.279 N 
ATOM      4  C   UNK d   1     -20.386  -2.728 -29.472  0.00  0.00     0.152 A 
ATOM      5  C   UNK d   1     -19.756  -1.898 -30.311  0.00  0.00     0.155 A 
ATOM      6  C   UNK d   1     -19.131  -0.982 -29.490  0.00  0.00     0.286 A 
ATOM      7  O   UNK d   1     -18.429  -0.029 -29.942  0.00  0.00    -0.265 OA
ATOM      8  N   UNK d   1     -19.362  -1.230 -28.192  0.00  0.00    -0.241 N 
ATOM      9  C   UNK d   1     -20.157  -2.337 -28.173  0.00  0.00     0.286 A 
ATOM     10  O   UNK d   1     -20.575  -2.860 -27.105  0.00  0.00    -0.265 OA
ATOM     11  H   UNK d   1     -21.103  -3.886 -32.343  0.00  0.00     0.208 HD
ATOM     12  H   UNK d   1     -21.592  -4.429 -29.846  0.00  0.00     0.189 HD
ENDROOT
BRANCH   1  13
ATOM     13  C   UNK d   1     -19.513  -1.704 -32.812  0.00  0.00     0.254 C 
BRANCH  13  14
ATOM     14  C   UNK d   1     -20.703  -1.126 -33.560  0.00  0.00     0.242 C 
ATOM     15  N   UNK d   1     -20.762  -1.217 -34.957  0.00  0.00    -0.326 N 
ATOM     16  H   UNK d   1     -19.955  -1.695 -35.470  0.00  0.00     0.169 HD
ATOM     17  O   UNK d   1     -21.614  -0.572 -32.911  0.00  0.00    -0.271 OA
BRANCH  15  18
ATOM     18  C   UNK d   1     -21.806  -0.733 -35.778  0.00  0.00     0.034 A 
ATOM     19  C   UNK d   1     -22.950  -1.427 -36.108  0.00  0.00     0.031 A 
ATOM     20  C   UNK d   1     -23.960  -0.895 -36.900  0.00  0.00     0.021 A 
ATOM     21  C   UNK d   1     -23.853   0.379 -37.397  0.00  0.00     0.011 A 
ATOM     22 Br   UNK d   1     -25.196   1.170 -38.485  0.00  0.00    -0.051 Br
ATOM     23  C   UNK d   1     -22.718   1.092 -37.081  0.00  0.00     0.021 A 
ATOM     24  C   UNK d   1     -21.731   0.569 -36.307  0.00  0.00     0.031 A 
ENDBRANCH  15  18
ENDBRANCH  13  14
ENDBRANCH   1  13
BRANCH   8  25
ATOM     25  C   UNK d   1     -18.895  -0.511 -27.041  0.00  0.00     0.046 A 
ATOM     26  C   UNK d   1     -18.419  -1.179 -25.933  0.00  0.00     0.031 A 
ATOM     27  C   UNK d   1     -17.958  -0.495 -24.826  0.00  0.00     0.009 A 
ATOM     28  C   UNK d   1     -17.950   0.887 -24.769  0.00  0.00    -0.062 A 
ATOM     29  C   UNK d   1     -18.425   1.558 -25.875  0.00  0.00     0.009 A 
ATOM     30  C   UNK d   1     -17.441   1.593 -23.562  0.00  0.00     0.048 C 
ATOM     31  C   UNK d   1     -18.886   0.866 -26.984  0.00  0.00     0.031 A 
ENDBRANCH   8  25
TORSDOF 4
ENDMDL
