MODEL 1
REMARK VINA RESULT:    -8.674      0.000      0.000
REMARK INTER + INTRA:         -11.043
REMARK INTER:                 -10.449
REMARK INTRA:                  -0.594
REMARK UNBOUND:                -0.594
REMARK  4 active torsions:
REMARK  status: ('A' for Active; 'I' for Inactive)
REMARK    1  A    between atoms: C_5  and  N_8 
REMARK       I    between atoms: N_8  and  C_9 
REMARK    2  A    between atoms: C_9  and  C_11 
REMARK    3  A    between atoms: C_18  and  N_23 
REMARK    4  A    between atoms: C_20  and  N_22 
ROOT
ATOM      1  C   UNK d   1     -20.078  -0.324 -33.646  0.00  0.00     0.127 C 
ATOM      2  C   UNK d   1     -18.819   0.422 -33.316  0.00  0.00     0.122 C 
ATOM      3  C   UNK d   1     -18.732   1.764 -33.905  0.00  0.00     0.224 C 
ATOM      4  O   UNK d   1     -18.088   2.645 -33.273  0.00  0.00    -0.273 OA
ATOM      5  N   UNK d   1     -19.362   2.042 -35.142  0.00  0.00    -0.310 N 
ATOM      6  C   UNK d   1     -20.337   1.158 -35.654  0.00  0.00     0.160 A 
ATOM      7  N   UNK d   1     -20.923   1.440 -36.859  0.00  0.00    -0.044 NA
ATOM      8  C   UNK d   1     -21.840   0.642 -37.407  0.00  0.00     0.728 A 
ATOM      9  N   UNK d   1     -22.183  -0.465 -36.736  0.00  0.00    -0.045 NA
ATOM     10  C   UNK d   1     -21.631  -0.792 -35.531  0.00  0.00     0.151 A 
ATOM     11  C   UNK d   1     -20.679   0.017 -34.942  0.00  0.00     0.048 A 
ATOM     12  H   UNK d   1     -19.122   2.907 -35.708  0.00  0.00     0.170 HD
ENDROOT
BRANCH   1  13
ATOM     13  C   UNK d   1     -21.039  -0.035 -32.473  0.00  0.00     0.231 C 
ATOM     14  N   UNK d   1     -20.714  -0.416 -31.249  0.00  0.00    -0.327 N 
ATOM     15  H   UNK d   1     -21.954  -0.065 -30.807  0.00  0.00     0.169 HD
ATOM     16  O   UNK d   1     -22.088   0.581 -32.917  0.00  0.00    -0.272 OA
BRANCH  14  17
ATOM     17  C   UNK d   1     -20.380  -0.811 -29.978  0.00  0.00     0.034 A 
ATOM     18  C   UNK d   1     -20.338  -2.222 -29.742  0.00  0.00     0.031 A 
ATOM     19  C   UNK d   1     -19.952  -2.728 -28.554  0.00  0.00     0.021 A 
ATOM     20  C   UNK d   1     -19.581  -1.914 -27.513  0.00  0.00     0.011 A 
ATOM     21 Br   UNK d   1     -19.027  -2.652 -25.829  0.00  0.00    -0.051 Br
ATOM     22  C   UNK d   1     -19.609  -0.549 -27.698  0.00  0.00     0.021 A 
ATOM     23  C   UNK d   1     -20.000  -0.032 -28.908  0.00  0.00     0.031 A 
ENDBRANCH  14  17
ENDBRANCH   1  13
BRANCH  10  24
ATOM     24  N   UNK d   1     -22.038  -1.974 -34.849  0.00  0.00    -0.383 N 
ATOM     25  H   UNK d   1     -23.009  -2.164 -34.584  0.00  0.00     0.157 HD
ATOM     26  H   UNK d   1     -21.304  -2.686 -34.600  0.00  0.00     0.157 HD
ENDBRANCH  10  24
BRANCH   8  27
ATOM     27  N   UNK d   1     -22.447   0.963 -38.680  0.00  0.00    -0.210 N 
ATOM     28  C   UNK d   1     -23.710   1.613 -38.650  0.00  0.00     0.167 C 
ATOM     29  C   UNK d   1     -24.077   2.311 -39.928  0.00  0.00     0.188 C 
ATOM     30  O   UNK d   1     -23.058   2.261 -40.873  0.00  0.00    -0.388 OA
ATOM     31  C   UNK d   1     -22.596   0.967 -41.067  0.00  0.00     0.188 C 
ATOM     32  C   UNK d   1     -21.730   0.607 -39.887  0.00  0.00     0.167 C 
ENDBRANCH   8  27
TORSDOF 4
ENDMDL
