MODEL 1
REMARK VINA RESULT:    -8.390      0.000      0.000
REMARK INTER + INTRA:         -12.001
REMARK INTER:                 -10.597
REMARK INTRA:                  -1.404
REMARK UNBOUND:                -1.404
REMARK  5 active torsions:
REMARK  status: ('A' for Active; 'I' for Inactive)
REMARK    1  A    between atoms: C_5  and  N_8 
REMARK    2  A    between atoms: C_9  and  C_11 
REMARK    3  A    between atoms: C_18  and  N_23 
REMARK    4  A    between atoms: C_20  and  O_22 
REMARK    5  A    between atoms: C_26  and  C_29 
REMARK       I    between atoms: C_29  and  N_31 
ROOT
ATOM      1  C   UNK d   1     -20.997  -0.317 -33.080  0.00  0.00     0.113 C 
ATOM      2  C   UNK d   1     -22.156  -0.508 -34.040  0.00  0.00     0.121 C 
ATOM      3  C   UNK d   1     -22.902   0.785 -34.118  0.00  0.00     0.224 C 
ATOM      4  O   UNK d   1     -24.114   0.815 -33.996  0.00  0.00    -0.273 OA
ATOM      5  N   UNK d   1     -22.134   1.937 -34.340  0.00  0.00    -0.310 N 
ATOM      6  C   UNK d   1     -20.754   1.957 -34.035  0.00  0.00     0.160 A 
ATOM      7  N   UNK d   1     -19.984   3.023 -34.334  0.00  0.00    -0.044 NA
ATOM      8  C   UNK d   1     -18.663   3.092 -34.167  0.00  0.00     0.729 A 
ATOM      9  N   UNK d   1     -18.089   1.973 -33.652  0.00  0.00    -0.038 NA
ATOM     10  C   UNK d   1     -18.802   0.865 -33.326  0.00  0.00     0.192 A 
ATOM     11  C   UNK d   1     -20.151   0.797 -33.492  0.00  0.00     0.054 A 
ATOM     12  H   UNK d   1     -22.537   2.826 -34.740  0.00  0.00     0.170 HD
ENDROOT
BRANCH   1  13
ATOM     13  C   UNK d   1     -20.372  -1.586 -32.621  0.00  0.00     0.165 C 
ATOM     14  N   UNK d   1     -20.258  -1.904 -31.317  0.00  0.00    -0.338 N 
ATOM     15  H   UNK d   1     -19.794  -3.125 -31.645  0.00  0.00     0.168 HD
ATOM     16  O   UNK d   1     -19.991  -2.286 -33.655  0.00  0.00    -0.176 OA
BRANCH  14  17
ATOM     17  C   UNK d   1     -20.140  -2.228 -29.988  0.00  0.00     0.033 A 
ATOM     18  C   UNK d   1     -19.398  -1.277 -29.216  0.00  0.00     0.031 A 
ATOM     19  C   UNK d   1     -19.181  -1.562 -27.910  0.00  0.00     0.021 A 
ATOM     20  C   UNK d   1     -19.638  -2.715 -27.295  0.00  0.00     0.011 A 
ATOM     21 Br   UNK d   1     -19.275  -3.011 -25.461  0.00  0.00    -0.051 Br
ATOM     22  C   UNK d   1     -20.346  -3.631 -28.018  0.00  0.00     0.021 A 
ATOM     23  C   UNK d   1     -20.580  -3.363 -29.348  0.00  0.00     0.031 A 
ENDBRANCH  14  17
ENDBRANCH   1  13
BRANCH  10  24
ATOM     24  O   UNK d   1     -18.133  -0.241 -32.806  0.00  0.00    -0.344 OA
ATOM     25  H   UNK d   1     -17.368  -0.696 -33.300  0.00  0.00     0.219 HD
ENDBRANCH  10  24
BRANCH   8  26
ATOM     26  N   UNK d   1     -17.885   4.241 -34.441  0.00  0.00    -0.214 N 
ATOM     27  C   UNK d   1     -17.610   4.802 -35.738  0.00  0.00     0.142 C 
ATOM     28  C   UNK d   1     -17.638   6.323 -35.618  0.00  0.00     0.034 C 
ATOM     29  C   UNK d   1     -18.566   6.789 -34.534  0.00  0.00     0.081 C 
ATOM     30  C   UNK d   1     -18.168   6.252 -33.204  0.00  0.00     0.034 C 
ATOM     31  C   UNK d   1     -17.296   4.981 -33.319  0.00  0.00     0.142 C 
BRANCH  29  32
ATOM     32  C   UNK d   1     -19.985   6.521 -34.866  0.00  0.00     0.219 C 
ATOM     33  O   UNK d   1     -20.374   6.799 -36.019  0.00  0.00    -0.273 OA
ATOM     34  N   UNK d   1     -20.918   5.979 -33.954  0.00  0.00    -0.370 N 
ATOM     35  H   UNK d   1     -20.660   5.265 -33.248  0.00  0.00     0.159 HD
ATOM     36  H   UNK d   1     -21.904   6.311 -33.992  0.00  0.00     0.159 HD
ENDBRANCH  29  32
ENDBRANCH   8  26
TORSDOF 5
ENDMDL
