/Users/jonathanwahrer/Desktop/Msc/3_Semester/Drug_Design_Praktikum/waehrer_HTS_screening/HTS_experiment/out/docking_results/vina_output/5l4q/0393_docked.pdbqt
 OpenBabel03212217593D

 27 30  0  0  0  0  0  0  0  0999 V2000
  -20.2800   -0.2600  -34.3120 N   0  0  0  0  0  0  0  0  0  0  0  0
  -19.2720   -0.1320  -35.1380 N   0  0  0  0  0  0  0  0  0  0  0  0
  -19.6350    0.4180  -36.3130 C   0  0  0  0  0  3  0  0  0  0  0  0
  -20.9790    0.6550  -36.2160 C   0  0  0  0  0  0  0  0  0  0  0  0
  -21.3590    0.2250  -34.9620 C   0  0  0  0  0  0  0  0  0  0  0  0
  -21.8070    1.2470  -37.2590 C   0  0  0  0  0  0  0  0  0  0  0  0
  -21.7840    2.4980  -37.3500 O   0  0  0  0  0  0  0  0  0  0  0  0
  -22.6070    0.4910  -38.1430 N   0  0  0  0  0  0  0  0  0  0  0  0
  -23.3910    1.1770  -39.1420 C   0  0  0  0  0  2  0  0  0  0  0  0
  -22.7180   -0.9500  -38.1380 C   0  0  0  0  0  2  0  0  0  0  0  0
  -22.8310    0.8280  -40.4880 C   0  0  0  0  0  2  0  0  0  0  0  0
  -22.0590   -0.4090  -40.4610 N   0  0  0  0  0  0  0  0  0  0  0  0
  -22.2490   -1.4090  -39.4660 C   0  0  0  0  0  0  0  0  0  0  0  0
  -21.3300   -0.5480  -41.2230 H   0  0  0  0  0  0  0  0  0  0  0  0
  -22.0190   -2.6130  -39.7390 O   0  0  0  0  0  0  0  0  0  0  0  0
  -22.6950    0.2760  -34.4120 N   0  0  0  0  0  0  0  0  0  0  0  0
  -23.6520   -0.6360  -34.4900 C   0  0  0  0  0  3  0  0  0  0  0  0
  -24.7820   -0.2080  -33.8330 C   0  0  0  0  0  3  0  0  0  0  0  0
  -24.4660    1.0350  -33.3400 C   0  0  0  0  0  3  0  0  0  0  0  0
  -23.1690    1.3160  -33.7080 C   0  0  0  0  0  3  0  0  0  0  0  0
  -20.2130   -0.8080  -32.9920 C   0  0  0  0  0  0  0  0  0  0  0  0
  -20.6080   -2.1030  -32.7160 C   0  0  0  0  0  3  0  0  0  0  0  0
  -20.5520   -2.6540  -31.4520 C   0  0  0  0  0  3  0  0  0  0  0  0
  -20.0860   -1.8990  -30.3970 C   0  0  0  0  0  0  0  0  0  0  0  0
  -20.0000   -2.6390  -28.6360 Br  0  0  0  0  0  0  0  0  0  0  0  0
  -19.6880   -0.5990  -30.6540 C   0  0  0  0  0  3  0  0  0  0  0  0
  -19.7490   -0.0620  -31.9240 C   0  0  0  0  0  3  0  0  0  0  0  0
  1 21  1  0  0  0  0
  2  1  1  0  0  0  0
  3  4  1  0  0  0  0
  3  2  2  0  0  0  0
  4  5  2  0  0  0  0
  5 16  1  0  0  0  0
  5  1  1  0  0  0  0
  6  4  1  0  0  0  0
  7  6  2  0  0  0  0
  8 10  1  0  0  0  0
  8  6  1  0  0  0  0
  9  8  1  0  0  0  0
 11 12  1  0  0  0  0
 11  9  1  0  0  0  0
 12 13  1  0  0  0  0
 13 10  1  0  0  0  0
 14 12  1  0  0  0  0
 15 13  2  0  0  0  0
 16 20  1  0  0  0  0
 17 16  1  0  0  0  0
 17 18  2  0  0  0  0
 18 19  1  0  0  0  0
 20 19  2  0  0  0  0
 21 22  2  0  0  0  0
 21 27  1  0  0  0  0
 22 23  1  0  0  0  0
 23 24  2  0  0  0  0
 24 25  1  0  0  0  0
 26 24  1  0  0  0  0
 27 26  2  0  0  0  0
M  END
>  <Pose>
1

>  <Score>
-7.504

$$$$
