MODEL 1
REMARK VINA RESULT:    -7.504      0.000      0.000
REMARK INTER + INTRA:         -10.042
REMARK INTER:                  -8.820
REMARK INTRA:                  -1.222
REMARK UNBOUND:                -1.222
REMARK  3 active torsions:
REMARK  status: ('A' for Active; 'I' for Inactive)
REMARK    1  A    between atoms: C_5  and  N_8 
REMARK    2  A    between atoms: C_11  and  C_18 
REMARK    3  A    between atoms: C_12  and  N_13 
REMARK       I    between atoms: C_18  and  N_20 
ROOT
ATOM      1  N   UNK d   1     -20.280  -0.260 -34.312  0.00  0.00    -0.216 N 
ATOM      2  N   UNK d   1     -19.272  -0.132 -35.138  0.00  0.00    -0.177 NA
ATOM      3  C   UNK d   1     -19.635   0.418 -36.313  0.00  0.00     0.160 A 
ATOM      4  C   UNK d   1     -20.979   0.655 -36.216  0.00  0.00     0.097 A 
ATOM      5  C   UNK d   1     -21.359   0.225 -34.962  0.00  0.00     0.153 A 
ENDROOT
BRANCH   4   6
ATOM      6  C   UNK d   1     -21.807   1.247 -37.259  0.00  0.00     0.259 C 
ATOM      7  O   UNK d   1     -21.784   2.498 -37.350  0.00  0.00    -0.267 OA
ATOM      8  N   UNK d   1     -22.607   0.491 -38.143  0.00  0.00    -0.338 N 
ATOM      9  C   UNK d   1     -23.391   1.177 -39.142  0.00  0.00     0.146 C 
ATOM     10  C   UNK d   1     -22.718  -0.950 -38.138  0.00  0.00     0.228 C 
ATOM     11  C   UNK d   1     -22.831   0.828 -40.488  0.00  0.00     0.142 C 
ATOM     12  N   UNK d   1     -22.059  -0.409 -40.461  0.00  0.00    -0.358 N 
ATOM     13  C   UNK d   1     -22.249  -1.409 -39.466  0.00  0.00     0.235 C 
ATOM     14  H   UNK d   1     -21.330  -0.548 -41.223  0.00  0.00     0.162 HD
ATOM     15  O   UNK d   1     -22.019  -2.613 -39.739  0.00  0.00    -0.272 OA
ENDBRANCH   4   6
BRANCH   5  16
ATOM     16  N   UNK d   1     -22.695   0.276 -34.412  0.00  0.00    -0.317 N 
ATOM     17  C   UNK d   1     -23.652  -0.636 -34.490  0.00  0.00     0.098 A 
ATOM     18  C   UNK d   1     -24.782  -0.208 -33.833  0.00  0.00     0.019 A 
ATOM     19  C   UNK d   1     -24.466   1.035 -33.340  0.00  0.00     0.019 A 
ATOM     20  C   UNK d   1     -23.169   1.316 -33.708  0.00  0.00     0.098 A 
ENDBRANCH   5  16
BRANCH   1  21
ATOM     21  C   UNK d   1     -20.213  -0.808 -32.992  0.00  0.00     0.060 A 
ATOM     22  C   UNK d   1     -20.608  -2.103 -32.716  0.00  0.00     0.033 A 
ATOM     23  C   UNK d   1     -20.552  -2.654 -31.452  0.00  0.00     0.021 A 
ATOM     24  C   UNK d   1     -20.086  -1.899 -30.397  0.00  0.00     0.011 A 
ATOM     25 Br   UNK d   1     -20.000  -2.639 -28.636  0.00  0.00    -0.051 Br
ATOM     26  C   UNK d   1     -19.688  -0.599 -30.654  0.00  0.00     0.021 A 
ATOM     27  C   UNK d   1     -19.749  -0.062 -31.924  0.00  0.00     0.033 A 
ENDBRANCH   1  21
TORSDOF 3
ENDMDL
