MODEL 1
REMARK VINA RESULT:    -9.460      0.000      0.000
REMARK INTER + INTRA:         -11.329
REMARK INTER:                 -11.119
REMARK INTRA:                  -0.209
REMARK UNBOUND:                -0.209
REMARK  3 active torsions:
REMARK  status: ('A' for Active; 'I' for Inactive)
REMARK    1  A    between atoms: C_5  and  N_8 
REMARK    2  A    between atoms: N_15  and  C_18 
REMARK    3  A    between atoms: C_18  and  C_19 
REMARK       I    between atoms: C_19  and  N_21 
ROOT
ATOM      1  N   UNK d   1     -20.701  -2.469 -31.450  0.00  0.00    -0.218 N 
ATOM      2  N   UNK d   1     -20.899  -3.709 -31.864  0.00  0.00     0.012 NA
ATOM      3  N   UNK d   1     -21.544  -3.735 -33.018  0.00  0.00    -0.150 NA
ATOM      4  C   UNK d   1     -21.796  -2.455 -33.404  0.00  0.00     0.190 A 
ATOM      5  C   UNK d   1     -21.251  -1.684 -32.393  0.00  0.00     0.185 A 
ATOM      6  N   UNK d   1     -21.357  -0.357 -32.517  0.00  0.00    -0.222 NA
ATOM      7  C   UNK d   1     -21.969   0.189 -33.583  0.00  0.00     0.215 A 
ATOM      8  N   UNK d   1     -22.504  -0.557 -34.575  0.00  0.00    -0.298 N 
ATOM      9  C   UNK d   1     -22.420  -1.891 -34.490  0.00  0.00     0.283 A 
ATOM     10  O   UNK d   1     -22.915  -2.584 -35.406  0.00  0.00    -0.265 OA
ENDROOT
BRANCH   8  11
ATOM     11  C   UNK d   1     -23.146   0.124 -35.685  0.00  0.00     0.236 C 
BRANCH  11  12
ATOM     12  C   UNK d   1     -22.145   0.384 -36.782  0.00  0.00     0.238 C 
ATOM     13  O   UNK d   1     -21.262   1.273 -36.647  0.00  0.00    -0.272 OA
ATOM     14  N   UNK d   1     -22.177  -0.361 -37.984  0.00  0.00    -0.346 N 
ATOM     15  C   UNK d   1     -21.226  -0.119 -39.042  0.00  0.00     0.157 C 
ATOM     16  C   UNK d   1     -23.176  -1.387 -38.178  0.00  0.00     0.157 C 
ATOM     17  C   UNK d   1     -22.009  -0.094 -40.343  0.00  0.00     0.136 C 
ATOM     18  O   UNK d   1     -22.760  -1.222 -40.554  0.00  0.00    -0.378 OA
ATOM     19  C   UNK d   1     -20.968  -0.031 -41.465  0.00  0.00     0.041 C 
ATOM     20  C   UNK d   1     -22.833  -2.077 -39.482  0.00  0.00     0.136 C 
ATOM     21  C   UNK d   1     -23.765  -3.233 -39.701  0.00  0.00     0.041 C 
ENDBRANCH  11  12
ENDBRANCH   8  11
BRANCH   1  22
ATOM     22  C   UNK d   1     -20.046  -2.030 -30.257  0.00  0.00     0.057 A 
ATOM     23  C   UNK d   1     -20.336  -2.624 -29.047  0.00  0.00     0.032 A 
ATOM     24  C   UNK d   1     -19.704  -2.203 -27.886  0.00  0.00     0.021 A 
ATOM     25  C   UNK d   1     -18.771  -1.188 -27.888  0.00  0.00     0.011 A 
ATOM     26 Br   UNK d   1     -17.912  -0.625 -26.271  0.00  0.00    -0.051 Br
ATOM     27  C   UNK d   1     -18.481  -0.594 -29.098  0.00  0.00     0.021 A 
ATOM     28  C   UNK d   1     -19.111  -1.014 -30.251  0.00  0.00     0.032 A 
ENDBRANCH   1  22
TORSDOF 3
ENDMDL
