/Users/jonathanwahrer/Desktop/Msc/3_Semester/Drug_Design_Praktikum/waehrer_HTS_screening/HTS_experiment/out/docking_results/vina_output/5l4q/0395_docked.pdbqt
 OpenBabel03212217593D

 28 31  0  0  1  0  0  0  0  0999 V2000
  -20.7010   -2.4690  -31.4500 N   0  0  0  0  0  0  0  0  0  0  0  0
  -20.8990   -3.7090  -31.8640 N   0  0  0  0  0  0  0  0  0  0  0  0
  -21.5440   -3.7350  -33.0180 N   0  0  0  0  0  0  0  0  0  0  0  0
  -21.7960   -2.4550  -33.4040 C   0  0  0  0  0  0  0  0  0  0  0  0
  -21.2510   -1.6840  -32.3930 C   0  0  0  0  0  0  0  0  0  0  0  0
  -21.3570   -0.3570  -32.5170 N   0  0  0  0  0  0  0  0  0  0  0  0
  -21.9690    0.1890  -33.5830 C   0  0  0  0  0  3  0  0  0  0  0  0
  -22.5040   -0.5570  -34.5750 N   0  0  0  0  0  0  0  0  0  0  0  0
  -22.4200   -1.8910  -34.4900 C   0  0  0  0  0  0  0  0  0  0  0  0
  -22.9150   -2.5840  -35.4060 O   0  0  0  0  0  0  0  0  0  0  0  0
  -23.1460    0.1240  -35.6850 C   0  0  0  0  0  2  0  0  0  0  0  0
  -22.1450    0.3840  -36.7820 C   0  0  0  0  0  0  0  0  0  0  0  0
  -21.2620    1.2730  -36.6470 O   0  0  0  0  0  0  0  0  0  0  0  0
  -22.1770   -0.3610  -37.9840 N   0  0  0  0  0  0  0  0  0  0  0  0
  -21.2260   -0.1190  -39.0420 C   0  0  0  0  0  2  0  0  0  0  0  0
  -23.1760   -1.3870  -38.1780 C   0  0  0  0  0  2  0  0  0  0  0  0
  -22.0090   -0.0940  -40.3430 C   0  0  2  0  0  3  0  0  0  0  0  0
  -22.7600   -1.2220  -40.5540 O   0  0  0  0  0  0  0  0  0  0  0  0
  -20.9680   -0.0310  -41.4650 C   0  0  0  0  0  1  0  0  0  0  0  0
  -22.8330   -2.0770  -39.4820 C   0  0  2  0  0  3  0  0  0  0  0  0
  -23.7650   -3.2330  -39.7010 C   0  0  0  0  0  1  0  0  0  0  0  0
  -20.0460   -2.0300  -30.2570 C   0  0  0  0  0  0  0  0  0  0  0  0
  -20.3360   -2.6240  -29.0470 C   0  0  0  0  0  3  0  0  0  0  0  0
  -19.7040   -2.2030  -27.8860 C   0  0  0  0  0  3  0  0  0  0  0  0
  -18.7710   -1.1880  -27.8880 C   0  0  0  0  0  0  0  0  0  0  0  0
  -17.9120   -0.6250  -26.2710 Br  0  0  0  0  0  0  0  0  0  0  0  0
  -18.4810   -0.5940  -29.0980 C   0  0  0  0  0  3  0  0  0  0  0  0
  -19.1110   -1.0140  -30.2510 C   0  0  0  0  0  3  0  0  0  0  0  0
  1 22  1  0  0  0  0
  2  1  1  0  0  0  0
  3  2  2  0  0  0  0
  4  3  1  0  0  0  0
  4  5  2  0  0  0  0
  5  1  1  0  0  0  0
  6  5  1  0  0  0  0
  7  6  2  0  0  0  0
  8  9  1  0  0  0  0
  8  7  1  0  0  0  0
  9  4  1  0  0  0  0
 10  9  2  0  0  0  0
 11  8  1  0  0  0  0
 12 13  2  0  0  0  0
 12 11  1  0  0  0  0
 14 12  1  0  0  0  0
 15 14  1  0  0  0  0
 16 14  1  0  0  0  0
 17 19  1  6  0  0  0
 17 15  1  0  0  0  0
 18 17  1  0  0  0  0
 18 20  1  0  0  0  0
 20 21  1  6  0  0  0
 20 16  1  0  0  0  0
 22 28  2  0  0  0  0
 22 23  1  0  0  0  0
 23 24  2  0  0  0  0
 25 24  1  0  0  0  0
 25 26  1  0  0  0  0
 27 25  2  0  0  0  0
 28 27  1  0  0  0  0
M  END
>  <Pose>
1

>  <Score>
-9.460

$$$$
