MODEL 1
REMARK VINA RESULT:    -8.877      0.000      0.000
REMARK INTER + INTRA:         -10.902
REMARK INTER:                 -10.434
REMARK INTRA:                  -0.468
REMARK UNBOUND:                -0.468
REMARK  3 active torsions:
REMARK  status: ('A' for Active; 'I' for Inactive)
REMARK    1  A    between atoms: C_5  and  N_8 
REMARK    2  A    between atoms: C_11  and  N_15 
REMARK    3  A    between atoms: N_18  and  C_21 
ROOT
ATOM      1  N   UNK d   1     -18.946  -0.433 -26.992  0.00  0.00    -0.251 N 
ATOM      2  C   UNK d   1     -19.968  -0.430 -27.983  0.00  0.00     0.262 C 
ATOM      3  O   UNK d   1     -20.560   0.589 -28.399  0.00  0.00    -0.270 OA
ATOM      4  C   UNK d   1     -20.249  -1.791 -28.464  0.00  0.00     0.289 C 
ATOM      5  C   UNK d   1     -19.770  -2.646 -27.296  0.00  0.00     0.146 C 
ATOM      6  C   UNK d   1     -18.660  -1.819 -26.725  0.00  0.00     0.233 C 
ATOM      7  O   UNK d   1     -17.699  -2.351 -26.138  0.00  0.00    -0.273 OA
ENDROOT
BRANCH   4   8
ATOM      8  N   UNK d   1     -19.561  -2.169 -29.678  0.00  0.00    -0.055 N 
ATOM      9  C   UNK d   1     -20.116  -3.359 -30.277  0.00  0.00     0.255 C 
ATOM     10  C   UNK d   1     -21.091  -3.094 -31.403  0.00  0.00     0.150 C 
ATOM     11  N   UNK d   1     -20.637  -2.020 -32.249  0.00  0.00    -0.378 N 
ATOM     12  C   UNK d   1     -19.277  -1.600 -32.004  0.00  0.00     0.150 C 
ATOM     13  C   UNK d   1     -19.302  -1.084 -30.553  0.00  0.00     0.255 C 
ATOM     14  H   UNK d   1     -18.597  -2.494 -29.326  0.00  0.00     0.281 HD
BRANCH  11  15
ATOM     15  C   UNK d   1     -21.431  -1.403 -33.221  0.00  0.00     0.030 A 
ATOM     16  C   UNK d   1     -21.549  -0.041 -33.412  0.00  0.00     0.032 A 
ATOM     17  C   UNK d   1     -22.371   0.519 -34.377  0.00  0.00     0.042 A 
ATOM     18  C   UNK d   1     -23.116  -0.287 -35.196  0.00  0.00     0.107 A 
ATOM     19  C   UNK d   1     -23.036  -1.657 -35.048  0.00  0.00     0.042 A 
ATOM     20  O   UNK d   1     -23.962   0.213 -36.187  0.00  0.00    -0.192 OA
ATOM     21  C   UNK d   1     -22.208  -2.192 -34.078  0.00  0.00     0.032 A 
ENDBRANCH  11  15
ENDBRANCH   4   8
BRANCH   1  22
ATOM     22  C   UNK d   1     -18.298   0.675 -26.363  0.00  0.00     0.045 A 
ATOM     23  C   UNK d   1     -17.612   1.608 -27.086  0.00  0.00     0.031 A 
ATOM     24  C   UNK d   1     -16.979   2.690 -26.466  0.00  0.00     0.021 A 
ATOM     25  C   UNK d   1     -17.022   2.859 -25.109  0.00  0.00     0.011 A 
ATOM     26 Br   UNK d   1     -16.158   4.337 -24.251  0.00  0.00    -0.051 Br
ATOM     27  C   UNK d   1     -17.713   1.922 -24.376  0.00  0.00     0.021 A 
ATOM     28  C   UNK d   1     -18.345   0.840 -25.009  0.00  0.00     0.031 A 
ENDBRANCH   1  22
TORSDOF 3
ENDMDL
