MODEL 1
REMARK VINA RESULT:    -7.830      0.000      0.000
REMARK INTER + INTRA:         -11.051
REMARK INTER:                  -9.661
REMARK INTRA:                  -1.390
REMARK UNBOUND:                -1.390
REMARK  4 active torsions:
REMARK  status: ('A' for Active; 'I' for Inactive)
REMARK    1  A    between atoms: C_5  and  N_8 
REMARK    2  A    between atoms: C_11  and  N_15 
REMARK    3  A    between atoms: C_18  and  N_21 
REMARK    4  A    between atoms: C_18  and  C_27 
REMARK       I    between atoms: C_27  and  N_29 
ROOT
ATOM      1  N   UNK d   1     -20.463   2.429 -37.058  0.00  0.00    -0.399 N 
ATOM      2  C   UNK d   1     -21.751   1.931 -36.785  0.00  0.00     0.120 C 
ATOM      3  C   UNK d   1     -22.640   2.176 -38.012  0.00  0.00     0.060 C 
ATOM      4  C   UNK d   1     -22.193   1.335 -39.187  0.00  0.00     0.112 C 
ATOM      5  C   UNK d   1     -20.719   1.325 -39.256  0.00  0.00     0.060 C 
ATOM      6  C   UNK d   1     -20.105   2.423 -38.426  0.00  0.00     0.120 C 
ENDROOT
BRANCH   1   7
ATOM      7  C   UNK d   1     -19.429   2.217 -36.128  0.00  0.00     0.181 C 
ATOM      8  C   UNK d   1     -19.307   0.765 -35.838  0.00  0.00     0.254 C 
ATOM      9  N   UNK d   1     -19.731   0.555 -34.487  0.00  0.00    -0.251 N 
ATOM     10  O   UNK d   1     -18.901  -0.095 -36.657  0.00  0.00    -0.270 OA
ATOM     11  C   UNK d   1     -19.496   1.792 -33.827  0.00  0.00     0.233 C 
ATOM     12  C   UNK d   1     -19.639   2.908 -34.799  0.00  0.00     0.138 C 
ATOM     13  O   UNK d   1     -19.208   1.905 -32.583  0.00  0.00    -0.273 OA
BRANCH   9  14
ATOM     14  C   UNK d   1     -20.271  -0.649 -33.937  0.00  0.00     0.045 A 
ATOM     15  C   UNK d   1     -21.403  -1.200 -34.476  0.00  0.00     0.031 A 
ATOM     16  C   UNK d   1     -21.946  -2.380 -33.952  0.00  0.00     0.021 A 
ATOM     17  C   UNK d   1     -21.371  -3.029 -32.884  0.00  0.00     0.011 A 
ATOM     18 Br   UNK d   1     -22.104  -4.641 -32.160  0.00  0.00    -0.051 Br
ATOM     19  C   UNK d   1     -20.232  -2.475 -32.341  0.00  0.00     0.021 A 
ATOM     20  C   UNK d   1     -19.704  -1.308 -32.869  0.00  0.00     0.031 A 
ENDBRANCH   9  14
ENDBRANCH   1   7
BRANCH   4  21
ATOM     21  N   UNK d   1     -22.834   0.088 -39.111  0.00  0.00    -0.396 N 
ATOM     22  C   UNK d   1     -24.100   0.013 -38.512  0.00  0.00     0.118 C 
ATOM     23  C   UNK d   1     -24.002  -1.043 -37.397  0.00  0.00     0.019 C 
ATOM     24  C   UNK d   1     -23.745  -2.360 -38.101  0.00  0.00     0.003 C 
ATOM     25  C   UNK d   1     -23.281  -2.201 -39.511  0.00  0.00     0.019 C 
ATOM     26  C   UNK d   1     -22.285  -1.044 -39.683  0.00  0.00     0.118 C 
ENDBRANCH   4  21
BRANCH   4  27
ATOM     27  C   UNK d   1     -22.717   2.045 -40.407  0.00  0.00     0.243 C 
ATOM     28  O   UNK d   1     -22.125   1.909 -41.520  0.00  0.00    -0.271 OA
ATOM     29  N   UNK d   1     -23.863   2.876 -40.380  0.00  0.00    -0.368 N 
ATOM     30  H   UNK d   1     -23.773   3.874 -40.605  0.00  0.00     0.159 HD
ATOM     31  H   UNK d   1     -24.796   2.491 -40.137  0.00  0.00     0.159 HD
ENDBRANCH   4  27
TORSDOF 4
ENDMDL
