/Users/jonathanwahrer/Desktop/Msc/3_Semester/Drug_Design_Praktikum/waehrer_HTS_screening/HTS_experiment/out/docking_results/vina_output/5l4q/0400_docked.pdbqt
 OpenBabel03212218003D

 31 34  0  0  1  0  0  0  0  0999 V2000
  -20.4630    2.4290  -37.0580 N   0  0  2  0  0  0  0  0  0  0  0  0
  -21.7510    1.9310  -36.7850 C   0  0  0  0  0  2  0  0  0  0  0  0
  -22.6400    2.1760  -38.0120 C   0  0  0  0  0  2  0  0  0  0  0  0
  -22.1930    1.3350  -39.1870 C   0  0  1  0  0  0  0  0  0  0  0  0
  -20.7190    1.3250  -39.2560 C   0  0  0  0  0  2  0  0  0  0  0  0
  -20.1050    2.4230  -38.4260 C   0  0  0  0  0  2  0  0  0  0  0  0
  -19.4290    2.2170  -36.1280 C   0  0  2  0  0  3  0  0  0  0  0  0
  -19.3070    0.7650  -35.8380 C   0  0  0  0  0  0  0  0  0  0  0  0
  -19.7310    0.5550  -34.4870 N   0  0  0  0  0  0  0  0  0  0  0  0
  -18.9010   -0.0950  -36.6570 O   0  0  0  0  0  0  0  0  0  0  0  0
  -19.4960    1.7920  -33.8270 C   0  0  0  0  0  0  0  0  0  0  0  0
  -19.6390    2.9080  -34.7990 C   0  0  0  0  0  2  0  0  0  0  0  0
  -19.2080    1.9050  -32.5830 O   0  0  0  0  0  0  0  0  0  0  0  0
  -20.2710   -0.6490  -33.9370 C   0  0  0  0  0  0  0  0  0  0  0  0
  -21.4030   -1.2000  -34.4760 C   0  0  0  0  0  3  0  0  0  0  0  0
  -21.9460   -2.3800  -33.9520 C   0  0  0  0  0  3  0  0  0  0  0  0
  -21.3710   -3.0290  -32.8840 C   0  0  0  0  0  0  0  0  0  0  0  0
  -22.1040   -4.6410  -32.1600 Br  0  0  0  0  0  0  0  0  0  0  0  0
  -20.2320   -2.4750  -32.3410 C   0  0  0  0  0  3  0  0  0  0  0  0
  -19.7040   -1.3080  -32.8690 C   0  0  0  0  0  3  0  0  0  0  0  0
  -22.8340    0.0880  -39.1110 N   0  0  0  0  0  0  0  0  0  0  0  0
  -24.1000    0.0130  -38.5120 C   0  0  0  0  0  2  0  0  0  0  0  0
  -24.0020   -1.0430  -37.3970 C   0  0  0  0  0  2  0  0  0  0  0  0
  -23.7450   -2.3600  -38.1010 C   0  0  0  0  0  2  0  0  0  0  0  0
  -23.2810   -2.2010  -39.5110 C   0  0  0  0  0  2  0  0  0  0  0  0
  -22.2850   -1.0440  -39.6830 C   0  0  0  0  0  2  0  0  0  0  0  0
  -22.7170    2.0450  -40.4070 C   0  0  0  0  0  0  0  0  0  0  0  0
  -22.1250    1.9090  -41.5200 O   0  0  0  0  0  0  0  0  0  0  0  0
  -23.8630    2.8760  -40.3800 N   0  0  0  0  0  0  0  0  0  0  0  0
  -23.7730    3.8740  -40.6050 H   0  0  0  0  0  0  0  0  0  0  0  0
  -24.7960    2.4910  -40.1370 H   0  0  0  0  0  0  0  0  0  0  0  0
  1  6  1  6  0  0  0
  1  2  1  0  0  0  0
  1  7  1  0  0  0  0
  3  2  1  0  0  0  0
  4 27  1  6  0  0  0
  4 21  1  0  0  0  0
  4  3  1  0  0  0  0
  5  4  1  0  0  0  0
  5  6  1  0  0  0  0
  7  8  1  0  0  0  0
  7 12  1  1  0  0  0
  8  9  1  0  0  0  0
  9 14  1  0  0  0  0
  9 11  1  0  0  0  0
 10  8  2  0  0  0  0
 11 13  2  0  0  0  0
 12 11  1  0  0  0  0
 14 20  1  0  0  0  0
 15 16  1  0  0  0  0
 15 14  2  0  0  0  0
 16 17  2  0  0  0  0
 17 19  1  0  0  0  0
 17 18  1  0  0  0  0
 20 19  2  0  0  0  0
 21 22  1  0  0  0  0
 22 23  1  0  0  0  0
 24 23  1  0  0  0  0
 25 24  1  0  0  0  0
 26 25  1  0  0  0  0
 26 21  1  0  0  0  0
 27 29  1  0  0  0  0
 28 27  2  0  0  0  0
 29 31  1  0  0  0  0
 30 29  1  0  0  0  0
M  END
>  <Pose>
1

>  <Score>
-7.830

$$$$
