MODEL 1
REMARK VINA RESULT:    -9.015      0.000      0.000
REMARK INTER + INTRA:         -12.064
REMARK INTER:                 -11.123
REMARK INTRA:                  -0.940
REMARK UNBOUND:                -0.940
REMARK  4 active torsions:
REMARK  status: ('A' for Active; 'I' for Inactive)
REMARK    1  A    between atoms: C_5  and  N_8 
REMARK    2  A    between atoms: N_15  and  C_16 
REMARK    3  A    between atoms: C_16  and  C_17 
REMARK       I    between atoms: C_17  and  N_19 
REMARK    4  A    between atoms: N_19  and  C_20 
ROOT
ATOM      1  N   UNK d   1     -22.267  -0.317 -36.184  0.00  0.00    -0.241 N 
ATOM      2  C   UNK d   1     -21.571   0.150 -35.133  0.00  0.00     0.286 A 
ATOM      3  O   UNK d   1     -21.041   1.303 -35.095  0.00  0.00    -0.265 OA
ATOM      4  C   UNK d   1     -21.516  -0.796 -34.109  0.00  0.00     0.155 A 
ATOM      5  C   UNK d   1     -22.194  -1.846 -34.562  0.00  0.00     0.152 A 
ATOM      6  N   UNK d   1     -22.128  -2.744 -33.562  0.00  0.00    -0.279 N 
ATOM      7  N   UNK d   1     -21.437  -2.251 -32.547  0.00  0.00    -0.239 N 
ATOM      8  N   UNK d   1     -21.053  -1.042 -32.877  0.00  0.00    -0.261 N 
ATOM      9  C   UNK d   1     -22.657  -1.562 -35.831  0.00  0.00     0.286 A 
ATOM     10  O   UNK d   1     -23.334  -2.308 -36.572  0.00  0.00    -0.265 OA
ATOM     11  H   UNK d   1     -22.586  -3.687 -33.643  0.00  0.00     0.189 HD
ATOM     12  H   UNK d   1     -21.263  -2.783 -31.663  0.00  0.00     0.208 HD
ENDROOT
BRANCH   8  13
ATOM     13  C   UNK d   1     -20.276  -0.125 -32.083  0.00  0.00     0.254 C 
BRANCH  13  14
ATOM     14  C   UNK d   1     -19.724  -0.781 -30.850  0.00  0.00     0.242 C 
ATOM     15  O   UNK d   1     -18.710  -1.491 -31.051  0.00  0.00    -0.271 OA
ATOM     16  N   UNK d   1     -20.298  -0.611 -29.587  0.00  0.00    -0.325 N 
ATOM     17  H   UNK d   1     -21.163   0.027 -29.576  0.00  0.00     0.169 HD
BRANCH  16  18
ATOM     18  C   UNK d   1     -19.868  -1.172 -28.379  0.00  0.00     0.040 A 
ATOM     19  C   UNK d   1     -19.176  -0.332 -27.492  0.00  0.00    -0.035 A 
ATOM     20  C   UNK d   1     -18.737  -0.841 -26.295  0.00  0.00     0.009 A 
ATOM     21  C   UNK d   1     -18.911   1.082 -27.820  0.00  0.00     0.050 C 
ATOM     22  C   UNK d   1     -18.945  -2.150 -25.916  0.00  0.00     0.001 A 
ATOM     23  C   UNK d   1     -19.616  -2.971 -26.773  0.00  0.00     0.002 A 
ATOM     24  C   UNK d   1     -20.062  -2.471 -27.978  0.00  0.00     0.030 A 
ENDBRANCH  16  18
ENDBRANCH  13  14
ENDBRANCH   8  13
BRANCH   1  25
ATOM     25  C   UNK d   1     -22.538   0.355 -37.411  0.00  0.00     0.046 A 
ATOM     26  C   UNK d   1     -21.588   0.393 -38.417  0.00  0.00     0.031 A 
ATOM     27  C   UNK d   1     -21.828   1.039 -39.615  0.00  0.00     0.021 A 
ATOM     28  C   UNK d   1     -23.028   1.673 -39.854  0.00  0.00     0.011 A 
ATOM     29 Br   UNK d   1     -23.360   2.570 -41.520  0.00  0.00    -0.051 Br
ATOM     30  C   UNK d   1     -23.980   1.643 -38.860  0.00  0.00     0.021 A 
ATOM     31  C   UNK d   1     -23.732   0.997 -37.671  0.00  0.00     0.031 A 
ENDBRANCH   1  25
TORSDOF 4
ENDMDL
