/Users/jonathanwahrer/Desktop/Msc/3_Semester/Drug_Design_Praktikum/waehrer_HTS_screening/HTS_experiment/out/docking_results/vina_output/5l4q/0412_docked.pdbqt
 OpenBabel03212218013D

 34 37  0  0  0  0  0  0  0  0999 V2000
  -19.6520   -1.3730  -29.0260 N   0  0  0  0  0  0  0  0  0  0  0  0
  -19.5710   -1.0080  -30.3080 C   0  0  0  0  0  0  0  0  0  0  0  0
  -19.0100    0.0640  -30.7120 O   0  0  0  0  0  0  0  0  0  0  0  0
  -20.1580   -1.9050  -31.1700 C   0  0  0  0  0  0  0  0  0  0  0  0
  -20.6250   -2.8770  -30.3630 C   0  0  0  0  0  0  0  0  0  0  0  0
  -21.2100   -3.7770  -31.1900 N   0  0  0  0  0  0  0  0  0  0  0  0
  -21.1050   -3.3760  -32.4440 N   0  0  0  0  0  0  0  0  0  0  0  0
  -20.4590   -2.2280  -32.4380 N   0  0  0  0  0  0  0  0  0  0  0  0
  -20.3240   -2.5650  -29.0580 C   0  0  0  0  0  0  0  0  0  0  0  0
  -20.5890   -3.2160  -28.0180 O   0  0  0  0  0  0  0  0  0  0  0  0
  -21.6740   -4.6540  -30.8560 H   0  0  0  0  0  0  0  0  0  0  0  0
  -21.4930   -3.9240  -33.2580 H   0  0  0  0  0  0  0  0  0  0  0  0
  -20.1380   -1.4640  -33.6090 C   0  0  0  0  0  2  0  0  0  0  0  0
  -21.2940   -1.1570  -34.4480 C   0  0  0  0  0  0  0  0  0  0  0  0
  -22.4830   -1.2240  -34.0200 O   0  0  0  0  0  0  0  0  0  0  0  0
  -21.0620   -0.7780  -35.7900 N   0  0  0  0  0  0  0  0  0  0  0  0
  -20.0690   -0.7210  -36.1730 H   0  0  0  0  0  0  0  0  0  0  0  0
  -22.1720   -0.4770  -36.6190 C   0  0  0  0  0  0  0  0  0  0  0  0
  -22.9900   -1.5270  -36.9550 C   0  0  0  0  0  3  0  0  0  0  0  0
  -24.0900   -1.3180  -37.7950 C   0  0  0  0  0  0  0  0  0  0  0  0
  -24.3480   -0.0640  -38.2820 C   0  0  0  0  0  3  0  0  0  0  0  0
  -23.5260    1.0110  -37.9510 C   0  0  0  0  0  0  0  0  0  0  0  0
  -22.4460    0.7710  -37.1150 C   0  0  0  0  0  3  0  0  0  0  0  0
  -24.8410   -2.4380  -38.0620 O   0  0  0  0  0  0  0  0  0  0  0  0
  -24.4470   -3.4660  -38.8960 C   0  0  0  0  0  1  0  0  0  0  0  0
  -23.8440    2.2440  -38.4820 O   0  0  0  0  0  0  0  0  0  0  0  0
  -23.7220    2.6440  -39.8110 C   0  0  0  0  0  1  0  0  0  0  0  0
  -19.1660   -0.7170  -27.8510 C   0  0  0  0  0  0  0  0  0  0  0  0
  -19.3180    0.6380  -27.6870 C   0  0  0  0  0  3  0  0  0  0  0  0
  -18.8400    1.2750  -26.5310 C   0  0  0  0  0  3  0  0  0  0  0  0
  -18.2110    0.5630  -25.5390 C   0  0  0  0  0  0  0  0  0  0  0  0
  -17.5570    1.4340  -23.9480 Br  0  0  0  0  0  0  0  0  0  0  0  0
  -18.0600   -0.7940  -25.7060 C   0  0  0  0  0  3  0  0  0  0  0  0
  -18.5300   -1.4090  -26.8430 C   0  0  0  0  0  3  0  0  0  0  0  0
  1 28  1  0  0  0  0
  2  1  1  0  0  0  0
  3  2  2  0  0  0  0
  4  5  2  0  0  0  0
  4  2  1  0  0  0  0
  5  9  1  0  0  0  0
  6 11  1  0  0  0  0
  6  5  1  0  0  0  0
  7  8  1  0  0  0  0
  7  6  1  0  0  0  0
  8  4  1  0  0  0  0
  9  1  1  0  0  0  0
  9 10  2  0  0  0  0
 12  7  1  0  0  0  0
 13  8  1  0  0  0  0
 14 15  2  0  0  0  0
 14 13  1  0  0  0  0
 16 14  1  0  0  0  0
 17 16  1  0  0  0  0
 18 16  1  0  0  0  0
 19 18  1  0  0  0  0
 20 19  2  0  0  0  0
 21 22  2  0  0  0  0
 21 20  1  0  0  0  0
 22 23  1  0  0  0  0
 23 18  2  0  0  0  0
 24 20  1  0  0  0  0
 25 24  1  0  0  0  0
 26 22  1  0  0  0  0
 27 26  1  0  0  0  0
 28 29  2  0  0  0  0
 28 34  1  0  0  0  0
 29 30  1  0  0  0  0
 30 31  2  0  0  0  0
 31 32  1  0  0  0  0
 33 31  1  0  0  0  0
 34 33  2  0  0  0  0
M  END
>  <Pose>
1

>  <Score>
-9.178

$$$$
