MODEL 1
REMARK VINA RESULT:    -9.178      0.000      0.000
REMARK INTER + INTRA:         -12.552
REMARK INTER:                 -12.398
REMARK INTRA:                  -0.154
REMARK UNBOUND:                -0.154
REMARK  6 active torsions:
REMARK  status: ('A' for Active; 'I' for Inactive)
REMARK    1  A    between atoms: C_5  and  N_8 
REMARK    2  A    between atoms: N_15  and  C_16 
REMARK    3  A    between atoms: C_16  and  C_17 
REMARK       I    between atoms: C_17  and  N_19 
REMARK    4  A    between atoms: N_19  and  C_20 
REMARK    5  A    between atoms: C_22  and  O_28 
REMARK    6  A    between atoms: C_24  and  O_26 
ROOT
ATOM      1  N   UNK d   1     -19.652  -1.373 -29.026  0.00  0.00    -0.241 N 
ATOM      2  C   UNK d   1     -19.571  -1.008 -30.308  0.00  0.00     0.286 A 
ATOM      3  O   UNK d   1     -19.010   0.064 -30.712  0.00  0.00    -0.265 OA
ATOM      4  C   UNK d   1     -20.158  -1.905 -31.170  0.00  0.00     0.155 A 
ATOM      5  C   UNK d   1     -20.625  -2.877 -30.363  0.00  0.00     0.152 A 
ATOM      6  N   UNK d   1     -21.210  -3.777 -31.190  0.00  0.00    -0.279 N 
ATOM      7  N   UNK d   1     -21.105  -3.376 -32.444  0.00  0.00    -0.239 N 
ATOM      8  N   UNK d   1     -20.459  -2.228 -32.438  0.00  0.00    -0.261 N 
ATOM      9  C   UNK d   1     -20.324  -2.565 -29.058  0.00  0.00     0.286 A 
ATOM     10  O   UNK d   1     -20.589  -3.216 -28.018  0.00  0.00    -0.265 OA
ATOM     11  H   UNK d   1     -21.674  -4.654 -30.856  0.00  0.00     0.189 HD
ATOM     12  H   UNK d   1     -21.493  -3.924 -33.258  0.00  0.00     0.208 HD
ENDROOT
BRANCH   8  13
ATOM     13  C   UNK d   1     -20.138  -1.464 -33.609  0.00  0.00     0.254 C 
BRANCH  13  14
ATOM     14  C   UNK d   1     -21.294  -1.157 -34.448  0.00  0.00     0.242 C 
ATOM     15  O   UNK d   1     -22.483  -1.224 -34.020  0.00  0.00    -0.271 OA
ATOM     16  N   UNK d   1     -21.062  -0.778 -35.790  0.00  0.00    -0.326 N 
ATOM     17  H   UNK d   1     -20.069  -0.721 -36.173  0.00  0.00     0.169 HD
BRANCH  16  18
ATOM     18  C   UNK d   1     -22.172  -0.477 -36.619  0.00  0.00     0.040 A 
ATOM     19  C   UNK d   1     -22.990  -1.527 -36.955  0.00  0.00     0.066 A 
ATOM     20  C   UNK d   1     -24.090  -1.318 -37.795  0.00  0.00     0.073 A 
ATOM     21  C   UNK d   1     -24.348  -0.064 -38.282  0.00  0.00     0.073 A 
ATOM     22  C   UNK d   1     -23.526   1.011 -37.951  0.00  0.00     0.073 A 
ATOM     23  C   UNK d   1     -22.446   0.771 -37.115  0.00  0.00     0.066 A 
BRANCH  20  24
ATOM     24  O   UNK d   1     -24.841  -2.438 -38.062  0.00  0.00    -0.356 OA
ATOM     25  C   UNK d   1     -24.447  -3.466 -38.896  0.00  0.00     0.210 C 
ENDBRANCH  20  24
BRANCH  22  26
ATOM     26  O   UNK d   1     -23.844   2.244 -38.482  0.00  0.00    -0.356 OA
ATOM     27  C   UNK d   1     -23.722   2.644 -39.811  0.00  0.00     0.210 C 
ENDBRANCH  22  26
ENDBRANCH  16  18
ENDBRANCH  13  14
ENDBRANCH   8  13
BRANCH   1  28
ATOM     28  C   UNK d   1     -19.166  -0.717 -27.851  0.00  0.00     0.046 A 
ATOM     29  C   UNK d   1     -19.318   0.638 -27.687  0.00  0.00     0.031 A 
ATOM     30  C   UNK d   1     -18.840   1.275 -26.531  0.00  0.00     0.021 A 
ATOM     31  C   UNK d   1     -18.211   0.563 -25.539  0.00  0.00     0.011 A 
ATOM     32 Br   UNK d   1     -17.557   1.434 -23.948  0.00  0.00    -0.051 Br
ATOM     33  C   UNK d   1     -18.060  -0.794 -25.706  0.00  0.00     0.021 A 
ATOM     34  C   UNK d   1     -18.530  -1.409 -26.843  0.00  0.00     0.031 A 
ENDBRANCH   1  28
TORSDOF 6
ENDMDL
