/Users/jonathanwahrer/Desktop/Msc/3_Semester/Drug_Design_Praktikum/waehrer_HTS_screening/HTS_experiment/out/docking_results/vina_output/5l4q/0414_docked.pdbqt
 OpenBabel03212218013D

 35 38  0  0  0  0  0  0  0  0999 V2000
  -19.5040   -1.3990  -28.3220 N   0  0  0  0  0  0  0  0  0  0  0  0
  -19.2540   -1.0390  -29.6060 C   0  0  0  0  0  0  0  0  0  0  0  0
  -18.5670   -0.0390  -29.9830 O   0  0  0  0  0  0  0  0  0  0  0  0
  -19.8650   -1.9350  -30.4660 C   0  0  0  0  0  0  0  0  0  0  0  0
  -20.4750   -2.8220  -29.6840 C   0  0  0  0  0  0  0  0  0  0  0  0
  -21.0840   -3.7120  -30.5040 N   0  0  0  0  0  0  0  0  0  0  0  0
  -20.8250   -3.3420  -31.7550 N   0  0  0  0  0  0  0  0  0  0  0  0
  -20.0800   -2.2540  -31.7710 N   0  0  0  0  0  0  0  0  0  0  0  0
  -20.2620   -2.5040  -28.3640 C   0  0  0  0  0  0  0  0  0  0  0  0
  -20.6870   -3.1190  -27.3610 O   0  0  0  0  0  0  0  0  0  0  0  0
  -21.6460   -4.5320  -30.1970 H   0  0  0  0  0  0  0  0  0  0  0  0
  -21.1660   -3.8430  -32.5940 H   0  0  0  0  0  0  0  0  0  0  0  0
  -19.5630   -1.5050  -32.9100 C   0  0  0  0  0  2  0  0  0  0  0  0
  -20.7180   -0.8850  -33.6580 C   0  0  0  0  0  0  0  0  0  0  0  0
  -21.5410   -0.3250  -32.8930 O   0  0  0  0  0  0  0  0  0  0  0  0
  -20.7760   -0.9770  -35.0470 N   0  0  0  0  0  0  0  0  0  0  0  0
  -19.9670   -1.5010  -35.5090 H   0  0  0  0  0  0  0  0  0  0  0  0
  -21.7810   -0.4560  -35.9000 C   0  0  0  0  0  0  0  0  0  0  0  0
  -22.8120   -1.1830  -36.4450 C   0  0  0  0  0  3  0  0  0  0  0  0
  -23.7700   -0.5930  -37.2820 C   0  0  0  0  0  3  0  0  0  0  0  0
  -23.7190    0.7440  -37.5950 C   0  0  0  0  0  0  0  0  0  0  0  0
  -22.6930    1.4800  -37.0550 C   0  0  0  0  0  3  0  0  0  0  0  0
  -21.7500    0.8970  -36.2310 C   0  0  0  0  0  3  0  0  0  0  0  0
  -24.7370    1.3150  -38.4710 C   0  0  0  0  0  0  0  0  0  0  0  0
  -25.9440    1.1010  -38.1940 O   0  0  0  0  0  0  0  0  0  0  0  0
  -24.4680    2.0710  -39.5780 O   0  0  0  0  0  0  0  0  0  0  0  0
  -23.2030    2.3440  -40.1070 C   0  0  0  0  0  2  0  0  0  0  0  0
  -22.8760    1.1950  -41.0710 C   0  0  0  0  0  1  0  0  0  0  0  0
  -19.0170   -0.6820  -27.1900 C   0  0  0  0  0  0  0  0  0  0  0  0
  -19.0330    0.7040  -27.2010 C   0  0  0  0  0  3  0  0  0  0  0  0
  -18.5760    1.4210  -26.1390 C   0  0  0  0  0  3  0  0  0  0  0  0
  -18.0770    0.8070  -25.0090 C   0  0  0  0  0  0  0  0  0  0  0  0
  -17.4280    1.7690  -23.5030 Br  0  0  0  0  0  0  0  0  0  0  0  0
  -18.0670   -0.5700  -25.0130 C   0  0  0  0  0  3  0  0  0  0  0  0
  -18.5230   -1.3050  -26.0730 C   0  0  0  0  0  3  0  0  0  0  0  0
  1 29  1  0  0  0  0
  2  1  1  0  0  0  0
  3  2  2  0  0  0  0
  4  5  2  0  0  0  0
  4  2  1  0  0  0  0
  5  9  1  0  0  0  0
  6 11  1  0  0  0  0
  6  5  1  0  0  0  0
  7  6  1  0  0  0  0
  8  7  1  0  0  0  0
  8  4  1  0  0  0  0
  9  1  1  0  0  0  0
  9 10  2  0  0  0  0
 12  7  1  0  0  0  0
 13  8  1  0  0  0  0
 14 13  1  0  0  0  0
 14 15  2  0  0  0  0
 16 14  1  0  0  0  0
 17 16  1  0  0  0  0
 18 16  1  0  0  0  0
 19 18  2  0  0  0  0
 20 19  1  0  0  0  0
 21 20  2  0  0  0  0
 21 22  1  0  0  0  0
 22 23  2  0  0  0  0
 23 18  1  0  0  0  0
 24 25  2  0  0  0  0
 24 21  1  0  0  0  0
 26 24  1  0  0  0  0
 27 26  1  0  0  0  0
 28 27  1  0  0  0  0
 29 35  1  0  0  0  0
 30 29  2  0  0  0  0
 30 31  1  0  0  0  0
 31 32  2  0  0  0  0
 32 33  1  0  0  0  0
 34 32  1  0  0  0  0
 35 34  2  0  0  0  0
M  END
>  <Pose>
1

>  <Score>
-9.523

$$$$
