MODEL 1
REMARK VINA RESULT:    -9.523      0.000      0.000
REMARK INTER + INTRA:         -13.675
REMARK INTER:                 -13.420
REMARK INTRA:                  -0.255
REMARK UNBOUND:                -0.255
REMARK  7 active torsions:
REMARK  status: ('A' for Active; 'I' for Inactive)
REMARK    1  A    between atoms: C_5  and  N_8 
REMARK    2  A    between atoms: N_15  and  C_16 
REMARK    3  A    between atoms: C_16  and  C_17 
REMARK       I    between atoms: C_17  and  N_19 
REMARK    4  A    between atoms: N_19  and  C_20 
REMARK    5  A    between atoms: C_23  and  C_26 
REMARK    6  A    between atoms: C_26  and  O_28 
REMARK    7  A    between atoms: O_28  and  C_29 
ROOT
ATOM      1  N   UNK d   1     -19.504  -1.399 -28.322  0.00  0.00    -0.241 N 
ATOM      2  C   UNK d   1     -19.254  -1.039 -29.606  0.00  0.00     0.286 A 
ATOM      3  O   UNK d   1     -18.567  -0.039 -29.983  0.00  0.00    -0.265 OA
ATOM      4  C   UNK d   1     -19.865  -1.935 -30.466  0.00  0.00     0.155 A 
ATOM      5  C   UNK d   1     -20.475  -2.822 -29.684  0.00  0.00     0.152 A 
ATOM      6  N   UNK d   1     -21.084  -3.712 -30.504  0.00  0.00    -0.279 N 
ATOM      7  N   UNK d   1     -20.825  -3.342 -31.755  0.00  0.00    -0.239 N 
ATOM      8  N   UNK d   1     -20.080  -2.254 -31.771  0.00  0.00    -0.261 N 
ATOM      9  C   UNK d   1     -20.262  -2.504 -28.364  0.00  0.00     0.286 A 
ATOM     10  O   UNK d   1     -20.687  -3.119 -27.361  0.00  0.00    -0.265 OA
ATOM     11  H   UNK d   1     -21.646  -4.532 -30.197  0.00  0.00     0.189 HD
ATOM     12  H   UNK d   1     -21.166  -3.843 -32.594  0.00  0.00     0.208 HD
ENDROOT
BRANCH   8  13
ATOM     13  C   UNK d   1     -19.563  -1.505 -32.910  0.00  0.00     0.254 C 
BRANCH  13  14
ATOM     14  C   UNK d   1     -20.718  -0.885 -33.658  0.00  0.00     0.242 C 
ATOM     15  O   UNK d   1     -21.541  -0.325 -32.893  0.00  0.00    -0.271 OA
ATOM     16  N   UNK d   1     -20.776  -0.977 -35.047  0.00  0.00    -0.326 N 
ATOM     17  H   UNK d   1     -19.967  -1.501 -35.509  0.00  0.00     0.169 HD
BRANCH  16  18
ATOM     18  C   UNK d   1     -21.781  -0.456 -35.900  0.00  0.00     0.034 A 
ATOM     19  C   UNK d   1     -22.812  -1.183 -36.445  0.00  0.00     0.030 A 
ATOM     20  C   UNK d   1     -23.770  -0.593 -37.282  0.00  0.00     0.020 A 
ATOM     21  C   UNK d   1     -23.719   0.744 -37.595  0.00  0.00     0.039 A 
ATOM     22  C   UNK d   1     -22.693   1.480 -37.055  0.00  0.00     0.020 A 
ATOM     23  C   UNK d   1     -21.750   0.897 -36.231  0.00  0.00     0.030 A 
BRANCH  21  24
ATOM     24  C   UNK d   1     -24.737   1.315 -38.471  0.00  0.00     0.293 C 
ATOM     25  O   UNK d   1     -25.944   1.101 -38.194  0.00  0.00    -0.259 OA
BRANCH  24  26
ATOM     26  O   UNK d   1     -24.468   2.071 -39.578  0.00  0.00    -0.318 OA
BRANCH  26  27
ATOM     27  C   UNK d   1     -23.203   2.344 -40.107  0.00  0.00     0.174 C 
ATOM     28  C   UNK d   1     -22.876   1.195 -41.071  0.00  0.00     0.034 C 
ENDBRANCH  26  27
ENDBRANCH  24  26
ENDBRANCH  21  24
ENDBRANCH  16  18
ENDBRANCH  13  14
ENDBRANCH   8  13
BRANCH   1  29
ATOM     29  C   UNK d   1     -19.017  -0.682 -27.190  0.00  0.00     0.046 A 
ATOM     30  C   UNK d   1     -19.033   0.704 -27.201  0.00  0.00     0.031 A 
ATOM     31  C   UNK d   1     -18.576   1.421 -26.139  0.00  0.00     0.021 A 
ATOM     32  C   UNK d   1     -18.077   0.807 -25.009  0.00  0.00     0.011 A 
ATOM     33 Br   UNK d   1     -17.428   1.769 -23.503  0.00  0.00    -0.051 Br
ATOM     34  C   UNK d   1     -18.067  -0.570 -25.013  0.00  0.00     0.021 A 
ATOM     35  C   UNK d   1     -18.523  -1.305 -26.073  0.00  0.00     0.031 A 
ENDBRANCH   1  29
TORSDOF 7
ENDMDL
