/Users/jonathanwahrer/Desktop/Msc/3_Semester/Drug_Design_Praktikum/waehrer_HTS_screening/HTS_experiment/out/docking_results/vina_output/5l4q/0416_docked.pdbqt
 OpenBabel03212218013D

 33 36  0  0  0  0  0  0  0  0999 V2000
  -19.6250   -1.6710  -28.9510 N   0  0  0  0  0  0  0  0  0  0  0  0
  -19.4370   -1.3420  -30.2600 C   0  0  0  0  0  0  0  0  0  0  0  0
  -18.7630   -0.3550  -30.6390 O   0  0  0  0  0  0  0  0  0  0  0  0
  -20.0830   -2.2330  -31.0900 C   0  0  0  0  0  0  0  0  0  0  0  0
  -20.6690   -3.1120  -30.2900 C   0  0  0  0  0  0  0  0  0  0  0  0
  -21.3110   -3.9970  -31.0750 N   0  0  0  0  0  0  0  0  0  0  0  0
  -21.1080   -3.6480  -32.3370 N   0  0  0  0  0  0  0  0  0  0  0  0
  -20.3550   -2.5650  -32.3830 N   0  0  0  0  0  0  0  0  0  0  0  0
  -20.3910   -2.7710  -28.9860 C   0  0  0  0  0  0  0  0  0  0  0  0
  -20.7820   -3.3820  -27.9420 O   0  0  0  0  0  0  0  0  0  0  0  0
  -21.8690   -4.8170  -30.7820 H   0  0  0  0  0  0  0  0  0  0  0  0
  -21.4960   -4.1690  -33.1760 H   0  0  0  0  0  0  0  0  0  0  0  0
  -19.9060   -1.8450  -33.5390 C   0  0  0  0  0  2  0  0  0  0  0  0
  -21.0270   -1.1880  -34.3090 C   0  0  0  0  0  0  0  0  0  0  0  0
  -22.1040   -1.0540  -33.6880 O   0  0  0  0  0  0  0  0  0  0  0  0
  -20.8630   -0.7580  -35.6240 N   0  0  0  0  0  0  0  0  0  0  0  0
  -19.8860   -0.9390  -36.0480 H   0  0  0  0  0  0  0  0  0  0  0  0
  -21.7720   -0.1260  -36.4900 C   0  0  0  0  0  0  0  0  0  0  0  0
  -21.6780    1.2470  -36.7200 C   0  0  0  0  0  3  0  0  0  0  0  0
  -22.5530    1.9060  -37.5410 C   0  0  0  0  0  3  0  0  0  0  0  0
  -23.5800    1.2100  -38.1810 C   0  0  0  0  0  0  0  0  0  0  0  0
  -23.6440   -0.1400  -37.9350 C   0  0  0  0  0  3  0  0  0  0  0  0
  -22.7670   -0.8080  -37.1120 C   0  0  0  0  0  3  0  0  0  0  0  0
  -24.4390    1.9120  -38.9940 O   0  0  0  0  0  0  0  0  0  0  0  0
  -24.0900    2.7660  -40.0350 C   0  0  0  0  0  2  0  0  0  0  0  0
  -23.2520    2.1360  -41.0940 C   0  0  0  0  0  1  0  0  0  0  0  0
  -19.1270   -0.9960  -27.8000 C   0  0  0  0  0  0  0  0  0  0  0  0
  -18.4780   -1.6310  -26.7620 C   0  0  0  0  0  3  0  0  0  0  0  0
  -18.0110   -0.9380  -25.6550 C   0  0  0  0  0  3  0  0  0  0  0  0
  -18.1740    0.4270  -25.5390 C   0  0  0  0  0  0  0  0  0  0  0  0
  -17.5440    1.4000  -24.0240 Br  0  0  0  0  0  0  0  0  0  0  0  0
  -18.8260    1.0630  -26.5870 C   0  0  0  0  0  3  0  0  0  0  0  0
  -19.2910    0.3730  -27.6880 C   0  0  0  0  0  3  0  0  0  0  0  0
  1 27  1  0  0  0  0
  2  1  1  0  0  0  0
  3  2  2  0  0  0  0
  4  5  2  0  0  0  0
  4  2  1  0  0  0  0
  5  9  1  0  0  0  0
  6 11  1  0  0  0  0
  6  5  1  0  0  0  0
  7  6  1  0  0  0  0
  8  7  1  0  0  0  0
  8  4  1  0  0  0  0
  9  1  1  0  0  0  0
  9 10  2  0  0  0  0
 12  7  1  0  0  0  0
 13  8  1  0  0  0  0
 14 15  2  0  0  0  0
 14 13  1  0  0  0  0
 16 14  1  0  0  0  0
 17 16  1  0  0  0  0
 18 16  1  0  0  0  0
 19 18  1  0  0  0  0
 20 19  2  0  0  0  0
 21 22  2  0  0  0  0
 21 20  1  0  0  0  0
 22 23  1  0  0  0  0
 23 18  2  0  0  0  0
 24 21  1  0  0  0  0
 25 24  1  0  0  0  0
 26 25  1  0  0  0  0
 27 33  2  0  0  0  0
 27 28  1  0  0  0  0
 28 29  2  0  0  0  0
 29 30  1  0  0  0  0
 30 31  1  0  0  0  0
 32 30  2  0  0  0  0
 33 32  1  0  0  0  0
M  END
>  <Pose>
1

>  <Score>
-8.839

$$$$
