MODEL 1
REMARK VINA RESULT:    -8.839      0.000      0.000
REMARK INTER + INTRA:         -12.605
REMARK INTER:                 -11.940
REMARK INTRA:                  -0.665
REMARK UNBOUND:                -0.665
REMARK  6 active torsions:
REMARK  status: ('A' for Active; 'I' for Inactive)
REMARK    1  A    between atoms: C_5  and  N_8 
REMARK    2  A    between atoms: N_15  and  C_16 
REMARK    3  A    between atoms: C_16  and  C_17 
REMARK       I    between atoms: C_17  and  N_19 
REMARK    4  A    between atoms: N_19  and  C_20 
REMARK    5  A    between atoms: C_23  and  O_26 
REMARK    6  A    between atoms: O_26  and  C_27 
ROOT
ATOM      1  N   UNK d   1     -19.625  -1.671 -28.951  0.00  0.00    -0.241 N 
ATOM      2  C   UNK d   1     -19.437  -1.342 -30.260  0.00  0.00     0.286 A 
ATOM      3  O   UNK d   1     -18.763  -0.355 -30.639  0.00  0.00    -0.265 OA
ATOM      4  C   UNK d   1     -20.083  -2.233 -31.090  0.00  0.00     0.155 A 
ATOM      5  C   UNK d   1     -20.669  -3.112 -30.290  0.00  0.00     0.152 A 
ATOM      6  N   UNK d   1     -21.311  -3.997 -31.075  0.00  0.00    -0.279 N 
ATOM      7  N   UNK d   1     -21.108  -3.648 -32.337  0.00  0.00    -0.239 N 
ATOM      8  N   UNK d   1     -20.355  -2.565 -32.383  0.00  0.00    -0.261 N 
ATOM      9  C   UNK d   1     -20.391  -2.771 -28.986  0.00  0.00     0.286 A 
ATOM     10  O   UNK d   1     -20.782  -3.382 -27.942  0.00  0.00    -0.265 OA
ATOM     11  H   UNK d   1     -21.869  -4.817 -30.782  0.00  0.00     0.189 HD
ATOM     12  H   UNK d   1     -21.496  -4.169 -33.176  0.00  0.00     0.208 HD
ENDROOT
BRANCH   8  13
ATOM     13  C   UNK d   1     -19.906  -1.845 -33.539  0.00  0.00     0.254 C 
BRANCH  13  14
ATOM     14  C   UNK d   1     -21.027  -1.188 -34.309  0.00  0.00     0.242 C 
ATOM     15  O   UNK d   1     -22.104  -1.054 -33.688  0.00  0.00    -0.271 OA
ATOM     16  N   UNK d   1     -20.863  -0.758 -35.624  0.00  0.00    -0.326 N 
ATOM     17  H   UNK d   1     -19.886  -0.939 -36.048  0.00  0.00     0.169 HD
BRANCH  16  18
ATOM     18  C   UNK d   1     -21.772  -0.126 -36.490  0.00  0.00     0.034 A 
ATOM     19  C   UNK d   1     -21.678   1.247 -36.720  0.00  0.00     0.032 A 
ATOM     20  C   UNK d   1     -22.553   1.906 -37.541  0.00  0.00     0.039 A 
ATOM     21  C   UNK d   1     -23.580   1.210 -38.181  0.00  0.00     0.068 A 
ATOM     22  C   UNK d   1     -23.644  -0.140 -37.935  0.00  0.00     0.039 A 
ATOM     23  C   UNK d   1     -22.767  -0.808 -37.112  0.00  0.00     0.032 A 
BRANCH  21  24
ATOM     24  O   UNK d   1     -24.439   1.912 -38.994  0.00  0.00    -0.352 OA
BRANCH  24  25
ATOM     25  C   UNK d   1     -24.090   2.766 -40.035  0.00  0.00     0.171 C 
ATOM     26  C   UNK d   1     -23.252   2.136 -41.094  0.00  0.00     0.034 C 
ENDBRANCH  24  25
ENDBRANCH  21  24
ENDBRANCH  16  18
ENDBRANCH  13  14
ENDBRANCH   8  13
BRANCH   1  27
ATOM     27  C   UNK d   1     -19.127  -0.996 -27.800  0.00  0.00     0.046 A 
ATOM     28  C   UNK d   1     -18.478  -1.631 -26.762  0.00  0.00     0.031 A 
ATOM     29  C   UNK d   1     -18.011  -0.938 -25.655  0.00  0.00     0.021 A 
ATOM     30  C   UNK d   1     -18.174   0.427 -25.539  0.00  0.00     0.011 A 
ATOM     31 Br   UNK d   1     -17.544   1.400 -24.024  0.00  0.00    -0.051 Br
ATOM     32  C   UNK d   1     -18.826   1.063 -26.587  0.00  0.00     0.021 A 
ATOM     33  C   UNK d   1     -19.291   0.373 -27.688  0.00  0.00     0.031 A 
ENDBRANCH   1  27
TORSDOF 6
ENDMDL
