MODEL 1
REMARK VINA RESULT:    -9.207      0.000      0.000
REMARK INTER + INTRA:         -11.048
REMARK INTER:                 -10.821
REMARK INTRA:                  -0.227
REMARK UNBOUND:                -0.227
REMARK  3 active torsions:
REMARK  status: ('A' for Active; 'I' for Inactive)
REMARK    1  A    between atoms: C_5  and  N_8 
REMARK    2  A    between atoms: N_15  and  C_16 
REMARK    3  A    between atoms: C_19  and  N_22 
ROOT
ATOM      1  N   UNK d   1     -21.612  -2.402 -32.991  0.00  0.00    -0.241 N 
ATOM      2  C   UNK d   1     -21.015  -1.922 -31.878  0.00  0.00     0.286 A 
ATOM      3  O   UNK d   1     -20.724  -0.711 -31.614  0.00  0.00    -0.265 OA
ATOM      4  C   UNK d   1     -20.730  -2.946 -30.993  0.00  0.00     0.160 A 
ATOM      5  C   UNK d   1     -21.168  -4.055 -31.593  0.00  0.00     0.152 A 
ATOM      6  N   UNK d   1     -20.891  -5.060 -30.727  0.00  0.00    -0.278 N 
ATOM      7  N   UNK d   1     -20.309  -4.545 -29.657  0.00  0.00    -0.234 N 
ATOM      8  N   UNK d   1     -20.196  -3.234 -29.793  0.00  0.00    -0.234 N 
ATOM      9  C   UNK d   1     -21.710  -3.731 -32.818  0.00  0.00     0.286 A 
ATOM     10  O   UNK d   1     -22.221  -4.501 -33.669  0.00  0.00    -0.265 OA
ATOM     11  H   UNK d   1     -21.113  -6.074 -30.904  0.00  0.00     0.189 HD
ATOM     12  H   UNK d   1     -19.970  -5.060 -28.803  0.00  0.00     0.209 HD
ENDROOT
BRANCH   8  13
ATOM     13  C   UNK d   1     -19.622  -2.320 -28.850  0.00  0.00     0.058 A 
ATOM     14  C   UNK d   1     -19.829  -2.471 -27.495  0.00  0.00     0.034 A 
ATOM     15  C   UNK d   1     -19.285  -1.602 -26.557  0.00  0.00     0.038 A 
ATOM     16  C   UNK d   1     -18.506  -0.542 -26.969  0.00  0.00     0.103 A 
ATOM     17  C   UNK d   1     -18.298  -0.388 -28.323  0.00  0.00     0.038 A 
ATOM     18  C   UNK d   1     -18.841  -1.258 -29.256  0.00  0.00     0.034 A 
BRANCH  16  19
ATOM     19  N   UNK d   1     -17.935   0.367 -26.032  0.00  0.00    -0.116 N 
ATOM     20  O   UNK d   1     -18.109   0.250 -24.804  0.00  0.00    -0.532 OA
ATOM     21  O   UNK d   1     -17.174   1.397 -26.485  0.00  0.00    -0.532 OA
ENDBRANCH  16  19
ENDBRANCH   8  13
BRANCH   1  22
ATOM     22  C   UNK d   1     -22.045  -1.626 -34.116  0.00  0.00     0.046 A 
ATOM     23  C   UNK d   1     -21.160  -0.996 -34.966  0.00  0.00     0.031 A 
ATOM     24  C   UNK d   1     -21.611  -0.249 -36.050  0.00  0.00     0.021 A 
ATOM     25  C   UNK d   1     -22.960  -0.116 -36.310  0.00  0.00     0.011 A 
ATOM     26 Br   UNK d   1     -23.601   0.906 -37.797  0.00  0.00    -0.051 Br
ATOM     27  C   UNK d   1     -23.848  -0.746 -35.463  0.00  0.00     0.021 A 
ATOM     28  C   UNK d   1     -23.390  -1.485 -34.388  0.00  0.00     0.031 A 
ENDBRANCH   1  22
TORSDOF 3
ENDMDL
