MODEL 1
REMARK VINA RESULT:    -7.679      0.000      0.000
REMARK INTER + INTRA:          -9.159
REMARK INTER:                  -8.577
REMARK INTRA:                  -0.582
REMARK UNBOUND:                -0.582
REMARK  2 active torsions:
REMARK  status: ('A' for Active; 'I' for Inactive)
REMARK    1  A    between atoms: C_5  and  N_8 
REMARK    2  A    between atoms: C_12  and  C_20 
ROOT
ATOM      1  N   UNK d   1     -21.187  -1.395 -33.405  0.00  0.00    -0.252 N 
ATOM      2  C   UNK d   1     -20.461  -0.613 -34.341  0.00  0.00     0.239 C 
ATOM      3  O   UNK d   1     -19.290  -0.201 -34.157  0.00  0.00    -0.272 OA
ATOM      4  C   UNK d   1     -21.309  -0.377 -35.540  0.00  0.00     0.138 C 
ATOM      5  C   UNK d   1     -22.048   0.924 -35.464  0.00  0.00     0.142 C 
ATOM      6  O   UNK d   1     -23.220   0.594 -36.181  0.00  0.00    -0.360 OA
ATOM      7  C   UNK d   1     -23.644  -0.463 -35.337  0.00  0.00     0.160 C 
ATOM      8  C   UNK d   1     -22.463  -1.370 -35.398  0.00  0.00     0.128 C 
ATOM      9  C   UNK d   1     -22.260  -2.043 -34.087  0.00  0.00     0.239 C 
ATOM     10  O   UNK d   1     -22.921  -3.002 -33.678  0.00  0.00    -0.272 OA
ATOM     11  C   UNK d   1     -23.625   0.247 -34.031  0.00  0.00     0.005 C 
ATOM     12  C   UNK d   1     -22.581   1.068 -34.100  0.00  0.00     0.015 C 
ENDROOT
BRANCH   1  13
ATOM     13  C   UNK d   1     -20.838  -1.468 -32.017  0.00  0.00     0.045 A 
ATOM     14  C   UNK d   1     -20.767  -0.341 -31.229  0.00  0.00     0.031 A 
ATOM     15  C   UNK d   1     -20.430  -0.398 -29.895  0.00  0.00     0.021 A 
ATOM     16  C   UNK d   1     -20.157  -1.626 -29.345  0.00  0.00     0.011 A 
ATOM     17 Br   UNK d   1     -19.688  -1.745 -27.510  0.00  0.00    -0.051 Br
ATOM     18  C   UNK d   1     -20.219  -2.764 -30.110  0.00  0.00     0.021 A 
ATOM     19  C   UNK d   1     -20.561  -2.710 -31.463  0.00  0.00     0.031 A 
ENDBRANCH   1  13
BRANCH   5  20
ATOM     20  C   UNK d   1     -21.345   2.087 -36.019  0.00  0.00     0.298 C 
ATOM     21  O   UNK d   1     -22.172   3.023 -36.578  0.00  0.00    -0.356 OA
ATOM     22  C   UNK d   1     -21.990   3.016 -37.938  0.00  0.00     0.197 C 
ATOM     23  C   UNK d   1     -20.948   1.984 -38.220  0.00  0.00     0.197 C 
ATOM     24  O   UNK d   1     -20.408   1.719 -36.967  0.00  0.00    -0.356 OA
ENDBRANCH   5  20
TORSDOF 2
ENDMDL
