MODEL 1
REMARK VINA RESULT:    -8.987      0.000      0.000
REMARK INTER + INTRA:         -12.334
REMARK INTER:                 -11.614
REMARK INTRA:                  -0.720
REMARK UNBOUND:                -0.720
REMARK  5 active torsions:
REMARK  status: ('A' for Active; 'I' for Inactive)
REMARK    1  A    between atoms: C_5  and  N_8 
REMARK    2  A    between atoms: C_14  and  C_18 
REMARK    3  A    between atoms: C_18  and  O_20 
REMARK    4  A    between atoms: O_20  and  C_21 
REMARK    5  A    between atoms: C_21  and  C_22 
ROOT
ATOM      1  N   UNK d   1     -20.636  -1.742 -31.034  0.00  0.00    -0.247 N 
ATOM      2  C   UNK d   1     -21.266  -2.972 -31.441  0.00  0.00     0.255 C 
ATOM      3  O   UNK d   1     -21.838  -3.804 -30.681  0.00  0.00    -0.270 OA
ATOM      4  C   UNK d   1     -21.113  -3.067 -32.911  0.00  0.00     0.210 C 
ATOM      5  N   UNK d   1     -22.224  -3.705 -33.590  0.00  0.00    -0.222 NA
ATOM      6  N   UNK d   1     -22.235  -2.910 -34.778  0.00  0.00    -0.314 N 
ATOM      7  C   UNK d   1     -22.006  -1.548 -34.416  0.00  0.00     0.132 C 
ATOM      8  C   UNK d   1     -21.323  -1.615 -33.278  0.00  0.00     0.073 C 
ATOM      9  C   UNK d   1     -20.675  -0.895 -32.189  0.00  0.00     0.266 C 
ATOM     10  O   UNK d   1     -20.249   0.284 -32.338  0.00  0.00    -0.267 OA
ATOM     11  H   UNK d   1     -23.085  -3.396 -33.057  0.00  0.00     0.147 HD
ATOM     12  H   UNK d   1     -22.385  -3.254 -35.746  0.00  0.00     0.181 HD
ENDROOT
BRANCH   7  13
ATOM     13  C   UNK d   1     -22.417  -0.342 -35.126  0.00  0.00     0.312 C 
ATOM     14  O   UNK d   1     -21.603   0.571 -35.400  0.00  0.00    -0.258 OA
BRANCH  13  15
ATOM     15  O   UNK d   1     -23.725  -0.137 -35.538  0.00  0.00    -0.312 OA
BRANCH  15  16
ATOM     16  C   UNK d   1     -24.034   0.305 -36.853  0.00  0.00     0.217 C 
BRANCH  16  17
ATOM     17  C   UNK d   1     -23.816  -0.824 -37.818  0.00  0.00    -0.034 A 
ATOM     18  C   UNK d   1     -22.912  -0.686 -38.870  0.00  0.00     0.009 A 
ATOM     19  C   UNK d   1     -22.680  -1.692 -39.769  0.00  0.00     0.001 A 
ATOM     20  C   UNK d   1     -23.371  -2.893 -39.631  0.00  0.00     0.000 A 
ATOM     21  C   UNK d   1     -24.264  -3.024 -38.590  0.00  0.00     0.001 A 
ATOM     22  C   UNK d   1     -24.491  -1.992 -37.677  0.00  0.00     0.009 A 
ENDBRANCH  16  17
ENDBRANCH  15  16
ENDBRANCH  13  15
ENDBRANCH   7  13
BRANCH   1  23
ATOM     23  C   UNK d   1     -20.092  -1.407 -29.775  0.00  0.00     0.045 A 
ATOM     24  C   UNK d   1     -20.305  -0.135 -29.229  0.00  0.00     0.031 A 
ATOM     25  C   UNK d   1     -19.818   0.267 -28.028  0.00  0.00     0.021 A 
ATOM     26  C   UNK d   1     -19.068  -0.614 -27.291  0.00  0.00     0.011 A 
ATOM     27 Br   UNK d   1     -18.366  -0.069 -25.581  0.00  0.00    -0.051 Br
ATOM     28  C   UNK d   1     -18.835  -1.880 -27.794  0.00  0.00     0.021 A 
ATOM     29  C   UNK d   1     -19.341  -2.268 -29.020  0.00  0.00     0.031 A 
ENDBRANCH   1  23
TORSDOF 5
ENDMDL
