MODEL 1
REMARK VINA RESULT:    -8.715      0.000      0.000
REMARK INTER + INTRA:          -9.482
REMARK INTER:                  -9.224
REMARK INTRA:                  -0.258
REMARK UNBOUND:                -0.258
REMARK  1 active torsions:
REMARK  status: ('A' for Active; 'I' for Inactive)
REMARK    1  A    between atoms: C_5  and  N_8 
ROOT
ATOM      1  N   UNK d   1     -19.848   0.434 -34.624  0.00  0.00    -0.231 N 
ATOM      2  C   UNK d   1     -18.549   1.046 -34.730  0.00  0.00     0.357 A 
ATOM      3  O   UNK d   1     -17.682   0.820 -33.841  0.00  0.00    -0.244 OA
ATOM      4  N   UNK d   1     -18.319   1.876 -35.845  0.00  0.00    -0.169 NA
ATOM      5  C   UNK d   1     -19.174   2.116 -36.750  0.00  0.00     0.202 A 
ATOM      6  C   UNK d   1     -20.556   1.579 -36.809  0.00  0.00     0.140 A 
ATOM      7  C   UNK d   1     -21.498   2.728 -36.918  0.00  0.00     0.269 C 
ATOM      8  N   UNK d   1     -22.729   2.494 -37.580  0.00  0.00    -0.043 N 
ATOM      9  C   UNK d   1     -23.039   1.145 -37.848  0.00  0.00     0.140 A 
ATOM     10  C   UNK d   1     -22.021   0.226 -38.130  0.00  0.00    -0.021 A 
ATOM     11  C   UNK d   1     -22.342  -1.077 -38.387  0.00  0.00     0.016 A 
ATOM     12  C   UNK d   1     -23.630  -1.561 -38.388  0.00  0.00    -0.061 A 
ATOM     13  C   UNK d   1     -24.629  -0.652 -38.110  0.00  0.00     0.009 A 
ATOM     14  C   UNK d   1     -24.336   0.679 -37.845  0.00  0.00     0.038 A 
ATOM     15  C   UNK d   1     -23.938  -2.983 -38.670  0.00  0.00     0.048 C 
ATOM     16  C   UNK d   1     -20.646   0.789 -38.118  0.00  0.00     0.070 C 
ATOM     17  C   UNK d   1     -22.870   3.305 -38.801  0.00  0.00     0.276 C 
ATOM     18  C   UNK d   1     -20.806   0.707 -35.642  0.00  0.00     0.251 A 
ATOM     19  O   UNK d   1     -21.936   0.136 -35.487  0.00  0.00    -0.271 OA
ATOM     20  O   UNK d   1     -18.808   2.969 -37.813  0.00  0.00    -0.173 OA
ATOM     21  H   UNK d   1     -23.505   2.854 -36.947  0.00  0.00     0.286 HD
ENDROOT
BRANCH   1  22
ATOM     22  C   UNK d   1     -20.155  -0.417 -33.530  0.00  0.00     0.047 A 
ATOM     23  C   UNK d   1     -20.187  -1.774 -33.758  0.00  0.00     0.031 A 
ATOM     24  C   UNK d   1     -20.480  -2.681 -32.747  0.00  0.00     0.021 A 
ATOM     25  C   UNK d   1     -20.745  -2.219 -31.486  0.00  0.00     0.011 A 
ATOM     26 Br   UNK d   1     -21.146  -3.471 -30.104  0.00  0.00    -0.051 Br
ATOM     27  C   UNK d   1     -20.720  -0.858 -31.229  0.00  0.00     0.021 A 
ATOM     28  C   UNK d   1     -20.425   0.026 -32.254  0.00  0.00     0.031 A 
ENDBRANCH   1  22
TORSDOF 1
ENDMDL
