/Users/jonathanwahrer/Desktop/Msc/3_Semester/Drug_Design_Praktikum/waehrer_HTS_screening/HTS_experiment/out/docking_results/vina_output/5l4q/0428_docked.pdbqt
 OpenBabel03212218023D

 28 31  0  0  1  0  0  0  0  0999 V2000
  -19.8480    0.4340  -34.6240 N   0  0  0  0  0  0  0  0  0  0  0  0
  -18.5490    1.0460  -34.7300 C   0  0  0  0  0  0  0  0  0  0  0  0
  -17.6820    0.8200  -33.8410 O   0  0  0  0  0  0  0  0  0  0  0  0
  -18.3190    1.8760  -35.8450 N   0  0  0  0  0  2  0  0  0  0  0  0
  -19.1740    2.1160  -36.7500 C   0  0  0  0  0  0  0  0  0  0  0  0
  -20.5560    1.5790  -36.8090 C   0  0  1  0  0  0  0  0  0  0  0  0
  -21.4980    2.7280  -36.9180 C   0  0  0  0  0  2  0  0  0  0  0  0
  -22.7290    2.4940  -37.5800 N   0  0  0  0  0  4  0  0  0  0  0  0
  -23.0390    1.1450  -37.8480 C   0  0  0  0  0  0  0  0  0  0  0  0
  -22.0210    0.2260  -38.1300 C   0  0  0  0  0  0  0  0  0  0  0  0
  -22.3420   -1.0770  -38.3870 C   0  0  0  0  0  3  0  0  0  0  0  0
  -23.6300   -1.5610  -38.3880 C   0  0  0  0  0  0  0  0  0  0  0  0
  -24.6290   -0.6520  -38.1100 C   0  0  0  0  0  3  0  0  0  0  0  0
  -24.3360    0.6790  -37.8450 C   0  0  0  0  0  3  0  0  0  0  0  0
  -23.9380   -2.9830  -38.6700 C   0  0  0  0  0  1  0  0  0  0  0  0
  -20.6460    0.7890  -38.1180 C   0  0  0  0  0  2  0  0  0  0  0  0
  -22.8700    3.3050  -38.8010 C   0  0  0  0  0  1  0  0  0  0  0  0
  -20.8060    0.7070  -35.6420 C   0  0  0  0  0  0  0  0  0  0  0  0
  -21.9360    0.1360  -35.4870 O   0  0  0  0  0  0  0  0  0  0  0  0
  -18.8080    2.9690  -37.8130 O   0  0  0  0  0  0  0  0  0  0  0  0
  -23.5050    2.8540  -36.9470 H   0  0  0  0  0  0  0  0  0  0  0  0
  -20.1550   -0.4170  -33.5300 C   0  0  0  0  0  0  0  0  0  0  0  0
  -20.1870   -1.7740  -33.7580 C   0  0  0  0  0  3  0  0  0  0  0  0
  -20.4800   -2.6810  -32.7470 C   0  0  0  0  0  3  0  0  0  0  0  0
  -20.7450   -2.2190  -31.4860 C   0  0  0  0  0  0  0  0  0  0  0  0
  -21.1460   -3.4710  -30.1040 Br  0  0  0  0  0  0  0  0  0  0  0  0
  -20.7200   -0.8580  -31.2290 C   0  0  0  0  0  3  0  0  0  0  0  0
  -20.4250    0.0260  -32.2540 C   0  0  0  0  0  3  0  0  0  0  0  0
  1 22  1  0  0  0  0
  2  1  1  0  0  0  0
  2  3  2  0  0  0  0
  4  2  1  0  0  0  0
  5  4  1  0  0  0  0
  6 16  1  6  0  0  0
  6  5  1  0  0  0  0
  6 18  1  0  0  0  0
  7  6  1  0  0  0  0
  8 21  1  0  0  0  0
  8  7  1  0  0  0  0
  9 14  1  0  0  0  0
  9  8  1  0  0  0  0
 10 16  1  0  0  0  0
 10  9  2  0  0  0  0
 11 10  1  0  0  0  0
 12 11  2  0  0  0  0
 12 13  1  0  0  0  0
 13 14  2  0  0  0  0
 15 12  1  0  0  0  0
 17  8  1  0  0  0  0
 18 19  2  0  0  0  0
 18  1  1  0  0  0  0
 20  5  2  0  0  0  0
 22 28  1  0  0  0  0
 23 22  2  0  0  0  0
 23 24  1  0  0  0  0
 24 25  2  0  0  0  0
 25 27  1  0  0  0  0
 25 26  1  0  0  0  0
 28 27  2  0  0  0  0
M  END
>  <Pose>
1

>  <Score>
-8.715

$$$$
