MODEL 1
REMARK VINA RESULT:    -7.988      0.000      0.000
REMARK INTER + INTRA:          -9.961
REMARK INTER:                  -9.389
REMARK INTRA:                  -0.572
REMARK UNBOUND:                -0.572
REMARK  3 active torsions:
REMARK  status: ('A' for Active; 'I' for Inactive)
REMARK    1  A    between atoms: C_5  and  N_8 
REMARK    2  A    between atoms: N_19  and  C_24 
REMARK    3  A    between atoms: C_24  and  C_25 
REMARK       I    between atoms: C_25  and  N_27 
ROOT
ATOM      1  N   UNK d   1     -21.431   0.630 -35.674  0.00  0.00    -0.181 N 
ATOM      2  C   UNK d   1     -21.305   2.052 -35.423  0.00  0.00     0.149 C 
ATOM      3  C   UNK d   1     -20.873   2.365 -34.010  0.00  0.00     0.042 C 
ATOM      4  C   UNK d   1     -19.731   1.396 -33.669  0.00  0.00     0.150 C 
ATOM      5  N   UNK d   1     -20.359   0.105 -33.557  0.00  0.00    -0.172 N 
ATOM      6  C   UNK d   1     -21.201  -0.244 -34.576  0.00  0.00     0.712 A 
ATOM      7  N   UNK d   1     -21.699  -1.464 -34.316  0.00  0.00    -0.043 NA
ATOM      8  C   UNK d   1     -21.157  -1.859 -33.137  0.00  0.00     0.185 A 
ATOM      9  C   UNK d   1     -20.310  -0.875 -32.651  0.00  0.00     0.166 A 
ATOM     10  C   UNK d   1     -19.639  -1.049 -31.456  0.00  0.00     0.283 A 
ATOM     11  O   UNK d   1     -18.868  -0.119 -31.044  0.00  0.00    -0.265 OA
ATOM     12  N   UNK d   1     -19.813  -2.188 -30.762  0.00  0.00    -0.255 N 
ATOM     13  C   UNK d   1     -20.640  -3.126 -31.256  0.00  0.00     0.333 A 
ATOM     14  O   UNK d   1     -20.774  -4.177 -30.574  0.00  0.00    -0.246 OA
ATOM     15  N   UNK d   1     -21.298  -2.980 -32.406  0.00  0.00    -0.285 N 
ATOM     16  C   UNK d   1     -22.186  -4.016 -32.911  0.00  0.00     0.163 C 
ENDROOT
BRANCH   1  17
ATOM     17  C   UNK d   1     -21.770   0.187 -36.973  0.00  0.00     0.051 A 
ATOM     18  C   UNK d   1     -22.959  -0.428 -37.291  0.00  0.00     0.031 A 
ATOM     19  C   UNK d   1     -23.204  -0.830 -38.606  0.00  0.00     0.021 A 
ATOM     20  C   UNK d   1     -22.272  -0.622 -39.601  0.00  0.00     0.011 A 
ATOM     21 Br   UNK d   1     -22.571  -1.153 -41.386  0.00  0.00    -0.051 Br
ATOM     22  C   UNK d   1     -21.077  -0.007 -39.288  0.00  0.00     0.021 A 
ATOM     23  C   UNK d   1     -20.865   0.377 -37.991  0.00  0.00     0.031 A 
ENDBRANCH   1  17
BRANCH  12  24
ATOM     24  C   UNK d   1     -19.112  -2.381 -29.505  0.00  0.00     0.239 C 
BRANCH  24  25
ATOM     25  C   UNK d   1     -19.955  -1.823 -28.398  0.00  0.00     0.233 C 
ATOM     26  O   UNK d   1     -20.673  -2.577 -27.701  0.00  0.00    -0.272 OA
ATOM     27  N   UNK d   1     -19.966  -0.439 -28.107  0.00  0.00    -0.369 N 
ATOM     28  H   UNK d   1     -20.039  -0.067 -27.133  0.00  0.00     0.159 HD
ATOM     29  H   UNK d   1     -19.900   0.279 -28.869  0.00  0.00     0.159 HD
ENDBRANCH  24  25
ENDBRANCH  12  24
TORSDOF 3
ENDMDL
