MODEL 1
REMARK VINA RESULT:    -8.801      0.000      0.000
REMARK INTER + INTRA:         -13.736
REMARK INTER:                 -12.918
REMARK INTRA:                  -0.818
REMARK UNBOUND:                -0.818
REMARK  10 active torsions:
REMARK  status: ('A' for Active; 'I' for Inactive)
REMARK    1  A    between atoms: C_5  and  O_8 
REMARK    2  A    between atoms: O_8  and  C_9 
REMARK    3  A    between atoms: C_9  and  C_10 
REMARK       I    between atoms: C_10  and  N_12 
REMARK    4  A    between atoms: N_12  and  C_13 
REMARK    5  A    between atoms: N_16  and  C_23 
REMARK    6  A    between atoms: C_20  and  O_22 
REMARK    7  A    between atoms: C_25  and  C_30 
REMARK    8  A    between atoms: C_26  and  O_29 
REMARK    9  A    between atoms: C_27  and  O_28 
REMARK   10  A    between atoms: C_30  and  O_31 
ROOT
ATOM      1  C   UNK d   1     -21.348   0.079 -33.724  0.00  0.00     0.733 A 
ATOM      2  N   UNK d   1     -21.318  -0.230 -35.034  0.00  0.00    -0.042 NA
ATOM      3  C   UNK d   1     -22.373   0.023 -35.791  0.00  0.00     0.185 A 
ATOM      4  N   UNK d   1     -22.581  -0.190 -37.097  0.00  0.00    -0.293 N 
ATOM      5  C   UNK d   1     -23.833   0.257 -37.345  0.00  0.00     0.214 A 
ATOM      6  N   UNK d   1     -24.383   0.732 -36.224  0.00  0.00    -0.235 NA
ATOM      7  C   UNK d   1     -23.510   0.610 -35.222  0.00  0.00     0.158 A 
ATOM      8  C   UNK d   1     -23.549   0.930 -33.877  0.00  0.00     0.214 A 
ATOM      9  N   UNK d   1     -22.454   0.652 -33.164  0.00  0.00    -0.036 NA
ENDROOT
BRANCH   1  10
ATOM     10  N   UNK d   1     -20.233  -0.182 -32.876  0.00  0.00    -0.154 N 
ATOM     11  C   UNK d   1     -20.172  -1.300 -32.019  0.00  0.00     0.260 C 
ATOM     12  O   UNK d   1     -21.116  -2.109 -31.976  0.00  0.00    -0.270 OA
ATOM     13  H   UNK d   1     -19.428   0.508 -32.913  0.00  0.00     0.187 HD
BRANCH  11  14
ATOM     14  C   UNK d   1     -18.984  -1.506 -31.170  0.00  0.00     0.279 C 
BRANCH  14  15
ATOM     15  O   UNK d   1     -19.275  -2.148 -29.962  0.00  0.00    -0.342 OA
BRANCH  15  16
ATOM     16  C   UNK d   1     -19.002  -1.513 -28.771  0.00  0.00     0.069 A 
ATOM     17  C   UNK d   1     -19.161  -2.173 -27.575  0.00  0.00     0.038 A 
ATOM     18  C   UNK d   1     -18.888  -1.537 -26.361  0.00  0.00     0.022 A 
ATOM     19  C   UNK d   1     -18.450  -0.231 -26.358  0.00  0.00     0.011 A 
ATOM     20 Br   UNK d   1     -18.074   0.643 -24.690  0.00  0.00    -0.051 Br
ATOM     21  C   UNK d   1     -18.292   0.427 -27.560  0.00  0.00     0.022 A 
ATOM     22  C   UNK d   1     -18.566  -0.212 -28.747  0.00  0.00     0.038 A 
ENDBRANCH  15  16
ENDBRANCH  14  15
ENDBRANCH  11  14
ENDBRANCH   1  10
BRANCH   8  23
ATOM     23  O   UNK d   1     -24.701   1.509 -33.367  0.00  0.00    -0.343 OA
ATOM     24  H   UNK d   1     -25.550   1.376 -33.927  0.00  0.00     0.219 HD
ENDBRANCH   8  23
BRANCH   4  25
ATOM     25  C   UNK d   1     -21.751  -0.749 -38.094  0.00  0.00     0.262 C 
ATOM     26  O   UNK d   1     -20.772   0.155 -38.526  0.00  0.00    -0.353 OA
ATOM     27  C   UNK d   1     -21.325   0.667 -39.697  0.00  0.00     0.179 C 
ATOM     28  C   UNK d   1     -21.681  -0.626 -40.416  0.00  0.00     0.182 C 
ATOM     29  C   UNK d   1     -22.399  -1.340 -39.273  0.00  0.00     0.198 C 
BRANCH  27  30
ATOM     30  C   UNK d   1     -20.350   1.499 -40.479  0.00  0.00     0.198 C 
BRANCH  30  31
ATOM     31  O   UNK d   1     -19.056   1.065 -40.393  0.00  0.00    -0.398 OA
ATOM     32  H   UNK d   1     -19.061   0.080 -40.271  0.00  0.00     0.209 HD
ENDBRANCH  30  31
ENDBRANCH  27  30
BRANCH  28  33
ATOM     33  O   UNK d   1     -22.465  -0.442 -41.520  0.00  0.00    -0.390 OA
ATOM     34  H   UNK d   1     -22.072   0.211 -42.183  0.00  0.00     0.210 HD
ENDBRANCH  28  33
BRANCH  29  35
ATOM     35  O   UNK d   1     -22.174  -2.733 -39.361  0.00  0.00    -0.388 OA
ATOM     36  H   UNK d   1     -21.881  -2.893 -40.293  0.00  0.00     0.210 HD
ENDBRANCH  29  35
ENDBRANCH   4  25
TORSDOF 10
ENDMDL
