MODEL 1
REMARK VINA RESULT:    -8.380      0.000      0.000
REMARK INTER + INTRA:         -12.817
REMARK INTER:                 -11.564
REMARK INTRA:                  -1.252
REMARK UNBOUND:                -1.252
REMARK  7 active torsions:
REMARK  status: ('A' for Active; 'I' for Inactive)
REMARK    1  A    between atoms: C_5  and  O_8 
REMARK    2  A    between atoms: O_8  and  C_9 
REMARK    3  A    between atoms: C_9  and  C_10 
REMARK    4  A    between atoms: C_10  and  O_11 
REMARK    5  A    between atoms: C_10  and  C_12 
REMARK    6  A    between atoms: C_12  and  N_13 
REMARK    7  A    between atoms: C_17  and  N_18 
ROOT
ATOM      1  N   UNK d   1     -21.848   0.215 -36.286  0.00  0.00    -0.170 N 
ATOM      2  C   UNK d   1     -22.356  -0.684 -37.160  0.00  0.00     0.166 A 
ATOM      3  C   UNK d   1     -21.867  -0.394 -38.413  0.00  0.00     0.185 A 
ATOM      4  N   UNK d   1     -21.093   0.659 -38.250  0.00  0.00    -0.044 NA
ATOM      5  C   UNK d   1     -21.054   1.073 -36.945  0.00  0.00     0.707 A 
ATOM      6  N   UNK d   1     -22.178  -1.105 -39.537  0.00  0.00    -0.286 N 
ATOM      7  C   UNK d   1     -23.008  -2.140 -39.397  0.00  0.00     0.330 A 
ATOM      8  O   UNK d   1     -23.306  -2.808 -40.424  0.00  0.00    -0.246 OA
ATOM      9  N   UNK d   1     -23.501  -2.445 -38.189  0.00  0.00    -0.273 N 
ATOM     10  C   UNK d   1     -23.211  -1.760 -37.059  0.00  0.00     0.280 A 
ATOM     11  O   UNK d   1     -23.684  -2.065 -35.954  0.00  0.00    -0.265 OA
ATOM     12  C   UNK d   1     -21.599  -0.723 -40.825  0.00  0.00     0.163 C 
ATOM     13  H   UNK d   1     -24.146  -3.259 -38.120  0.00  0.00     0.173 HD
ENDROOT
BRANCH   1  14
ATOM     14  C   UNK d   1     -22.066   0.227 -34.856  0.00  0.00     0.182 C 
BRANCH  14  15
ATOM     15  C   UNK d   1     -21.080  -0.561 -34.044  0.00  0.00     0.161 C 
BRANCH  15  16
ATOM     16  C   UNK d   1     -20.729  -0.018 -32.695  0.00  0.00     0.209 C 
BRANCH  16  17
ATOM     17  O   UNK d   1     -20.755  -0.888 -31.707  0.00  0.00    -0.349 OA
BRANCH  17  18
ATOM     18  C   UNK d   1     -20.472  -1.363 -30.519  0.00  0.00     0.069 A 
ATOM     19  C   UNK d   1     -20.308  -2.701 -30.220  0.00  0.00     0.038 A 
ATOM     20  C   UNK d   1     -20.012  -3.141 -28.949  0.00  0.00     0.022 A 
ATOM     21  C   UNK d   1     -19.875  -2.225 -27.941  0.00  0.00     0.011 A 
ATOM     22 Br   UNK d   1     -19.467  -2.839 -26.190  0.00  0.00    -0.051 Br
ATOM     23  C   UNK d   1     -20.031  -0.880 -28.208  0.00  0.00     0.022 A 
ATOM     24  C   UNK d   1     -20.322  -0.442 -29.457  0.00  0.00     0.038 A 
ENDBRANCH  17  18
ENDBRANCH  16  17
ENDBRANCH  15  16
BRANCH  15  25
ATOM     25  O   UNK d   1     -21.483  -1.893 -33.870  0.00  0.00    -0.392 OA
ATOM     26  H   UNK d   1     -22.459  -1.971 -34.120  0.00  0.00     0.210 HD
ENDBRANCH  15  25
ENDBRANCH  14  15
ENDBRANCH   1  14
BRANCH   5  27
ATOM     27  N   UNK d   1     -20.341   2.244 -36.501  0.00  0.00    -0.212 N 
ATOM     28  C   UNK d   1     -18.909   1.991 -36.227  0.00  0.00     0.171 C 
ATOM     29  C   UNK d   1     -18.089   3.207 -36.067  0.00  0.00     0.292 C 
ATOM     30  N   UNK d   1     -18.792   4.295 -35.433  0.00  0.00     0.087 N 
ATOM     31  C   UNK d   1     -19.861   4.643 -36.315  0.00  0.00     0.292 C 
ATOM     32  C   UNK d   1     -19.174   3.998 -34.092  0.00  0.00     0.310 C 
ATOM     33  C   UNK d   1     -20.914   3.538 -36.385  0.00  0.00     0.171 C 
ENDBRANCH   5  27
TORSDOF 7
ENDMDL
