MODEL 1
REMARK VINA RESULT:    -7.335      0.000      0.000
REMARK INTER + INTRA:          -8.480
REMARK INTER:                  -8.192
REMARK INTRA:                  -0.288
REMARK UNBOUND:                -0.288
REMARK  2 active torsions:
REMARK  status: ('A' for Active; 'I' for Inactive)
REMARK    1  A    between atoms: C_7  and  C_8 
REMARK    2  A    between atoms: C_8  and  N_9 
ROOT
ATOM      1  C   UNK d   1     -20.581  -2.123 -33.525  0.00  0.00     0.284 C 
ENDROOT
BRANCH   1   2
ATOM      2  C   UNK d   1     -20.131  -2.103 -32.133  0.00  0.00    -0.012 A 
ATOM      3  C   UNK d   1     -20.728  -3.013 -31.243  0.00  0.00     0.021 A 
ATOM      4 Br   UNK d   1     -21.959  -4.368 -31.798  0.00  0.00    -0.050 Br
ATOM      5  C   UNK d   1     -20.392  -2.879 -29.909  0.00  0.00     0.059 A 
ATOM      6  C   UNK d   1     -19.510  -1.903 -29.492  0.00  0.00     0.106 A 
ATOM      7  C   UNK d   1     -18.909  -0.997 -30.334  0.00  0.00     0.105 A 
ATOM      8  O   UNK d   1     -19.056  -1.622 -28.167  0.00  0.00    -0.323 OA
ATOM      9  C   UNK d   1     -19.247  -1.133 -31.653  0.00  0.00     0.050 A 
ATOM     10  O   UNK d   1     -18.125  -0.204 -29.512  0.00  0.00    -0.323 OA
ATOM     11  C   UNK d   1     -18.735  -0.198 -28.192  0.00  0.00     0.352 C 
ENDBRANCH   1   2
BRANCH   1  12
ATOM     12  N   UNK d   1     -21.398  -1.097 -34.021  0.00  0.00     0.016 N 
ATOM     13  C   UNK d   1     -22.597  -1.888 -34.477  0.00  0.00     0.517 C 
ATOM     14  N   UNK d   1     -23.486  -1.183 -35.300  0.00  0.00     0.171 N 
ATOM     15  C   UNK d   1     -22.729  -0.696 -36.439  0.00  0.00     0.551 C 
ATOM     16  C   UNK d   1     -24.036  -0.102 -34.473  0.00  0.00     0.551 C 
ATOM     17  N   UNK d   1     -21.762   0.249 -35.937  0.00  0.00     0.171 N 
ATOM     18  C   UNK d   1     -20.770  -0.396 -35.140  0.00  0.00     0.517 C 
ATOM     19  C   UNK d   1     -22.356   1.334 -35.146  0.00  0.00     0.551 C 
ATOM     20  N   UNK d   1     -22.961   0.721 -33.974  0.00  0.00     0.171 N 
ATOM     21  C   UNK d   1     -21.975  -0.071 -33.209  0.00  0.00     0.517 C 
ENDBRANCH   1  12
TORSDOF 2
ENDMDL
