MODEL 1
REMARK VINA RESULT:    -9.262      0.000      0.000
REMARK INTER + INTRA:         -13.426
REMARK INTER:                 -12.511
REMARK INTRA:                  -0.915
REMARK UNBOUND:                -0.915
REMARK  6 active torsions:
REMARK  status: ('A' for Active; 'I' for Inactive)
REMARK    1  A    between atoms: C_7  and  C_8 
REMARK    2  A    between atoms: C_8  and  O_9 
REMARK    3  A    between atoms: O_9  and  C_10 
REMARK    4  A    between atoms: C_13  and  C_16 
REMARK    5  A    between atoms: N_18  and  C_21 
REMARK    6  A    between atoms: C_21  and  C_22 
REMARK       I    between atoms: C_22  and  N_24 
ROOT
ATOM      1  C   UNK d   1     -20.410  -2.546 -30.923  0.00  0.00     0.069 A 
ATOM      2  C   UNK d   1     -20.357  -1.253 -31.462  0.00  0.00     0.038 A 
ATOM      3  C   UNK d   1     -20.876  -0.936 -32.696  0.00  0.00     0.018 A 
ATOM      4  C   UNK d   1     -21.482  -1.902 -33.469  0.00  0.00     0.015 A 
ATOM      5  C   UNK d   1     -21.542  -3.180 -32.956  0.00  0.00     0.018 A 
ATOM      6  C   UNK d   1     -21.017  -3.504 -31.704  0.00  0.00     0.038 A 
ENDROOT
BRANCH   1   7
ATOM      7  O   UNK d   1     -19.869  -2.811 -29.677  0.00  0.00    -0.347 OA
BRANCH   7   8
ATOM      8  C   UNK d   1     -20.450  -2.410 -28.473  0.00  0.00     0.215 C 
BRANCH   8   9
ATOM      9  C   UNK d   1     -19.681  -1.388 -27.742  0.00  0.00    -0.014 A 
ATOM     10  C   UNK d   1     -19.023  -1.716 -26.549  0.00  0.00     0.022 A 
ATOM     11 Br   UNK d   1     -19.219  -3.510 -25.908  0.00  0.00    -0.050 Br
ATOM     12  C   UNK d   1     -18.271  -0.788 -25.872  0.00  0.00     0.059 A 
ATOM     13  C   UNK d   1     -18.141   0.501 -26.349  0.00  0.00     0.106 A 
ATOM     14  C   UNK d   1     -18.778   0.850 -27.521  0.00  0.00     0.105 A 
ATOM     15  O   UNK d   1     -17.464   1.636 -25.898  0.00  0.00    -0.323 OA
ATOM     16  C   UNK d   1     -19.539  -0.099 -28.202  0.00  0.00     0.050 A 
ATOM     17  O   UNK d   1     -18.482   2.177 -27.760  0.00  0.00    -0.323 OA
ATOM     18  C   UNK d   1     -17.421   2.605 -26.923  0.00  0.00     0.352 C 
ENDBRANCH   8   9
ENDBRANCH   7   8
ENDBRANCH   1   7
BRANCH   4  19
ATOM     19  C   UNK d   1     -22.039  -1.579 -34.785  0.00  0.00     0.198 A 
ATOM     20  N   UNK d   1     -23.084  -2.139 -35.417  0.00  0.00    -0.136 NA
ATOM     21  N   UNK d   1     -23.243  -1.535 -36.599  0.00  0.00    -0.182 N 
ATOM     22  N   UNK d   1     -22.309  -0.603 -36.722  0.00  0.00     0.025 NA
ATOM     23  N   UNK d   1     -21.580  -0.632 -35.619  0.00  0.00    -0.136 NA
BRANCH  21  24
ATOM     24  C   UNK d   1     -24.239  -1.804 -37.616  0.00  0.00     0.272 C 
BRANCH  24  25
ATOM     25  C   UNK d   1     -23.774  -2.884 -38.513  0.00  0.00     0.236 C 
ATOM     26  O   UNK d   1     -24.465  -3.905 -38.656  0.00  0.00    -0.272 OA
ATOM     27  N   UNK d   1     -22.546  -2.735 -39.194  0.00  0.00    -0.369 N 
ATOM     28  H   UNK d   1     -21.738  -2.178 -38.800  0.00  0.00     0.159 HD
ATOM     29  H   UNK d   1     -22.409  -3.184 -40.125  0.00  0.00     0.159 HD
ENDBRANCH  24  25
ENDBRANCH  21  24
ENDBRANCH   4  19
TORSDOF 6
ENDMDL
