MODEL 1
REMARK VINA RESULT:    -8.575      0.000      0.000
REMARK INTER + INTRA:         -11.793
REMARK INTER:                 -11.081
REMARK INTRA:                  -0.712
REMARK UNBOUND:                -0.712
REMARK  5 active torsions:
REMARK  status: ('A' for Active; 'I' for Inactive)
REMARK    1  A    between atoms: C_7  and  C_8 
REMARK    2  A    between atoms: N_9  and  N_10 
REMARK    3  A    between atoms: N_10  and  C_11 
REMARK    4  A    between atoms: C_13  and  N_19 
REMARK    5  A    between atoms: C_15  and  O_17 
ROOT
ATOM      1  C   UNK d   1     -21.650  -2.419 -33.575  0.00  0.00     0.762 A 
ATOM      2  N   UNK d   1     -20.923  -1.291 -33.635  0.00  0.00     0.132 NA
ATOM      3  C   UNK d   1     -21.068  -0.375 -34.631  0.00  0.00     0.744 A 
ATOM      4  N   UNK d   1     -21.984  -0.662 -35.555  0.00  0.00    -0.017 NA
ATOM      5  C   UNK d   1     -22.735  -1.760 -35.553  0.00  0.00     0.302 A 
ATOM      6  N   UNK d   1     -22.550  -2.647 -34.530  0.00  0.00    -0.016 NA
ENDROOT
BRANCH   1   7
ATOM      7  N   UNK d   1     -21.367  -3.292 -32.502  0.00  0.00    -0.105 N 
ATOM      8  H   UNK d   1     -21.595  -4.304 -32.608  0.00  0.00     0.208 HD
BRANCH   7   9
ATOM      9  N   UNK d   1     -20.802  -2.862 -31.318  0.00  0.00    -0.172 NA
ATOM     10  C   UNK d   1     -21.119  -3.179 -30.136  0.00  0.00     0.152 C 
BRANCH  10  11
ATOM     11  C   UNK d   1     -20.424  -2.634 -28.987  0.00  0.00     0.003 A 
ATOM     12  C   UNK d   1     -20.009  -3.429 -27.942  0.00  0.00     0.025 A 
ATOM     13 Br   UNK d   1     -20.348  -5.292 -28.003  0.00  0.00    -0.050 Br
ATOM     14  C   UNK d   1     -19.353  -2.878 -26.857  0.00  0.00     0.059 A 
ATOM     15  C   UNK d   1     -19.083  -1.511 -26.767  0.00  0.00     0.106 A 
ATOM     16  C   UNK d   1     -19.499  -0.699 -27.819  0.00  0.00     0.105 A 
ATOM     17  O   UNK d   1     -18.463  -0.701 -25.829  0.00  0.00    -0.323 OA
ATOM     18  C   UNK d   1     -20.152  -1.271 -28.891  0.00  0.00     0.054 A 
ATOM     19  O   UNK d   1     -19.121   0.585 -27.494  0.00  0.00    -0.323 OA
ATOM     20  C   UNK d   1     -18.630   0.650 -26.170  0.00  0.00     0.352 C 
ENDBRANCH  10  11
ENDBRANCH   7   9
ENDBRANCH   1   7
BRANCH   3  21
ATOM     21  N   UNK d   1     -20.279   0.777 -34.612  0.00  0.00    -0.209 N 
ATOM     22  C   UNK d   1     -20.763   2.010 -34.039  0.00  0.00     0.167 C 
ATOM     23  C   UNK d   1     -19.624   2.971 -33.770  0.00  0.00     0.188 C 
ATOM     24  O   UNK d   1     -18.447   2.404 -33.408  0.00  0.00    -0.388 OA
ATOM     25  C   UNK d   1     -18.061   1.239 -33.993  0.00  0.00     0.188 C 
ATOM     26  C   UNK d   1     -18.943   0.777 -35.150  0.00  0.00     0.167 C 
ENDBRANCH   3  21
BRANCH   5  27
ATOM     27  O   UNK d   1     -23.678  -2.029 -36.530  0.00  0.00    -0.323 OA
ATOM     28  C   UNK d   1     -23.431  -1.707 -37.872  0.00  0.00     0.213 C 
ENDBRANCH   5  27
TORSDOF 5
ENDMDL
