/Users/jonathanwahrer/Desktop/Msc/3_Semester/Drug_Design_Praktikum/waehrer_HTS_screening/HTS_experiment/out/docking_results/vina_output/5l4q/0467_docked.pdbqt
 OpenBabel03212218043D

 28 31  0  0  1  0  0  0  0  0999 V2000
  -21.6500   -2.4190  -33.5750 C   0  0  0  0  0  0  0  0  0  0  0  0
  -20.9230   -1.2910  -33.6350 N   0  0  0  0  0  0  0  0  0  0  0  0
  -21.0680   -0.3750  -34.6310 C   0  0  1  0  0  3  0  0  0  0  0  0
  -21.9840   -0.6620  -35.5550 N   0  0  0  0  0  0  0  0  0  0  0  0
  -22.7350   -1.7600  -35.5530 C   0  0  0  0  0  0  0  0  0  0  0  0
  -22.5500   -2.6470  -34.5300 N   0  0  0  0  0  0  0  0  0  0  0  0
  -21.3670   -3.2920  -32.5020 N   0  0  0  0  0  0  0  0  0  0  0  0
  -21.5950   -4.3040  -32.6080 H   0  0  0  0  0  0  0  0  0  0  0  0
  -20.8020   -2.8620  -31.3180 N   0  0  0  0  0  0  0  0  0  0  0  0
  -21.1190   -3.1790  -30.1360 C   0  0  0  0  0  3  0  0  0  0  0  0
  -20.4240   -2.6340  -28.9870 C   0  0  0  0  0  0  0  0  0  0  0  0
  -20.0090   -3.4290  -27.9420 C   0  0  0  0  0  0  0  0  0  0  0  0
  -20.3480   -5.2920  -28.0030 Br  0  0  0  0  0  0  0  0  0  0  0  0
  -19.3530   -2.8780  -26.8570 C   0  0  0  0  0  3  0  0  0  0  0  0
  -19.0830   -1.5110  -26.7670 C   0  0  0  0  0  0  0  0  0  0  0  0
  -19.4990   -0.6990  -27.8190 C   0  0  0  0  0  0  0  0  0  0  0  0
  -18.4630   -0.7010  -25.8290 O   0  0  0  0  0  0  0  0  0  0  0  0
  -20.1520   -1.2710  -28.8910 C   0  0  0  0  0  3  0  0  0  0  0  0
  -19.1210    0.5850  -27.4940 O   0  0  0  0  0  0  0  0  0  0  0  0
  -18.6300    0.6500  -26.1700 C   0  0  0  0  0  2  0  0  0  0  0  0
  -20.2790    0.7770  -34.6120 N   0  0  0  0  0  0  0  0  0  0  0  0
  -20.7630    2.0100  -34.0390 C   0  0  0  0  0  2  0  0  0  0  0  0
  -19.6240    2.9710  -33.7700 C   0  0  0  0  0  2  0  0  0  0  0  0
  -18.4470    2.4040  -33.4080 O   0  0  0  0  0  0  0  0  0  0  0  0
  -18.0610    1.2390  -33.9930 C   0  0  0  0  0  2  0  0  0  0  0  0
  -18.9430    0.7770  -35.1500 C   0  0  0  0  0  2  0  0  0  0  0  0
  -23.6780   -2.0290  -36.5300 O   0  0  0  0  0  0  0  0  0  0  0  0
  -23.4310   -1.7070  -37.8720 C   0  0  0  0  0  1  0  0  0  0  0  0
  1  7  1  0  0  0  0
  2  1  2  0  0  0  0
  3 21  1  1  0  0  0
  3  2  1  0  0  0  0
  4  5  2  0  0  0  0
  4  3  1  0  0  0  0
  5  6  2  0  0  0  0
  6  1  1  0  0  0  0
  7  9  1  0  0  0  0
  8  7  1  0  0  0  0
  9 10  2  0  0  0  0
 10 11  1  0  0  0  0
 11 18  2  0  0  0  0
 11 12  1  0  0  0  0
 12 14  2  0  0  0  0
 13 12  1  0  0  0  0
 14 15  1  0  0  0  0
 15 17  1  0  0  0  0
 16 19  1  0  0  0  0
 16 15  2  0  0  0  0
 18 16  1  0  0  0  0
 19 20  1  0  0  0  0
 20 17  1  0  0  0  0
 21 22  1  0  0  0  0
 22 23  1  0  0  0  0
 23 24  1  0  0  0  0
 25 24  1  0  0  0  0
 26 21  1  0  0  0  0
 26 25  1  0  0  0  0
 27  5  1  0  0  0  0
 28 27  1  0  0  0  0
M  END
>  <Pose>
1

>  <Score>
-8.575

$$$$
