/Users/jonathanwahrer/Desktop/Msc/3_Semester/Drug_Design_Praktikum/waehrer_HTS_screening/HTS_experiment/out/docking_results/vina_output/5l4q/0469_docked.pdbqt
 OpenBabel03212218043D

 32 36  0  0  0  0  0  0  0  0999 V2000
  -20.7110    1.3780  -35.5730 N   0  0  0  0  0  0  0  0  0  0  0  0
  -19.6260    0.7990  -36.2100 C   0  0  0  0  0  2  0  0  0  0  0  0
  -19.5910    0.6810  -37.6850 C   0  0  0  0  0  2  0  0  0  0  0  0
  -20.9240    0.8210  -38.1960 N   0  0  0  0  0  0  0  0  0  0  0  0
  -21.5890    2.0300  -37.7800 C   0  0  0  0  0  2  0  0  0  0  0  0
  -21.7990    1.9150  -36.2920 C   0  0  0  0  0  2  0  0  0  0  0  0
  -20.4310    2.0480  -34.3240 C   0  0  0  0  0  2  0  0  0  0  0  0
  -19.9670    1.0760  -33.2640 C   0  0  0  0  0  0  0  0  0  0  0  0
  -20.9030    0.1340  -32.7900 N   0  0  0  0  0  0  0  0  0  0  0  0
  -21.8850    0.1660  -33.2110 H   0  0  0  0  0  0  0  0  0  0  0  0
  -18.7880    1.1800  -32.8870 O   0  0  0  0  0  0  0  0  0  0  0  0
  -20.6500   -0.8480  -31.8020 C   0  0  0  0  0  0  0  0  0  0  0  0
  -21.0310   -2.1690  -32.0790 C   0  0  0  0  0  0  0  0  0  0  0  0
  -21.8530   -2.5470  -33.7470 Br  0  0  0  0  0  0  0  0  0  0  0  0
  -20.8040   -3.1530  -31.1450 C   0  0  0  0  0  3  0  0  0  0  0  0
  -20.2160   -2.8940  -29.9470 C   0  0  0  0  0  0  0  0  0  0  0  0
  -19.8300   -1.6050  -29.6470 C   0  0  0  0  0  0  0  0  0  0  0  0
  -19.9680   -3.8550  -28.9760 O   0  0  0  0  0  0  0  0  0  0  0  0
  -20.0510   -0.5880  -30.5820 C   0  0  0  0  0  3  0  0  0  0  0  0
  -19.2380   -1.3680  -28.4330 O   0  0  0  0  0  0  0  0  0  0  0  0
  -19.4140   -2.1760  -27.2950 C   0  0  0  0  0  2  0  0  0  0  0  0
  -20.0730   -3.4840  -27.5950 C   0  0  0  0  0  2  0  0  0  0  0  0
  -21.6020   -0.0860  -39.0270 C   0  0  0  0  0  0  0  0  0  0  0  0
  -21.4520   -0.1320  -40.3750 N   0  0  0  0  0  0  0  0  0  0  0  0
  -22.1140   -1.0140  -41.1460 C   0  0  0  0  0  3  0  0  0  0  0  0
  -22.9670   -1.9040  -40.6070 N   0  0  0  0  0  0  0  0  0  0  0  0
  -23.1780   -1.9310  -39.2750 C   0  0  0  0  0  0  0  0  0  0  0  0
  -23.9610   -2.6980  -38.4740 N   0  0  0  0  0  0  0  0  0  0  0  0
  -22.4950   -1.0250  -38.5030 C   0  0  0  0  0  0  0  0  0  0  0  0
  -23.7590   -2.2690  -37.2420 N   0  0  0  0  0  0  0  0  0  0  0  0
  -24.8430   -3.7780  -38.9200 C   0  0  0  0  0  1  0  0  0  0  0  0
  -22.8850   -1.2610  -37.2030 C   0  0  0  0  0  3  0  0  0  0  0  0
  1  7  1  0  0  0  0
  2  1  1  0  0  0  0
  3  2  1  0  0  0  0
  4  5  1  0  0  0  0
  4  3  1  0  0  0  0
  5  6  1  0  0  0  0
  6  1  1  0  0  0  0
  7  8  1  0  0  0  0
  8 11  2  0  0  0  0
  8  9  1  0  0  0  0
  9 12  1  0  0  0  0
 10  9  1  0  0  0  0
 12 19  1  0  0  0  0
 13 12  2  0  0  0  0
 13 15  1  0  0  0  0
 14 13  1  0  0  0  0
 15 16  2  0  0  0  0
 16 17  1  0  0  0  0
 16 18  1  0  0  0  0
 17 20  1  0  0  0  0
 18 22  1  0  0  0  0
 19 17  2  0  0  0  0
 20 21  1  0  0  0  0
 22 21  1  0  0  0  0
 23 29  1  0  0  0  0
 23  4  1  0  0  0  0
 24 23  2  0  0  0  0
 25 26  2  0  0  0  0
 25 24  1  0  0  0  0
 26 27  1  0  0  0  0
 27 29  2  0  0  0  0
 27 28  1  0  0  0  0
 28 30  1  0  0  0  0
 29 32  1  0  0  0  0
 30 32  2  0  0  0  0
 31 28  1  0  0  0  0
M  END
>  <Pose>
1

>  <Score>
-9.506

$$$$
