MODEL 1
REMARK VINA RESULT:    -9.742      0.000      0.000
REMARK INTER + INTRA:         -11.458
REMARK INTER:                 -11.450
REMARK INTRA:                  -0.007
REMARK UNBOUND:                -0.007
REMARK  3 active torsions:
REMARK  status: ('A' for Active; 'I' for Inactive)
REMARK    1  A    between atoms: C_11  and  C_13 
REMARK       I    between atoms: C_13  and  N_15 
REMARK    2  A    between atoms: N_18  and  C_21 
REMARK    3  A    between atoms: C_21  and  C_22 
ROOT
ATOM      1  C   UNK d   1     -20.726  -0.435 -33.971  0.00  0.00     0.277 C 
ATOM      2  O   UNK d   1     -19.618   0.093 -34.279  0.00  0.00    -0.265 OA
ATOM      3  N   UNK d   1     -21.896  -0.028 -34.644  0.00  0.00    -0.343 N 
ATOM      4  C   UNK d   1     -21.796   0.982 -35.666  0.00  0.00     0.145 C 
ATOM      5  C   UNK d   1     -22.381   0.539 -36.990  0.00  0.00     0.137 C 
ATOM      6  N   UNK d   1     -23.440  -0.365 -36.733  0.00  0.00    -0.404 N 
ATOM      7  C   UNK d   1     -24.128  -0.081 -35.535  0.00  0.00     0.137 C 
ATOM      8  C   UNK d   1     -23.215  -0.552 -34.388  0.00  0.00     0.145 C 
ENDROOT
BRANCH   1   9
ATOM      9  C   UNK d   1     -20.730  -1.456 -32.916  0.00  0.00     0.147 A 
ATOM     10  C   UNK d   1     -21.107  -2.746 -33.210  0.00  0.00     0.098 A 
ATOM     11  C   UNK d   1     -21.126  -3.737 -32.252  0.00  0.00     0.187 A 
ATOM     12  C   UNK d   1     -20.754  -3.424 -30.957  0.00  0.00     0.048 A 
ATOM     13  O   UNK d   1     -21.476  -4.931 -32.535  0.00  0.00    -0.287 OA
ATOM     14  C   UNK d   1     -20.388  -2.112 -30.725  0.00  0.00     0.091 A 
ATOM     15  C   UNK d   1     -20.765  -4.391 -29.982  0.00  0.00     0.020 A 
ATOM     16  C   UNK d   1     -20.017  -1.803 -29.424  0.00  0.00     0.057 A 
ATOM     17  O   UNK d   1     -20.388  -1.211 -31.676  0.00  0.00    -0.304 OA
ATOM     18  C   UNK d   1     -20.017  -2.758 -28.422  0.00  0.00     0.013 A 
ATOM     19 Br   UNK d   1     -19.500  -2.292 -26.646  0.00  0.00    -0.051 Br
ATOM     20  C   UNK d   1     -20.392  -4.058 -28.703  0.00  0.00     0.020 A 
ENDBRANCH   1   9
BRANCH   6  21
ATOM     21  C   UNK d   1     -23.228  -1.716 -37.064  0.00  0.00     0.181 C 
BRANCH  21  22
ATOM     22  C   UNK d   1     -23.064  -2.002 -38.487  0.00  0.00     0.108 A 
ATOM     23  N   UNK d   1     -22.161  -1.427 -39.298  0.00  0.00    -0.106 NA
ATOM     24  O   UNK d   1     -22.323  -1.932 -40.469  0.00  0.00    -0.106 OA
ATOM     25  N   UNK d   1     -23.289  -2.815 -40.478  0.00  0.00    -0.108 NA
ATOM     26  C   UNK d   1     -23.793  -2.892 -39.227  0.00  0.00     0.088 A 
ATOM     27  C   UNK d   1     -24.911  -3.766 -38.760  0.00  0.00     0.075 C 
ENDBRANCH  21  22
ENDBRANCH   6  21
TORSDOF 3
ENDMDL
