/Users/jonathanwahrer/Desktop/Msc/3_Semester/Drug_Design_Praktikum/waehrer_HTS_screening/HTS_experiment/out/docking_results/vina_output/5l4q/0473_docked.pdbqt
 OpenBabel03212218053D

 29 32  0  0  0  0  0  0  0  0999 V2000
  -21.5010   -3.1700  -33.1710 C   0  0  0  0  0  2  0  0  0  0  0  0
  -20.6770   -3.7420  -32.0520 C   0  0  0  0  0  2  0  0  0  0  0  0
  -21.4870   -3.8010  -30.8100 C   0  0  0  0  0  2  0  0  0  0  0  0
  -20.8380   -3.1990  -29.6660 N   0  0  0  0  0  0  0  0  0  0  0  0
  -20.4480   -3.9390  -28.5180 C   0  0  0  0  0  0  0  0  0  0  0  0
  -19.8320   -3.0230  -27.5740 C   0  0  0  0  0  0  0  0  0  0  0  0
  -20.5890   -5.1860  -28.3040 O   0  0  0  0  0  0  0  0  0  0  0  0
  -19.8570   -1.7680  -28.1510 C   0  0  0  0  0  0  0  0  0  0  0  0
  -19.2850   -3.2080  -26.3210 C   0  0  0  0  0  3  0  0  0  0  0  0
  -19.3200   -0.7180  -27.4290 C   0  0  0  0  0  3  0  0  0  0  0  0
  -20.4900   -1.8500  -29.4760 C   0  0  0  0  0  0  0  0  0  0  0  0
  -18.7750   -0.9160  -26.1760 C   0  0  0  0  0  0  0  0  0  0  0  0
  -18.0500    0.5790  -25.2370 Br  0  0  0  0  0  0  0  0  0  0  0  0
  -18.7460   -2.1660  -25.5940 C   0  0  0  0  0  3  0  0  0  0  0  0
  -20.6700   -0.8820  -30.2650 O   0  0  0  0  0  0  0  0  0  0  0  0
  -21.0160   -1.8670  -33.6820 C   0  0  0  0  0  0  0  0  0  0  0  0
  -19.8570   -1.4240  -33.4710 O   0  0  0  0  0  0  0  0  0  0  0  0
  -21.8790   -1.0240  -34.4690 N   0  0  0  0  0  0  0  0  0  0  0  0
  -21.4150    0.2480  -34.9740 C   0  0  0  0  0  2  0  0  0  0  0  0
  -23.2420   -1.4030  -34.7920 C   0  0  0  0  0  2  0  0  0  0  0  0
  -21.7950    0.5000  -36.3950 C   0  0  0  0  0  2  0  0  0  0  0  0
  -22.5630   -0.5600  -37.0020 N   0  0  0  0  0  0  0  0  0  0  0  0
  -23.4420   -1.4460  -36.2870 C   0  0  0  0  0  2  0  0  0  0  0  0
  -22.4420   -0.7430  -38.4170 C   0  0  0  0  0  0  0  0  0  0  0  0
  -21.8380    0.1870  -39.2060 N   0  0  0  0  0  0  0  0  0  0  0  0
  -21.7060    0.0550  -40.5250 C   0  0  0  0  0  3  0  0  0  0  0  0
  -22.2060   -1.0840  -41.1380 C   0  0  0  0  0  3  0  0  0  0  0  0
  -22.8130   -2.0300  -40.3810 N   0  0  0  0  0  0  0  0  0  0  0  0
  -22.9280   -1.8620  -39.0530 C   0  0  0  0  0  3  0  0  0  0  0  0
  1  2  1  0  0  0  0
  2  3  1  0  0  0  0
  3  4  1  0  0  0  0
  4 11  1  0  0  0  0
  4  5  1  0  0  0  0
  5  7  2  0  0  0  0
  5  6  1  0  0  0  0
  6  9  1  0  0  0  0
  8  6  2  0  0  0  0
  8 10  1  0  0  0  0
  9 14  2  0  0  0  0
 10 12  2  0  0  0  0
 11  8  1  0  0  0  0
 12 14  1  0  0  0  0
 12 13  1  0  0  0  0
 15 11  2  0  0  0  0
 16 17  2  0  0  0  0
 16  1  1  0  0  0  0
 18 16  1  0  0  0  0
 19 18  1  0  0  0  0
 20 18  1  0  0  0  0
 21 19  1  0  0  0  0
 22 21  1  0  0  0  0
 22 23  1  0  0  0  0
 23 20  1  0  0  0  0
 24 22  1  0  0  0  0
 25 24  2  0  0  0  0
 26 25  1  0  0  0  0
 27 26  2  0  0  0  0
 27 28  1  0  0  0  0
 28 29  2  0  0  0  0
 29 24  1  0  0  0  0
M  END
>  <Pose>
1

>  <Score>
-9.913

$$$$
