MODEL 1
REMARK VINA RESULT:    -9.913      0.000      0.000
REMARK INTER + INTRA:         -13.554
REMARK INTER:                 -12.811
REMARK INTRA:                  -0.743
REMARK UNBOUND:                -0.743
REMARK  5 active torsions:
REMARK  status: ('A' for Active; 'I' for Inactive)
REMARK    1  A    between atoms: N_10  and  C_13 
REMARK    2  A    between atoms: C_13  and  C_14 
REMARK    3  A    between atoms: C_14  and  C_15 
REMARK    4  A    between atoms: C_15  and  C_16 
REMARK       I    between atoms: C_16  and  N_18 
REMARK    5  A    between atoms: N_21  and  C_24 
ROOT
ATOM      1  C   UNK d   1     -21.501  -3.170 -33.171  0.00  0.00     0.104 C 
ENDROOT
BRANCH   1   2
ATOM      2  C   UNK d   1     -20.677  -3.742 -32.052  0.00  0.00     0.029 C 
BRANCH   2   3
ATOM      3  C   UNK d   1     -21.487  -3.801 -30.810  0.00  0.00     0.136 C 
BRANCH   3   4
ATOM      4  N   UNK d   1     -20.838  -3.199 -29.666  0.00  0.00    -0.280 N 
ATOM      5  C   UNK d   1     -20.448  -3.939 -28.518  0.00  0.00     0.261 A 
ATOM      6  C   UNK d   1     -19.832  -3.023 -27.574  0.00  0.00     0.048 A 
ATOM      7  O   UNK d   1     -20.589  -5.186 -28.304  0.00  0.00    -0.267 OA
ATOM      8  C   UNK d   1     -19.857  -1.768 -28.151  0.00  0.00     0.049 A 
ATOM      9  C   UNK d   1     -19.285  -3.208 -26.321  0.00  0.00     0.019 A 
ATOM     10  C   UNK d   1     -19.320  -0.718 -27.429  0.00  0.00     0.037 A 
ATOM     11  C   UNK d   1     -20.490  -1.850 -29.476  0.00  0.00     0.261 A 
ATOM     12  C   UNK d   1     -18.775  -0.916 -26.176  0.00  0.00     0.011 A 
ATOM     13 Br   UNK d   1     -18.050   0.579 -25.237  0.00  0.00    -0.051 Br
ATOM     14  C   UNK d   1     -18.746  -2.166 -25.594  0.00  0.00     0.020 A 
ATOM     15  O   UNK d   1     -20.670  -0.882 -30.265  0.00  0.00    -0.267 OA
ENDBRANCH   3   4
ENDBRANCH   2   3
ENDBRANCH   1   2
BRANCH   1  16
ATOM     16  C   UNK d   1     -21.016  -1.867 -33.682  0.00  0.00     0.219 C 
ATOM     17  O   UNK d   1     -19.857  -1.424 -33.471  0.00  0.00    -0.273 OA
ATOM     18  N   UNK d   1     -21.879  -1.024 -34.469  0.00  0.00    -0.349 N 
ATOM     19  C   UNK d   1     -21.415   0.248 -34.974  0.00  0.00     0.145 C 
ATOM     20  C   UNK d   1     -23.242  -1.403 -34.792  0.00  0.00     0.145 C 
ATOM     21  C   UNK d   1     -21.795   0.500 -36.395  0.00  0.00     0.144 C 
ATOM     22  N   UNK d   1     -22.563  -0.560 -37.002  0.00  0.00    -0.362 N 
ATOM     23  C   UNK d   1     -23.442  -1.446 -36.287  0.00  0.00     0.144 C 
BRANCH  22  24
ATOM     24  C   UNK d   1     -22.442  -0.743 -38.417  0.00  0.00     0.143 A 
ATOM     25  N   UNK d   1     -21.838   0.187 -39.206  0.00  0.00    -0.241 NA
ATOM     26  C   UNK d   1     -21.706   0.055 -40.525  0.00  0.00     0.138 A 
ATOM     27  C   UNK d   1     -22.206  -1.084 -41.138  0.00  0.00     0.135 A 
ATOM     28  N   UNK d   1     -22.813  -2.030 -40.381  0.00  0.00    -0.268 NA
ATOM     29  C   UNK d   1     -22.928  -1.862 -39.053  0.00  0.00     0.166 A 
ENDBRANCH  22  24
ENDBRANCH   1  16
TORSDOF 5
ENDMDL
