MODEL 1
REMARK VINA RESULT:    -9.022      0.000      0.000
REMARK INTER + INTRA:         -14.366
REMARK INTER:                 -13.241
REMARK INTRA:                  -1.126
REMARK UNBOUND:                -1.126
REMARK  8 active torsions:
REMARK  status: ('A' for Active; 'I' for Inactive)
REMARK    1  A    between atoms: N_8  and  C_28 
REMARK    2  A    between atoms: C_11  and  N_12 
REMARK       I    between atoms: N_13  and  C_14 
REMARK    3  A    between atoms: C_14  and  C_16 
REMARK    4  A    between atoms: C_16  and  O_17 
REMARK    5  A    between atoms: O_17  and  N_18 
REMARK    6  A    between atoms: C_19  and  C_20 
REMARK    7  A    between atoms: C_23  and  O_26 
REMARK    8  A    between atoms: C_28  and  N_29 
ROOT
ATOM      1 Br   UNK d   1     -22.598  -6.135 -32.619  0.00  0.00    -0.051 Br
ATOM      2  C   UNK d   1     -21.914  -4.357 -32.485  0.00  0.00     0.011 A 
ATOM      3  C   UNK d   1     -21.268  -3.904 -31.326  0.00  0.00     0.035 A 
ATOM      4  C   UNK d   1     -20.812  -2.618 -31.346  0.00  0.00     0.028 A 
ATOM      5  C   UNK d   1     -20.954  -1.762 -32.419  0.00  0.00     0.052 A 
ATOM      6  C   UNK d   1     -21.593  -2.208 -33.553  0.00  0.00     0.032 A 
ATOM      7  C   UNK d   1     -22.071  -3.526 -33.573  0.00  0.00     0.021 A 
ATOM      8  N   UNK d   1     -20.383  -0.486 -32.159  0.00  0.00    -0.295 N 
ATOM      9  C   UNK d   1     -19.852  -0.551 -30.810  0.00  0.00     0.281 A 
ATOM     10  O   UNK d   1     -19.256   0.378 -30.227  0.00  0.00    -0.265 OA
ATOM     11  C   UNK d   1     -20.142  -1.881 -30.321  0.00  0.00     0.157 A 
ENDROOT
BRANCH  11  12
ATOM     12  N   UNK d   1     -20.004  -2.339 -29.137  0.00  0.00    -0.166 NA
ATOM     13  N   UNK d   1     -19.966  -3.278 -28.445  0.00  0.00    -0.244 N 
ATOM     14  C   UNK d   1     -19.935  -4.424 -27.618  0.00  0.00     0.264 C 
ATOM     15  H   UNK d   1     -21.066  -3.860 -29.061  0.00  0.00     0.192 HD
ATOM     16  O   UNK d   1     -20.566  -5.457 -27.626  0.00  0.00    -0.269 OA
BRANCH  14  17
ATOM     17  C   UNK d   1     -18.874  -4.224 -26.513  0.00  0.00     0.308 C 
BRANCH  17  18
ATOM     18  O   UNK d   1     -19.587  -3.524 -25.470  0.00  0.00    -0.247 OA
BRANCH  18  19
ATOM     19  N   UNK d   1     -19.365  -2.117 -25.448  0.00  0.00    -0.145 NA
ATOM     20  C   UNK d   1     -18.223  -1.619 -25.720  0.00  0.00     0.157 C 
BRANCH  20  21
ATOM     21  C   UNK d   1     -18.019  -0.189 -25.675  0.00  0.00    -0.016 A 
ATOM     22  C   UNK d   1     -17.984   0.566 -24.551  0.00  0.00     0.015 A 
ATOM     23  C   UNK d   1     -17.847   1.966 -24.734  0.00  0.00     0.037 A 
ATOM     24  C   UNK d   1     -17.738   2.616 -25.890  0.00  0.00     0.068 A 
ATOM     25  C   UNK d   1     -17.774   1.818 -26.983  0.00  0.00     0.037 A 
ATOM     26  C   UNK d   1     -17.908   0.482 -27.015  0.00  0.00     0.015 A 
BRANCH  24  27
ATOM     27  O   UNK d   1     -17.601   4.009 -25.923  0.00  0.00    -0.356 OA
ATOM     28  C   UNK d   1     -16.599   4.658 -25.149  0.00  0.00     0.210 C 
ENDBRANCH  24  27
ENDBRANCH  20  21
ENDBRANCH  18  19
ENDBRANCH  17  18
ENDBRANCH  14  17
ENDBRANCH  11  12
BRANCH   8  29
ATOM     29  C   UNK d   1     -20.234   0.702 -32.984  0.00  0.00     0.253 C 
BRANCH  29  30
ATOM     30  N   UNK d   1     -19.251   0.549 -33.940  0.00  0.00    -0.392 N 
ATOM     31  C   UNK d   1     -19.772   0.448 -35.242  0.00  0.00     0.145 C 
ATOM     32  C   UNK d   1     -18.951   1.323 -36.193  0.00  0.00     0.187 C 
ATOM     33  O   UNK d   1     -18.943   2.587 -35.542  0.00  0.00    -0.388 OA
ATOM     34  C   UNK d   1     -18.038   2.545 -34.474  0.00  0.00     0.187 C 
ATOM     35  C   UNK d   1     -18.043   1.242 -33.738  0.00  0.00     0.145 C 
ENDBRANCH  29  30
ENDBRANCH   8  29
TORSDOF 8
ENDMDL
