/Users/jonathanwahrer/Desktop/Msc/3_Semester/Drug_Design_Praktikum/waehrer_HTS_screening/HTS_experiment/out/docking_results/vina_output/5l4q/0484_docked.pdbqt
 OpenBabel03212218063D

 35 38  0  0  1  0  0  0  0  0999 V2000
  -22.5980   -6.1350  -32.6190 Br  0  0  0  0  0  0  0  0  0  0  0  0
  -21.9140   -4.3570  -32.4850 C   0  0  0  0  0  0  0  0  0  0  0  0
  -21.2680   -3.9040  -31.3260 C   0  0  0  0  0  3  0  0  0  0  0  0
  -20.8120   -2.6180  -31.3460 C   0  0  0  0  0  0  0  0  0  0  0  0
  -20.9540   -1.7620  -32.4190 C   0  0  0  0  0  0  0  0  0  0  0  0
  -21.5930   -2.2080  -33.5530 C   0  0  0  0  0  3  0  0  0  0  0  0
  -22.0710   -3.5260  -33.5730 C   0  0  0  0  0  3  0  0  0  0  0  0
  -20.3830   -0.4860  -32.1590 N   0  0  0  0  0  0  0  0  0  0  0  0
  -19.8520   -0.5510  -30.8100 C   0  0  0  0  0  0  0  0  0  0  0  0
  -19.2560    0.3780  -30.2270 O   0  0  0  0  0  0  0  0  0  0  0  0
  -20.1420   -1.8810  -30.3210 C   0  0  1  0  0  3  0  0  0  0  0  0
  -20.0040   -2.3390  -29.1370 N   0  0  0  0  0  2  0  0  0  0  0  0
  -19.9660   -3.2780  -28.4450 N   0  0  0  0  0  0  0  0  0  0  0  0
  -19.9350   -4.4240  -27.6180 C   0  0  0  0  0  0  0  0  0  0  0  0
  -21.0660   -3.8600  -29.0610 H   0  0  0  0  0  0  0  0  0  0  0  0
  -20.5660   -5.4570  -27.6260 O   0  0  0  0  0  0  0  0  0  0  0  0
  -18.8740   -4.2240  -26.5130 C   0  0  0  0  0  2  0  0  0  0  0  0
  -19.5870   -3.5240  -25.4700 O   0  0  0  0  0  0  0  0  0  0  0  0
  -19.3650   -2.1170  -25.4480 N   0  0  0  0  0  0  0  0  0  0  0  0
  -18.2230   -1.6190  -25.7200 C   0  0  0  0  0  3  0  0  0  0  0  0
  -18.0190   -0.1890  -25.6750 C   0  0  0  0  0  0  0  0  0  0  0  0
  -17.9840    0.5660  -24.5510 C   0  0  0  0  0  3  0  0  0  0  0  0
  -17.8470    1.9660  -24.7340 C   0  0  0  0  0  3  0  0  0  0  0  0
  -17.7380    2.6160  -25.8900 C   0  0  0  0  0  0  0  0  0  0  0  0
  -17.7740    1.8180  -26.9830 C   0  0  0  0  0  3  0  0  0  0  0  0
  -17.9080    0.4820  -27.0150 C   0  0  0  0  0  3  0  0  0  0  0  0
  -17.6010    4.0090  -25.9230 O   0  0  0  0  0  0  0  0  0  0  0  0
  -16.5990    4.6580  -25.1490 C   0  0  0  0  0  1  0  0  0  0  0  0
  -20.2340    0.7020  -32.9840 C   0  0  0  0  0  2  0  0  0  0  0  0
  -19.2510    0.5490  -33.9400 N   0  0  0  0  0  0  0  0  0  0  0  0
  -19.7720    0.4480  -35.2420 C   0  0  0  0  0  2  0  0  0  0  0  0
  -18.9510    1.3230  -36.1930 C   0  0  0  0  0  2  0  0  0  0  0  0
  -18.9430    2.5870  -35.5420 O   0  0  0  0  0  0  0  0  0  0  0  0
  -18.0380    2.5450  -34.4740 C   0  0  0  0  0  2  0  0  0  0  0  0
  -18.0430    1.2420  -33.7380 C   0  0  0  0  0  2  0  0  0  0  0  0
  1  2  1  0  0  0  0
  2  3  1  0  0  0  0
  4  3  2  0  0  0  0
  4 11  1  0  0  0  0
  5  8  1  0  0  0  0
  5  4  1  0  0  0  0
  6  5  2  0  0  0  0
  7  6  1  0  0  0  0
  7  2  2  0  0  0  0
  8  9  1  0  0  0  0
  9 11  1  0  0  0  0
  9 10  2  0  0  0  0
 11 12  1  1  0  0  0
 12 13  1  0  0  0  0
 13 14  1  0  0  0  0
 14 17  1  0  0  0  0
 15 13  1  0  0  0  0
 16 14  2  0  0  0  0
 17 18  1  0  0  0  0
 18 19  1  0  0  0  0
 20 21  1  0  0  0  0
 20 19  2  0  0  0  0
 21 22  1  0  0  0  0
 23 22  2  0  0  0  0
 24 23  1  0  0  0  0
 25 24  2  0  0  0  0
 26 25  1  0  0  0  0
 26 21  2  0  0  0  0
 27 24  1  0  0  0  0
 27 28  1  0  0  0  0
 29  8  1  0  0  0  0
 30 35  1  0  0  0  0
 30 29  1  0  0  0  0
 31 30  1  0  0  0  0
 32 33  1  0  0  0  0
 32 31  1  0  0  0  0
 33 34  1  0  0  0  0
 34 35  1  0  0  0  0
M  END
>  <Pose>
1

>  <Score>
-9.022

$$$$
