MODEL 1
REMARK VINA RESULT:    -6.883      0.000      0.000
REMARK INTER + INTRA:          -7.084
REMARK INTER:                  -7.084
REMARK INTRA:                   0.000
REMARK UNBOUND:                 0.000
REMARK  1 active torsions:
REMARK  status: ('A' for Active; 'I' for Inactive)
REMARK    1  A    between atoms: C_15  and  N_19 
ROOT
ATOM      1 Br   UNK d   1     -24.272   5.289 -41.176  0.00  0.00    -0.051 Br
ATOM      2  C   UNK d   1     -22.815   4.677 -40.122  0.00  0.00     0.011 A 
ATOM      3  C   UNK d   1     -22.582   3.347 -39.865  0.00  0.00     0.030 A 
ATOM      4  C   UNK d   1     -21.489   2.979 -39.081  0.00  0.00    -0.002 A 
ATOM      5  C   UNK d   1     -20.625   3.874 -38.545  0.00  0.00     0.045 A 
ATOM      6  C   UNK d   1     -20.863   5.226 -38.806  0.00  0.00     0.031 A 
ATOM      7  C   UNK d   1     -21.936   5.608 -39.579  0.00  0.00     0.021 A 
ATOM      8  N   UNK d   1     -19.604   3.247 -37.793  0.00  0.00    -0.320 N 
ATOM      9  C   UNK d   1     -19.829   1.858 -37.849  0.00  0.00     0.247 A 
ATOM     10  O   UNK d   1     -19.125   0.967 -37.298  0.00  0.00    -0.271 OA
ATOM     11  C   UNK d   1     -21.043   1.607 -38.675  0.00  0.00     0.146 A 
ATOM     12  C   UNK d   1     -22.101   0.960 -37.857  0.00  0.00     0.071 A 
ATOM     13  C   UNK d   1     -22.682  -0.127 -38.213  0.00  0.00     0.060 A 
ATOM     14  N   UNK d   1     -22.359  -0.824 -39.449  0.00  0.00    -0.342 N 
ATOM     15  C   UNK d   1     -21.355  -0.219 -40.236  0.00  0.00     0.118 A 
ATOM     16  C   UNK d   1     -20.751   0.885 -39.893  0.00  0.00     0.093 A 
ATOM     17  C   UNK d   1     -19.734   1.391 -40.807  0.00  0.00     0.101 C 
ATOM     18  N   UNK d   1     -18.922   1.810 -41.519  0.00  0.00    -0.191 NA
ATOM     19  C   UNK d   1     -23.686  -0.499 -37.169  0.00  0.00     0.106 A 
ATOM     20  O   UNK d   1     -23.599   0.487 -36.209  0.00  0.00    -0.301 OA
ATOM     21  C   UNK d   1     -22.661   1.416 -36.544  0.00  0.00     0.294 A 
ATOM     22  O   UNK d   1     -22.290   2.461 -35.928  0.00  0.00    -0.259 OA
ATOM     23  C   UNK d   1     -23.391  -1.889 -36.638  0.00  0.00     0.053 C 
ATOM     24  C   UNK d   1     -25.091  -0.474 -37.743  0.00  0.00     0.053 C 
ATOM     25  C   UNK d   1     -18.497   3.889 -37.069  0.00  0.00     0.159 C 
ATOM     26  H   UNK d   1     -22.859  -1.698 -39.687  0.00  0.00     0.167 HD
ENDROOT
BRANCH  15  27
ATOM     27  N   UNK d   1     -20.990  -0.872 -41.483  0.00  0.00    -0.384 N 
ATOM     28  H   UNK d   1     -20.899  -1.908 -41.462  0.00  0.00     0.157 HD
ATOM     29  H   UNK d   1     -20.827  -0.334 -42.346  0.00  0.00     0.157 HD
ENDBRANCH  15  27
TORSDOF 1
ENDMDL
