/Users/jonathanwahrer/Desktop/Msc/3_Semester/Drug_Design_Praktikum/waehrer_HTS_screening/HTS_experiment/out/docking_results/vina_output/5l4q/0504_docked.pdbqt
 OpenBabel03212218063D

 29 32  0  0  1  0  0  0  0  0999 V2000
  -24.2720    5.2890  -41.1760 Br  0  0  0  0  0  0  0  0  0  0  0  0
  -22.8150    4.6770  -40.1220 C   0  0  0  0  0  0  0  0  0  0  0  0
  -22.5820    3.3470  -39.8650 C   0  0  0  0  0  3  0  0  0  0  0  0
  -21.4890    2.9790  -39.0810 C   0  0  0  0  0  0  0  0  0  0  0  0
  -20.6250    3.8740  -38.5450 C   0  0  0  0  0  0  0  0  0  0  0  0
  -20.8630    5.2260  -38.8060 C   0  0  0  0  0  3  0  0  0  0  0  0
  -21.9360    5.6080  -39.5790 C   0  0  0  0  0  3  0  0  0  0  0  0
  -19.6040    3.2470  -37.7930 N   0  0  0  0  0  0  0  0  0  0  0  0
  -19.8290    1.8580  -37.8490 C   0  0  0  0  0  0  0  0  0  0  0  0
  -19.1250    0.9670  -37.2980 O   0  0  0  0  0  0  0  0  0  0  0  0
  -21.0430    1.6070  -38.6750 C   0  0  1  0  0  0  0  0  0  0  0  0
  -22.1010    0.9600  -37.8570 C   0  0  0  0  0  0  0  0  0  0  0  0
  -22.6820   -0.1270  -38.2130 C   0  0  0  0  0  0  0  0  0  0  0  0
  -22.3590   -0.8240  -39.4490 N   0  0  0  0  0  0  0  0  0  0  0  0
  -21.3550   -0.2190  -40.2360 C   0  0  0  0  0  0  0  0  0  0  0  0
  -20.7510    0.8850  -39.8930 C   0  0  0  0  0  0  0  0  0  0  0  0
  -19.7340    1.3910  -40.8070 C   0  0  0  0  0  0  0  0  0  0  0  0
  -18.9220    1.8100  -41.5190 N   0  0  0  0  0  0  0  0  0  0  0  0
  -23.6860   -0.4990  -37.1690 C   0  0  0  0  0  0  0  0  0  0  0  0
  -23.5990    0.4870  -36.2090 O   0  0  0  0  0  0  0  0  0  0  0  0
  -22.6610    1.4160  -36.5440 C   0  0  0  0  0  0  0  0  0  0  0  0
  -22.2900    2.4610  -35.9280 O   0  0  0  0  0  0  0  0  0  0  0  0
  -23.3910   -1.8890  -36.6380 C   0  0  0  0  0  1  0  0  0  0  0  0
  -25.0910   -0.4740  -37.7430 C   0  0  0  0  0  1  0  0  0  0  0  0
  -18.4970    3.8890  -37.0690 C   0  0  0  0  0  1  0  0  0  0  0  0
  -22.8590   -1.6980  -39.6870 H   0  0  0  0  0  0  0  0  0  0  0  0
  -20.9900   -0.8720  -41.4830 N   0  0  0  0  0  0  0  0  0  0  0  0
  -20.8990   -1.9080  -41.4620 H   0  0  0  0  0  0  0  0  0  0  0  0
  -20.8270   -0.3340  -42.3460 H   0  0  0  0  0  0  0  0  0  0  0  0
  1  2  1  0  0  0  0
  2  3  2  0  0  0  0
  2  7  1  0  0  0  0
  3  4  1  0  0  0  0
  4 11  1  0  0  0  0
  4  5  2  0  0  0  0
  5  8  1  0  0  0  0
  6  5  1  0  0  0  0
  7  6  2  0  0  0  0
  8 25  1  0  0  0  0
  9  8  1  0  0  0  0
  9 10  2  0  0  0  0
 11 16  1  6  0  0  0
 11 12  1  0  0  0  0
 11  9  1  0  0  0  0
 12 21  1  0  0  0  0
 13 12  2  0  0  0  0
 13 19  1  0  0  0  0
 14 13  1  0  0  0  0
 15 16  2  0  0  0  0
 15 14  1  0  0  0  0
 17 16  1  0  0  0  0
 18 17  3  0  0  0  0
 19 23  1  0  0  0  0
 19 20  1  0  0  0  0
 21 20  1  0  0  0  0
 21 22  2  0  0  0  0
 24 19  1  0  0  0  0
 26 14  1  0  0  0  0
 27 28  1  0  0  0  0
 27 15  1  0  0  0  0
 29 27  1  0  0  0  0
M  END
>  <Pose>
1

>  <Score>
-6.883

$$$$
