/Users/jonathanwahrer/Desktop/Msc/3_Semester/Drug_Design_Praktikum/waehrer_HTS_screening/HTS_experiment/out/docking_results/vina_output/5l4q/0505_docked.pdbqt
 OpenBabel03212218073D

 30 33  0  0  1  0  0  0  0  0999 V2000
  -24.0330    5.4760  -39.8660 Br  0  0  0  0  0  0  0  0  0  0  0  0
  -22.5090    4.7260  -39.0090 C   0  0  0  0  0  0  0  0  0  0  0  0
  -22.4150    3.3610  -38.8480 C   0  0  0  0  0  3  0  0  0  0  0  0
  -21.3050    2.7850  -38.2220 C   0  0  0  0  0  0  0  0  0  0  0  0
  -20.3280    3.6180  -37.7810 C   0  0  0  0  0  0  0  0  0  0  0  0
  -20.4250    5.0150  -37.9450 C   0  0  0  0  0  3  0  0  0  0  0  0
  -21.5200    5.5740  -38.5630 C   0  0  0  0  0  3  0  0  0  0  0  0
  -19.2990    2.8430  -37.1790 N   0  0  0  0  0  0  0  0  0  0  0  0
  -19.6340    1.4780  -37.2420 C   0  0  0  0  0  0  0  0  0  0  0  0
  -18.9670    0.5030  -36.8140 O   0  0  0  0  0  0  0  0  0  0  0  0
  -20.9580    1.3640  -37.9230 C   0  0  1  0  0  0  0  0  0  0  0  0
  -21.9530    0.7500  -37.0370 C   0  0  0  0  0  0  0  0  0  0  0  0
  -22.6550   -0.3500  -37.4080 C   0  0  0  0  0  0  0  0  0  0  0  0
  -22.4420   -0.9320  -38.6610 O   0  0  0  0  0  0  0  0  0  0  0  0
  -21.5160   -0.3930  -39.5320 C   0  0  0  0  0  0  0  0  0  0  0  0
  -20.8300    0.6590  -39.2020 C   0  0  0  0  0  0  0  0  0  0  0  0
  -19.8670    1.1640  -40.1910 C   0  0  0  0  0  0  0  0  0  0  0  0
  -19.1260    1.5620  -40.9590 N   0  0  0  0  0  0  0  0  0  0  0  0
  -23.5940   -0.9000  -36.5310 C   0  0  0  0  0  0  0  0  0  0  0  0
  -24.2330   -1.9120  -36.8840 O   0  0  0  0  0  0  0  0  0  0  0  0
  -23.7920   -0.3170  -35.3010 C   0  0  0  0  0  3  0  0  0  0  0  0
  -23.0500    0.8000  -34.9780 C   0  0  0  0  0  0  0  0  0  0  0  0
  -22.1980    1.2630  -35.8290 O   0  0  0  0  0  0  0  0  0  0  0  0
  -18.0820    3.4370  -36.5930 C   0  0  0  0  0  1  0  0  0  0  0  0
  -21.3510   -1.0450  -40.8030 N   0  0  0  0  0  0  0  0  0  0  0  0
  -21.0130   -0.4980  -41.5920 H   0  0  0  0  0  0  0  0  0  0  0  0
  -21.5790   -2.0360  -40.8710 H   0  0  0  0  0  0  0  0  0  0  0  0
  -23.2510    1.4600  -33.6300 C   0  0  0  0  0  2  0  0  0  0  0  0
  -24.6110    1.4560  -33.3190 O   0  0  0  0  0  0  0  0  0  0  0  0
  -25.0650    2.1910  -33.8300 H   0  0  0  0  0  0  0  0  0  0  0  0
  1  2  1  0  0  0  0
  2  3  2  0  0  0  0
  2  7  1  0  0  0  0
  3  4  1  0  0  0  0
  4 11  1  0  0  0  0
  4  5  2  0  0  0  0
  5  8  1  0  0  0  0
  6  5  1  0  0  0  0
  7  6  2  0  0  0  0
  8 24  1  0  0  0  0
  9  8  1  0  0  0  0
  9 10  2  0  0  0  0
 11 16  1  6  0  0  0
 11  9  1  0  0  0  0
 11 12  1  0  0  0  0
 12 23  1  0  0  0  0
 13 12  2  0  0  0  0
 13 19  1  0  0  0  0
 14 13  1  0  0  0  0
 15 16  2  0  0  0  0
 15 14  1  0  0  0  0
 17 16  1  0  0  0  0
 18 17  3  0  0  0  0
 19 21  1  0  0  0  0
 20 19  2  0  0  0  0
 21 22  2  0  0  0  0
 22 28  1  0  0  0  0
 23 22  1  0  0  0  0
 25 15  1  0  0  0  0
 26 25  1  0  0  0  0
 27 25  1  0  0  0  0
 28 29  1  0  0  0  0
 30 29  1  0  0  0  0
M  END
>  <Pose>
1

>  <Score>
-7.692

$$$$
