MODEL 1
REMARK VINA RESULT:   -10.058      0.000      0.000
REMARK INTER + INTRA:         -13.050
REMARK INTER:                 -12.410
REMARK INTRA:                  -0.640
REMARK UNBOUND:                -0.640
REMARK  4 active torsions:
REMARK  status: ('A' for Active; 'I' for Inactive)
REMARK    1  A    between atoms: C_12  and  N_13 
REMARK    2  A    between atoms: N_13  and  N_14 
REMARK       I    between atoms: N_14  and  C_15 
REMARK    3  A    between atoms: C_15  and  C_17 
REMARK    4  A    between atoms: C_17  and  N_18 
ROOT
ATOM      1  N   UNK d   1     -20.708  -0.260 -31.579  0.00  0.00    -0.269 N 
ATOM      2  C   UNK d   1     -20.499  -0.220 -32.984  0.00  0.00     0.254 C 
ATOM      3  O   UNK d   1     -19.509  -0.823 -33.426  0.00  0.00    -0.270 OA
ATOM      4  H   UNK d   1     -21.533   0.259 -31.208  0.00  0.00     0.190 HD
ENDROOT
BRANCH   1   5
ATOM      5  N   UNK d   1     -19.883  -0.936 -30.699  0.00  0.00    -0.308 N 
ATOM      6  H   UNK d   1     -18.984  -0.486 -30.374  0.00  0.00     0.186 HD
BRANCH   5   7
ATOM      7  C   UNK d   1     -20.153  -2.212 -30.185  0.00  0.00     0.125 C 
ATOM      8  C   UNK d   1     -19.932  -2.595 -28.947  0.00  0.00     0.061 A 
ATOM      9  C   UNK d   1     -19.373  -1.831 -27.826  0.00  0.00     0.009 A 
ATOM     10  C   UNK d   1     -20.208  -3.930 -28.392  0.00  0.00     0.258 A 
ATOM     11  C   UNK d   1     -18.925  -0.533 -27.713  0.00  0.00     0.034 A 
ATOM     12  C   UNK d   1     -19.310  -2.610 -26.695  0.00  0.00     0.046 A 
ATOM     13  C   UNK d   1     -18.427   0.002 -26.526  0.00  0.00     0.011 A 
ATOM     14 Br   UNK d   1     -17.829   1.819 -26.453  0.00  0.00    -0.051 Br
ATOM     15  C   UNK d   1     -18.380  -0.807 -25.420  0.00  0.00     0.021 A 
ATOM     16  C   UNK d   1     -18.814  -2.106 -25.484  0.00  0.00     0.032 A 
ATOM     17  N   UNK d   1     -19.818  -3.894 -27.031  0.00  0.00    -0.322 N 
ATOM     18  H   UNK d   1     -19.898  -4.707 -26.377  0.00  0.00     0.169 HD
ATOM     19  O   UNK d   1     -20.696  -4.885 -29.043  0.00  0.00    -0.267 OA
ENDBRANCH   5   7
ENDBRANCH   1   5
BRANCH   2  20
ATOM     20  C   UNK d   1     -21.399   0.493 -33.917  0.00  0.00     0.236 C 
BRANCH  20  21
ATOM     21  N   UNK d   1     -22.141  -0.374 -34.706  0.00  0.00    -0.316 N 
ATOM     22  C   UNK d   1     -22.200  -0.554 -36.025  0.00  0.00     0.149 A 
ATOM     23  C   UNK d   1     -23.161  -1.517 -36.304  0.00  0.00     0.170 A 
ATOM     24  N   UNK d   1     -21.485   0.035 -37.005  0.00  0.00    -0.287 N 
ATOM     25  N   UNK d   1     -23.671  -1.907 -35.121  0.00  0.00    -0.234 NA
ATOM     26  C   UNK d   1     -23.405  -1.890 -37.611  0.00  0.00     0.283 A 
ATOM     27  C   UNK d   1     -23.067  -1.231 -34.171  0.00  0.00     0.212 A 
ATOM     28  O   UNK d   1     -24.283  -2.763 -37.832  0.00  0.00    -0.265 OA
ATOM     29  N   UNK d   1     -22.695  -1.298 -38.559  0.00  0.00    -0.269 N 
ATOM     30  C   UNK d   1     -21.765  -0.368 -38.277  0.00  0.00     0.332 A 
ATOM     31  C   UNK d   1     -22.917  -1.657 -39.969  0.00  0.00     0.164 C 
ATOM     32  O   UNK d   1     -21.113   0.166 -39.205  0.00  0.00    -0.246 OA
ATOM     33  C   UNK d   1     -20.462   1.003 -36.734  0.00  0.00     0.163 C 
ENDBRANCH  20  21
ENDBRANCH   2  20
TORSDOF 4
ENDMDL
