MODEL 1
REMARK VINA RESULT:    -9.551      0.000      0.000
REMARK INTER + INTRA:         -12.265
REMARK INTER:                 -11.784
REMARK INTRA:                  -0.481
REMARK UNBOUND:                -0.481
REMARK  4 active torsions:
REMARK  status: ('A' for Active; 'I' for Inactive)
REMARK    1  A    between atoms: N_12  and  N_13 
REMARK       I    between atoms: N_13  and  C_14 
REMARK    2  A    between atoms: C_14  and  C_16 
REMARK    3  A    between atoms: C_16  and  N_17 
REMARK       I    between atoms: N_17  and  C_18 
REMARK    4  A    between atoms: C_18  and  C_20 
ROOT
ATOM      1  N   UNK d   1     -21.447  -2.537 -32.744  0.00  0.00    -0.245 N 
ATOM      2  C   UNK d   1     -21.555  -3.835 -32.213  0.00  0.00     0.255 C 
ATOM      3  O   UNK d   1     -22.212  -4.709 -32.882  0.00  0.00    -0.270 OA
ATOM      4  H   UNK d   1     -20.919  -1.802 -32.198  0.00  0.00     0.192 HD
ENDROOT
BRANCH   2   5
ATOM      5  C   UNK d   1     -20.988  -4.335 -30.957  0.00  0.00     0.227 C 
BRANCH   5   6
ATOM      6  N   UNK d   1     -20.363  -3.361 -30.109  0.00  0.00    -0.348 N 
ATOM      7  C   UNK d   1     -20.231  -3.565 -28.706  0.00  0.00     0.252 C 
ATOM      8  O   UNK d   1     -20.712  -4.677 -28.256  0.00  0.00    -0.268 OA
ATOM      9  H   UNK d   1     -20.000  -2.467 -30.474  0.00  0.00     0.163 HD
BRANCH   7  10
ATOM     10  C   UNK d   1     -19.627  -2.668 -27.769  0.00  0.00     0.034 A 
ATOM     11  C   UNK d   1     -19.217  -1.372 -28.046  0.00  0.00     0.056 A 
ATOM     12  C   UNK d   1     -18.659  -0.571 -27.109  0.00  0.00     0.106 A 
ATOM     13  C   UNK d   1     -18.470  -1.012 -25.815  0.00  0.00     0.105 A 
ATOM     14  O   UNK d   1     -18.158   0.784 -27.099  0.00  0.00    -0.323 OA
ATOM     15  C   UNK d   1     -18.853  -2.277 -25.499  0.00  0.00     0.041 A 
ATOM     16  O   UNK d   1     -17.886   0.027 -25.072  0.00  0.00    -0.323 OA
ATOM     17  C   UNK d   1     -19.436  -3.121 -26.456  0.00  0.00     0.020 A 
ATOM     18  C   UNK d   1     -18.434   1.203 -25.714  0.00  0.00     0.352 C 
ENDBRANCH   7  10
ENDBRANCH   5   6
ENDBRANCH   2   5
BRANCH   1  19
ATOM     19  N   UNK d   1     -22.010  -2.235 -33.933  0.00  0.00    -0.166 NA
ATOM     20  C   UNK d   1     -22.424  -1.320 -34.572  0.00  0.00     0.157 A 
ATOM     21  C   UNK d   1     -23.021  -1.247 -35.912  0.00  0.00     0.028 A 
ATOM     22  C   UNK d   1     -22.366   0.073 -34.036  0.00  0.00     0.277 A 
ATOM     23  C   UNK d   1     -23.299  -2.241 -36.825  0.00  0.00     0.035 A 
ATOM     24  C   UNK d   1     -23.298   0.061 -36.154  0.00  0.00     0.048 A 
ATOM     25  C   UNK d   1     -23.873  -1.960 -38.032  0.00  0.00     0.011 A 
ATOM     26 Br   UNK d   1     -24.266  -3.317 -39.300  0.00  0.00    -0.051 Br
ATOM     27  C   UNK d   1     -24.164  -0.628 -38.301  0.00  0.00     0.021 A 
ATOM     28  C   UNK d   1     -23.886   0.358 -37.388  0.00  0.00     0.032 A 
ATOM     29  N   UNK d   1     -22.925   0.886 -35.071  0.00  0.00    -0.321 N 
ATOM     30  H   UNK d   1     -23.029   1.926 -34.994  0.00  0.00     0.169 HD
ATOM     31  O   UNK d   1     -21.917   0.372 -32.928  0.00  0.00    -0.266 OA
ENDBRANCH   1  19
TORSDOF 4
ENDMDL
