MODEL 1
REMARK VINA RESULT:    -8.463      0.000      0.000
REMARK INTER + INTRA:          -9.973
REMARK INTER:                  -9.453
REMARK INTRA:                  -0.520
REMARK UNBOUND:                -0.520
REMARK  2 active torsions:
REMARK  status: ('A' for Active; 'I' for Inactive)
REMARK    1  A    between atoms: N_18  and  C_21 
REMARK    2  A    between atoms: C_21  and  C_22 
ROOT
ATOM      1 Br   UNK d   1     -24.077  -3.069 -39.061  0.00  0.00    -0.051 Br
ATOM      2  C   UNK d   1     -23.833  -1.729 -37.726  0.00  0.00     0.011 A 
ATOM      3  C   UNK d   1     -22.971  -1.907 -36.650  0.00  0.00     0.031 A 
ATOM      4  C   UNK d   1     -22.800  -0.941 -35.695  0.00  0.00     0.019 A 
ATOM      5  C   UNK d   1     -23.525   0.232 -35.842  0.00  0.00     0.044 A 
ATOM      6  C   UNK d   1     -24.382   0.415 -36.906  0.00  0.00     0.031 A 
ATOM      7  C   UNK d   1     -24.546  -0.563 -37.860  0.00  0.00     0.021 A 
ATOM      8  N   UNK d   1     -23.229   1.131 -34.770  0.00  0.00    -0.324 N 
ATOM      9  C   UNK d   1     -22.290   0.518 -33.912  0.00  0.00     0.267 A 
ATOM     10  O   UNK d   1     -21.828   1.045 -32.891  0.00  0.00    -0.270 OA
ATOM     11  C   UNK d   1     -22.001  -0.817 -34.479  0.00  0.00     0.281 A 
ATOM     12  N   UNK d   1     -22.264  -1.779 -33.451  0.00  0.00     0.118 N 
ATOM     13  C   UNK d   1     -21.119  -1.659 -32.551  0.00  0.00     0.239 C 
ATOM     14  C   UNK d   1     -19.948  -1.300 -33.405  0.00  0.00     0.128 C 
ATOM     15  C   UNK d   1     -20.531  -1.024 -34.747  0.00  0.00     0.147 C 
ATOM     16  C   UNK d   1     -19.848   0.177 -35.216  0.00  0.00     0.235 C 
ATOM     17  O   UNK d   1     -19.928   0.677 -36.361  0.00  0.00    -0.272 OA
ATOM     18  N   UNK d   1     -19.069   0.708 -34.173  0.00  0.00    -0.285 N 
ATOM     19  C   UNK d   1     -19.287  -0.031 -32.961  0.00  0.00     0.233 C 
ATOM     20  O   UNK d   1     -19.002   0.287 -31.779  0.00  0.00    -0.272 OA
ATOM     21  C   UNK d   1     -20.891  -3.057 -31.996  0.00  0.00     0.038 C 
ATOM     22  C   UNK d   1     -21.977  -3.927 -32.595  0.00  0.00     0.032 C 
ATOM     23  C   UNK d   1     -22.255  -3.158 -33.894  0.00  0.00     0.275 C 
ATOM     24  H   UNK d   1     -23.658   2.096 -34.657  0.00  0.00     0.169 HD
ENDROOT
BRANCH  18  25
ATOM     25  C   UNK d   1     -18.177   1.821 -34.270  0.00  0.00     0.166 C 
BRANCH  25  26
ATOM     26  C   UNK d   1     -18.665   3.080 -33.652  0.00  0.00     0.140 C 
ATOM     27  O   UNK d   1     -19.843   3.562 -34.211  0.00  0.00    -0.384 OA
ATOM     28  C   UNK d   1     -19.971   4.831 -33.663  0.00  0.00     0.168 C 
ATOM     29  C   UNK d   1     -18.604   5.428 -33.543  0.00  0.00     0.029 C 
ATOM     30  C   UNK d   1     -17.689   4.207 -33.631  0.00  0.00     0.035 C 
ENDBRANCH  25  26
ENDBRANCH  18  25
TORSDOF 2
ENDMDL
