MODEL 1
REMARK VINA RESULT:    -6.895      0.000      0.000
REMARK INTER + INTRA:          -9.337
REMARK INTER:                  -8.305
REMARK INTRA:                  -1.032
REMARK UNBOUND:                -1.032
REMARK  4 active torsions:
REMARK  status: ('A' for Active; 'I' for Inactive)
REMARK    1  A    between atoms: C_19  and  N_26 
REMARK    2  A    between atoms: C_20  and  C_21 
REMARK    3  A    between atoms: C_21  and  O_23 
REMARK    4  A    between atoms: O_23  and  C_24 
ROOT
ATOM      1 Br   UNK d   1     -20.359  -1.804 -33.642  0.00  0.00    -0.051 Br
ATOM      2  C   UNK d   1     -21.778  -0.964 -34.599  0.00  0.00     0.011 A 
ATOM      3  C   UNK d   1     -21.539  -0.631 -35.910  0.00  0.00     0.030 A 
ATOM      4  C   UNK d   1     -22.550  -0.013 -36.654  0.00  0.00    -0.002 A 
ATOM      5  C   UNK d   1     -23.744   0.245 -36.064  0.00  0.00     0.043 A 
ATOM      6  C   UNK d   1     -24.009  -0.088 -34.722  0.00  0.00     0.031 A 
ATOM      7  C   UNK d   1     -22.998  -0.694 -34.015  0.00  0.00     0.021 A 
ATOM      8  N   UNK d   1     -24.626   0.875 -36.974  0.00  0.00    -0.325 N 
ATOM      9  C   UNK d   1     -23.950   1.018 -38.187  0.00  0.00     0.245 A 
ATOM     10  O   UNK d   1     -24.401   1.552 -39.273  0.00  0.00    -0.271 OA
ATOM     11  C   UNK d   1     -22.582   0.439 -38.036  0.00  0.00     0.141 A 
ATOM     12  C   UNK d   1     -22.461  -0.569 -39.057  0.00  0.00     0.048 A 
ATOM     13  C   UNK d   1     -21.613  -0.423 -40.090  0.00  0.00     0.176 A 
ATOM     14  N   UNK d   1     -21.739  -1.546 -40.871  0.00  0.00    -0.256 N 
ATOM     15  N   UNK d   1     -22.634  -2.339 -40.322  0.00  0.00    -0.177 NA
ATOM     16  C   UNK d   1     -23.123  -1.806 -39.202  0.00  0.00     0.063 A 
ATOM     17  C   UNK d   1     -24.150  -2.365 -38.276  0.00  0.00     0.073 C 
ATOM     18  O   UNK d   1     -20.788   0.704 -40.260  0.00  0.00    -0.275 OA
ATOM     19  C   UNK d   1     -20.890   1.689 -39.285  0.00  0.00     0.158 A 
ATOM     20  C   UNK d   1     -21.691   1.601 -38.267  0.00  0.00     0.095 A 
ATOM     21  H   UNK d   1     -25.622   1.195 -36.803  0.00  0.00     0.169 HD
ATOM     22  H   UNK d   1     -21.211  -1.734 -41.754  0.00  0.00     0.191 HD
ENDROOT
BRANCH  20  23
ATOM     23  C   UNK d   1     -21.722   2.716 -37.276  0.00  0.00     0.295 C 
ATOM     24  O   UNK d   1     -22.587   3.598 -37.421  0.00  0.00    -0.259 OA
BRANCH  23  25
ATOM     25  O   UNK d   1     -20.852   2.809 -36.224  0.00  0.00    -0.318 OA
BRANCH  25  26
ATOM     26  C   UNK d   1     -21.234   2.943 -34.876  0.00  0.00     0.174 C 
ATOM     27  C   UNK d   1     -20.146   2.275 -34.028  0.00  0.00     0.034 C 
ENDBRANCH  25  26
ENDBRANCH  23  25
ENDBRANCH  20  23
BRANCH  19  28
ATOM     28  N   UNK d   1     -20.074   2.877 -39.390  0.00  0.00    -0.379 N 
ATOM     29  H   UNK d   1     -19.091   2.812 -39.115  0.00  0.00     0.158 HD
ATOM     30  H   UNK d   1     -20.493   3.742 -39.733  0.00  0.00     0.158 HD
ENDBRANCH  19  28
TORSDOF 4
ENDMDL
