MODEL 1
REMARK VINA RESULT:    -7.083      0.000      0.000
REMARK INTER + INTRA:          -7.290
REMARK INTER:                  -7.290
REMARK INTRA:                   0.000
REMARK UNBOUND:                 0.000
REMARK  1 active torsions:
REMARK  status: ('A' for Active; 'I' for Inactive)
REMARK    1  A    between atoms: C_15  and  N_19 
ROOT
ATOM      1 Br   UNK d   1     -24.203   3.337 -40.819  0.00  0.00    -0.051 Br
ATOM      2  C   UNK d   1     -22.958   2.166 -39.994  0.00  0.00     0.011 A 
ATOM      3  C   UNK d   1     -22.709   2.195 -38.618  0.00  0.00     0.030 A 
ATOM      4  C   UNK d   1     -21.810   1.346 -38.030  0.00  0.00    -0.002 A 
ATOM      5  C   UNK d   1     -21.135   0.448 -38.803  0.00  0.00     0.043 A 
ATOM      6  C   UNK d   1     -21.348   0.380 -40.187  0.00  0.00     0.031 A 
ATOM      7  C   UNK d   1     -22.257   1.243 -40.749  0.00  0.00     0.021 A 
ATOM      8  N   UNK d   1     -20.255  -0.336 -38.016  0.00  0.00    -0.325 N 
ATOM      9  C   UNK d   1     -20.386   0.094 -36.684  0.00  0.00     0.246 A 
ATOM     10  O   UNK d   1     -19.783  -0.339 -35.667  0.00  0.00    -0.271 OA
ATOM     11  C   UNK d   1     -21.382   1.186 -36.628  0.00  0.00     0.146 A 
ATOM     12  C   UNK d   1     -20.725   2.436 -36.126  0.00  0.00     0.071 A 
ATOM     13  C   UNK d   1     -21.114   3.134 -35.092  0.00  0.00     0.060 A 
ATOM     14  N   UNK d   1     -22.248   2.689 -34.373  0.00  0.00    -0.342 N 
ATOM     15  C   UNK d   1     -22.936   1.515 -34.773  0.00  0.00     0.118 A 
ATOM     16  C   UNK d   1     -22.549   0.813 -35.810  0.00  0.00     0.093 A 
ATOM     17  C   UNK d   1     -23.315  -0.388 -36.157  0.00  0.00     0.101 C 
ATOM     18  N   UNK d   1     -23.903  -1.342 -36.442  0.00  0.00    -0.191 NA
ATOM     19  C   UNK d   1     -20.199   4.291 -34.934  0.00  0.00     0.106 A 
ATOM     20  O   UNK d   1     -19.247   4.208 -35.962  0.00  0.00    -0.301 OA
ATOM     21  C   UNK d   1     -19.538   3.084 -36.711  0.00  0.00     0.294 A 
ATOM     22  O   UNK d   1     -18.878   2.691 -37.734  0.00  0.00    -0.259 OA
ATOM     23  C   UNK d   1     -19.421   4.192 -33.620  0.00  0.00     0.053 C 
ATOM     24  C   UNK d   1     -20.965   5.606 -34.986  0.00  0.00     0.053 C 
ATOM     25  H   UNK d   1     -19.617  -1.108 -38.387  0.00  0.00     0.169 HD
ATOM     26  H   UNK d   1     -22.607   3.211 -33.532  0.00  0.00     0.167 HD
ENDROOT
BRANCH  15  27
ATOM     27  N   UNK d   1     -24.099   1.077 -34.019  0.00  0.00    -0.384 N 
ATOM     28  H   UNK d   1     -24.342   1.445 -33.085  0.00  0.00     0.157 HD
ATOM     29  H   UNK d   1     -24.707   0.361 -34.448  0.00  0.00     0.157 HD
ENDBRANCH  15  27
TORSDOF 1
ENDMDL
