MODEL 1
REMARK VINA RESULT:    -7.783      0.000      0.000
REMARK INTER + INTRA:          -8.947
REMARK INTER:                  -9.148
REMARK INTRA:                   0.201
REMARK UNBOUND:                 0.201
REMARK  3 active torsions:
REMARK  status: ('A' for Active; 'I' for Inactive)
REMARK    1  A    between atoms: C_13  and  C_25 
REMARK    2  A    between atoms: N_18  and  C_21 
REMARK    3  A    between atoms: C_25  and  C_26 
REMARK       I    between atoms: C_26  and  N_28 
ROOT
ATOM      1 Br   UNK d   1     -20.010   1.475 -40.174  0.00  0.00    -0.051 Br
ATOM      2  C   UNK d   1     -21.286   0.623 -39.021  0.00  0.00     0.011 A 
ATOM      3  C   UNK d   1     -21.063   0.488 -37.663  0.00  0.00     0.031 A 
ATOM      4  C   UNK d   1     -21.974  -0.123 -36.826  0.00  0.00     0.019 A 
ATOM      5  C   UNK d   1     -23.127  -0.597 -37.417  0.00  0.00     0.044 A 
ATOM      6  C   UNK d   1     -23.355  -0.464 -38.783  0.00  0.00     0.031 A 
ATOM      7  C   UNK d   1     -22.440   0.144 -39.586  0.00  0.00     0.021 A 
ATOM      8  N   UNK d   1     -23.948  -1.202 -36.405  0.00  0.00    -0.324 N 
ATOM      9  C   UNK d   1     -23.290  -1.104 -35.155  0.00  0.00     0.267 A 
ATOM     10  O   UNK d   1     -23.753  -1.551 -34.079  0.00  0.00    -0.270 OA
ATOM     11  C   UNK d   1     -22.009  -0.400 -35.372  0.00  0.00     0.279 A 
ATOM     12  N   UNK d   1     -20.897  -1.202 -34.936  0.00  0.00     0.114 N 
ATOM     13  C   UNK d   1     -20.864  -1.000 -33.502  0.00  0.00     0.245 C 
ATOM     14  C   UNK d   1     -21.109   0.477 -33.347  0.00  0.00     0.128 C 
ATOM     15  C   UNK d   1     -21.978   0.826 -34.531  0.00  0.00     0.147 C 
ATOM     16  C   UNK d   1     -21.345   2.002 -35.145  0.00  0.00     0.235 C 
ATOM     17  O   UNK d   1     -21.803   2.698 -36.087  0.00  0.00    -0.272 OA
ATOM     18  N   UNK d   1     -20.078   2.267 -34.500  0.00  0.00    -0.279 N 
ATOM     19  C   UNK d   1     -19.880   1.287 -33.493  0.00  0.00     0.234 C 
ATOM     20  O   UNK d   1     -18.816   1.152 -32.844  0.00  0.00    -0.272 OA
ATOM     21  H   UNK d   1     -24.876  -1.634 -36.609  0.00  0.00     0.169 HD
ATOM     22  H   UNK d   1     -20.028  -0.818 -35.341  0.00  0.00     0.318 HD
ENDROOT
BRANCH  13  23
ATOM     23  C   UNK d   1     -19.546  -1.457 -32.938  0.00  0.00     0.139 C 
BRANCH  23  24
ATOM     24  C   UNK d   1     -19.650  -1.711 -31.492  0.00  0.00     0.217 C 
ATOM     25  O   UNK d   1     -20.488  -2.560 -31.084  0.00  0.00    -0.274 OA
ATOM     26  N   UNK d   1     -18.866  -1.064 -30.502  0.00  0.00    -0.370 N 
ATOM     27  H   UNK d   1     -18.696  -0.050 -30.444  0.00  0.00     0.159 HD
ATOM     28  H   UNK d   1     -18.425  -1.680 -29.768  0.00  0.00     0.159 HD
ENDBRANCH  23  24
ENDBRANCH  13  23
BRANCH  18  29
ATOM     29  C   UNK d   1     -19.160   3.334 -34.809  0.00  0.00     0.032 C 
ATOM     30  C   UNK d   1     -18.238   3.638 -33.653  0.00  0.00     0.038 C 
ATOM     31  C   UNK d   1     -18.334   2.936 -36.035  0.00  0.00     0.038 C 
ATOM     32  C   UNK d   1     -19.906   4.610 -35.132  0.00  0.00     0.038 C 
ENDBRANCH  18  29
TORSDOF 3
ENDMDL
