/Users/jonathanwahrer/Desktop/Msc/3_Semester/Drug_Design_Praktikum/waehrer_HTS_screening/HTS_experiment/out/docking_results/vina_output/5l4q/0559_docked.pdbqt
 OpenBabel03212218083D

 32 35  0  0  1  0  0  0  0  0999 V2000
  -20.0100    1.4750  -40.1740 Br  0  0  0  0  0  0  0  0  0  0  0  0
  -21.2860    0.6230  -39.0210 C   0  0  0  0  0  0  0  0  0  0  0  0
  -21.0630    0.4880  -37.6630 C   0  0  0  0  0  3  0  0  0  0  0  0
  -21.9740   -0.1230  -36.8260 C   0  0  0  0  0  0  0  0  0  0  0  0
  -23.1270   -0.5970  -37.4170 C   0  0  0  0  0  0  0  0  0  0  0  0
  -23.3550   -0.4640  -38.7830 C   0  0  0  0  0  3  0  0  0  0  0  0
  -22.4400    0.1440  -39.5860 C   0  0  0  0  0  3  0  0  0  0  0  0
  -23.9480   -1.2020  -36.4050 N   0  0  0  0  0  0  0  0  0  0  0  0
  -23.2900   -1.1040  -35.1550 C   0  0  0  0  0  0  0  0  0  0  0  0
  -23.7530   -1.5510  -34.0790 O   0  0  0  0  0  0  0  0  0  0  0  0
  -22.0090   -0.4000  -35.3720 C   0  0  1  0  0  0  0  0  0  0  0  0
  -20.8970   -1.2020  -34.9360 N   0  0  0  0  0  0  0  0  0  0  0  0
  -20.8640   -1.0000  -33.5020 C   0  0  2  0  0  3  0  0  0  0  0  0
  -21.1090    0.4770  -33.3470 C   0  0  2  0  0  3  0  0  0  0  0  0
  -21.9780    0.8260  -34.5310 C   0  0  1  0  0  3  0  0  0  0  0  0
  -21.3450    2.0020  -35.1450 C   0  0  0  0  0  0  0  0  0  0  0  0
  -21.8030    2.6980  -36.0870 O   0  0  0  0  0  0  0  0  0  0  0  0
  -20.0780    2.2670  -34.5000 N   0  0  0  0  0  0  0  0  0  0  0  0
  -19.8800    1.2870  -33.4930 C   0  0  0  0  0  0  0  0  0  0  0  0
  -18.8160    1.1520  -32.8440 O   0  0  0  0  0  0  0  0  0  0  0  0
  -24.8760   -1.6340  -36.6090 H   0  0  0  0  0  0  0  0  0  0  0  0
  -20.0280   -0.8180  -35.3410 H   0  0  0  0  0  0  0  0  0  0  0  0
  -19.5460   -1.4570  -32.9380 C   0  0  0  0  0  2  0  0  0  0  0  0
  -19.6500   -1.7110  -31.4920 C   0  0  0  0  0  0  0  0  0  0  0  0
  -20.4880   -2.5600  -31.0840 O   0  0  0  0  0  0  0  0  0  0  0  0
  -18.8660   -1.0640  -30.5020 N   0  0  0  0  0  0  0  0  0  0  0  0
  -18.6960   -0.0500  -30.4440 H   0  0  0  0  0  0  0  0  0  0  0  0
  -18.4250   -1.6800  -29.7680 H   0  0  0  0  0  0  0  0  0  0  0  0
  -19.1600    3.3340  -34.8090 C   0  0  0  0  0  0  0  0  0  0  0  0
  -18.2380    3.6380  -33.6530 C   0  0  0  0  0  1  0  0  0  0  0  0
  -18.3340    2.9360  -36.0350 C   0  0  0  0  0  1  0  0  0  0  0  0
  -19.9060    4.6100  -35.1320 C   0  0  0  0  0  1  0  0  0  0  0  0
  1  2  1  0  0  0  0
  2  3  1  0  0  0  0
  3  4  2  0  0  0  0
  5  4  1  0  0  0  0
  5  8  1  0  0  0  0
  6  5  2  0  0  0  0
  7  2  2  0  0  0  0
  7  6  1  0  0  0  0
  8  9  1  0  0  0  0
  9 10  2  0  0  0  0
 11  4  1  6  0  0  0
 11  9  1  0  0  0  0
 11 12  1  0  0  0  0
 11 15  1  0  0  0  0
 12 13  1  0  0  0  0
 13 14  1  0  0  0  0
 13 23  1  6  0  0  0
 14 19  1  6  0  0  0
 15 16  1  6  0  0  0
 15 14  1  0  0  0  0
 16 18  1  0  0  0  0
 17 16  2  0  0  0  0
 18 19  1  0  0  0  0
 19 20  2  0  0  0  0
 21  8  1  0  0  0  0
 22 12  1  0  0  0  0
 23 24  1  0  0  0  0
 24 25  2  0  0  0  0
 24 26  1  0  0  0  0
 26 27  1  0  0  0  0
 26 28  1  0  0  0  0
 29 18  1  0  0  0  0
 29 30  1  0  0  0  0
 31 29  1  0  0  0  0
 32 29  1  0  0  0  0
M  END
>  <Pose>
1

>  <Score>
-7.783

$$$$
