MODEL 1
REMARK VINA RESULT:    -7.697      0.000      0.000
REMARK INTER + INTRA:         -11.338
REMARK INTER:                  -9.722
REMARK INTRA:                  -1.616
REMARK UNBOUND:                -1.616
REMARK  5 active torsions:
REMARK  status: ('A' for Active; 'I' for Inactive)
REMARK    1  A    between atoms: C_13  and  C_29 
REMARK    2  A    between atoms: N_18  and  C_21 
REMARK    3  A    between atoms: C_21  and  C_22 
REMARK    4  A    between atoms: C_22  and  C_23 
REMARK    5  A    between atoms: C_29  and  O_30 
ROOT
ATOM      1 Br   UNK d   1     -24.093   1.133 -33.615  0.00  0.00    -0.051 Br
ATOM      2  C   UNK d   1     -23.604   0.095 -35.141  0.00  0.00     0.011 A 
ATOM      3  C   UNK d   1     -23.249   0.665 -36.343  0.00  0.00     0.031 A 
ATOM      4  C   UNK d   1     -22.897  -0.103 -37.464  0.00  0.00     0.019 A 
ATOM      5  C   UNK d   1     -22.916  -1.469 -37.322  0.00  0.00     0.044 A 
ATOM      6  C   UNK d   1     -23.271  -2.050 -36.113  0.00  0.00     0.031 A 
ATOM      7  C   UNK d   1     -23.616  -1.286 -35.020  0.00  0.00     0.021 A 
ATOM      8  N   UNK d   1     -22.554  -2.108 -38.531  0.00  0.00    -0.324 N 
ATOM      9  C   UNK d   1     -22.296  -1.100 -39.482  0.00  0.00     0.267 A 
ATOM     10  O   UNK d   1     -21.949  -1.359 -40.669  0.00  0.00    -0.270 OA
ATOM     11  C   UNK d   1     -22.504   0.213 -38.837  0.00  0.00     0.279 A 
ATOM     12  N   UNK d   1     -23.561   0.959 -39.526  0.00  0.00     0.116 N 
ATOM     13  C   UNK d   1     -23.190   2.352 -39.411  0.00  0.00     0.264 C 
ATOM     14  C   UNK d   1     -21.723   2.427 -39.251  0.00  0.00     0.130 C 
ATOM     15  C   UNK d   1     -21.260   1.001 -39.011  0.00  0.00     0.147 C 
ATOM     16  C   UNK d   1     -20.335   1.075 -37.886  0.00  0.00     0.234 C 
ATOM     17  O   UNK d   1     -19.816   0.103 -37.282  0.00  0.00    -0.272 OA
ATOM     18  N   UNK d   1     -20.080   2.453 -37.541  0.00  0.00    -0.287 N 
ATOM     19  C   UNK d   1     -21.230   3.151 -38.062  0.00  0.00     0.233 C 
ATOM     20  O   UNK d   1     -21.708   4.187 -37.577  0.00  0.00    -0.272 OA
ATOM     21  H   UNK d   1     -22.490  -3.152 -38.687  0.00  0.00     0.169 HD
ATOM     22  H   UNK d   1     -24.498   0.778 -39.099  0.00  0.00     0.318 HD
ENDROOT
BRANCH  13  23
ATOM     23  C   UNK d   1     -23.716   3.132 -40.593  0.00  0.00     0.148 C 
ATOM     24  C   UNK d   1     -22.614   3.584 -41.520  0.00  0.00     0.041 C 
BRANCH  23  25
ATOM     25  O   UNK d   1     -24.501   4.181 -40.154  0.00  0.00    -0.394 OA
ATOM     26  H   UNK d   1     -24.878   4.701 -40.890  0.00  0.00     0.210 HD
ENDBRANCH  23  25
ENDBRANCH  13  23
BRANCH  18  27
ATOM     27  C   UNK d   1     -18.955   3.027 -36.874  0.00  0.00     0.139 C 
BRANCH  27  28
ATOM     28  C   UNK d   1     -19.148   3.366 -35.425  0.00  0.00     0.059 C 
BRANCH  28  29
ATOM     29  C   UNK d   1     -19.187   2.208 -34.515  0.00  0.00    -0.057 A 
ATOM     30  C   UNK d   1     -20.415   1.716 -34.091  0.00  0.00     0.007 A 
ATOM     31  C   UNK d   1     -20.466   0.636 -33.275  0.00  0.00     0.001 A 
ATOM     32  C   UNK d   1     -19.345  -0.009 -32.839  0.00  0.00     0.000 A 
ATOM     33  C   UNK d   1     -18.125   0.490 -33.268  0.00  0.00     0.001 A 
ATOM     34  C   UNK d   1     -18.048   1.577 -34.089  0.00  0.00     0.007 A 
ENDBRANCH  28  29
ENDBRANCH  27  28
ENDBRANCH  18  27
TORSDOF 5
ENDMDL
