MODEL 1
REMARK VINA RESULT:    -7.746      0.000      0.000
REMARK INTER + INTRA:         -10.389
REMARK INTER:                 -10.010
REMARK INTRA:                  -0.379
REMARK UNBOUND:                -0.379
REMARK  5 active torsions:
REMARK  status: ('A' for Active; 'I' for Inactive)
REMARK    1  A    between atoms: C_13  and  C_25 
REMARK    2  A    between atoms: N_18  and  C_21 
REMARK    3  A    between atoms: C_21  and  C_22 
REMARK    4  A    between atoms: C_22  and  O_23 
REMARK    5  A    between atoms: C_25  and  C_26 
REMARK       I    between atoms: C_26  and  N_28 
ROOT
ATOM      1 Br   UNK d   1     -19.153  -0.663 -28.812  0.00  0.00    -0.051 Br
ATOM      2  C   UNK d   1     -20.130  -1.544 -30.193  0.00  0.00     0.011 A 
ATOM      3  C   UNK d   1     -20.306  -1.002 -31.446  0.00  0.00     0.031 A 
ATOM      4  C   UNK d   1     -21.021  -1.652 -32.452  0.00  0.00     0.019 A 
ATOM      5  C   UNK d   1     -21.577  -2.879 -32.192  0.00  0.00     0.044 A 
ATOM      6  C   UNK d   1     -21.417  -3.450 -30.939  0.00  0.00     0.031 A 
ATOM      7  C   UNK d   1     -20.693  -2.776 -29.948  0.00  0.00     0.021 A 
ATOM      8  N   UNK d   1     -22.256  -3.367 -33.353  0.00  0.00    -0.324 N 
ATOM      9  C   UNK d   1     -22.121  -2.403 -34.383  0.00  0.00     0.267 A 
ATOM     10  O   UNK d   1     -22.599  -2.550 -35.524  0.00  0.00    -0.270 OA
ATOM     11  C   UNK d   1     -21.354  -1.285 -33.859  0.00  0.00     0.279 A 
ATOM     12  N   UNK d   1     -20.138  -1.178 -34.663  0.00  0.00     0.114 N 
ATOM     13  C   UNK d   1     -19.895   0.225 -34.816  0.00  0.00     0.245 C 
ATOM     14  C   UNK d   1     -21.254   0.810 -34.945  0.00  0.00     0.128 C 
ATOM     15  C   UNK d   1     -22.041   0.047 -33.905  0.00  0.00     0.147 C 
ATOM     16  C   UNK d   1     -23.408   0.040 -34.409  0.00  0.00     0.235 C 
ATOM     17  O   UNK d   1     -24.435  -0.205 -33.740  0.00  0.00    -0.272 OA
ATOM     18  N   UNK d   1     -23.363   0.361 -35.794  0.00  0.00    -0.286 N 
ATOM     19  C   UNK d   1     -21.975   0.461 -36.194  0.00  0.00     0.233 C 
ATOM     20  O   UNK d   1     -21.600   0.274 -37.363  0.00  0.00    -0.272 OA
ATOM     21  H   UNK d   1     -22.765  -4.293 -33.401  0.00  0.00     0.169 HD
ATOM     22  H   UNK d   1     -20.296  -1.582 -35.617  0.00  0.00     0.318 HD
ENDROOT
BRANCH  13  23
ATOM     23  C   UNK d   1     -18.947   0.557 -35.917  0.00  0.00     0.139 C 
BRANCH  23  24
ATOM     24  C   UNK d   1     -18.370   1.887 -35.694  0.00  0.00     0.217 C 
ATOM     25  O   UNK d   1     -18.103   2.626 -36.683  0.00  0.00    -0.274 OA
ATOM     26  N   UNK d   1     -18.105   2.358 -34.374  0.00  0.00    -0.370 N 
ATOM     27  H   UNK d   1     -18.148   3.376 -34.162  0.00  0.00     0.159 HD
ATOM     28  H   UNK d   1     -17.870   1.676 -33.624  0.00  0.00     0.159 HD
ENDBRANCH  23  24
ENDBRANCH  13  23
BRANCH  18  29
ATOM     29  C   UNK d   1     -24.521   0.548 -36.619  0.00  0.00     0.161 C 
BRANCH  29  30
ATOM     30  C   UNK d   1     -24.495  -0.167 -37.929  0.00  0.00     0.187 C 
BRANCH  30  31
ATOM     31  O   UNK d   1     -24.564  -1.545 -37.802  0.00  0.00    -0.394 OA
ATOM     32  C   UNK d   1     -23.734  -2.188 -38.718  0.00  0.00     0.201 C 
ENDBRANCH  30  31
ENDBRANCH  29  30
ENDBRANCH  18  29
TORSDOF 5
ENDMDL
