/Users/jonathanwahrer/Desktop/Msc/3_Semester/Drug_Design_Praktikum/waehrer_HTS_screening/HTS_experiment/out/docking_results/vina_output/5l4q/0588_docked.pdbqt
 OpenBabel03212218083D

 24 27  0  0  1  0  0  0  0  0999 V2000
  -18.4160   -0.5910  -27.2240 Br  0  0  0  0  0  0  0  0  0  0  0  0
  -19.2980   -1.4430  -28.6820 C   0  0  0  0  0  0  0  0  0  0  0  0
  -19.1090   -0.9410  -29.9360 C   0  0  0  0  0  3  0  0  0  0  0  0
  -19.7380   -1.5400  -31.0140 C   0  0  0  0  0  0  0  0  0  0  0  0
  -20.5580   -2.6450  -30.8220 C   0  0  0  0  0  0  0  0  0  0  0  0
  -20.7590   -3.1640  -29.5590 C   0  0  0  0  0  3  0  0  0  0  0  0
  -20.1140   -2.5360  -28.5180 C   0  0  0  0  0  3  0  0  0  0  0  0
  -21.2490   -3.3370  -31.8430 N   0  0  0  0  0  0  0  0  0  0  0  0
  -21.6380   -4.6060  -31.6750 N   0  0  0  0  0  0  0  0  0  0  0  0
  -22.2390   -4.9470  -32.7820 N   0  0  0  0  0  0  0  0  0  0  0  0
  -22.2400   -3.9370  -33.6370 N   0  0  0  0  0  0  0  0  0  0  0  0
  -21.6010   -2.8910  -33.0360 C   0  0  0  0  0  0  0  0  0  0  0  0
  -21.4220   -1.5700  -33.7320 C   0  0  2  0  0  0  0  0  0  0  0  0
  -20.0790   -1.0420  -33.5000 N   0  0  0  0  0  0  0  0  0  0  0  0
  -19.4010   -0.8480  -32.2650 C   0  0  0  0  0  0  0  0  0  0  0  0
  -18.4420   -0.0270  -32.2360 O   0  0  0  0  0  0  0  0  0  0  0  0
  -22.3700   -0.6140  -33.0610 C   0  0  0  0  0  2  0  0  0  0  0  0
  -22.6370    0.5480  -33.9610 C   0  0  0  0  0  0  0  0  0  0  0  0
  -23.2580    0.0600  -35.0800 O   0  0  0  0  0  0  0  0  0  0  0  0
  -22.4970   -0.7600  -35.8690 C   0  0  0  0  0  3  0  0  0  0  0  0
  -21.6490   -1.7460  -35.1890 C   0  0  0  0  0  3  0  0  0  0  0  0
  -23.6310    1.4970  -33.2800 C   0  0  0  0  0  1  0  0  0  0  0  0
  -21.4110    1.3680  -34.2620 C   0  0  0  0  0  1  0  0  0  0  0  0
  -19.5170   -0.7580  -34.3590 H   0  0  0  0  0  0  0  0  0  0  0  0
  2  7  1  0  0  0  0
  2  1  1  0  0  0  0
  3  2  2  0  0  0  0
  4  5  2  0  0  0  0
  4  3  1  0  0  0  0
  5  6  1  0  0  0  0
  6  7  2  0  0  0  0
  8  9  1  0  0  0  0
  8  5  1  0  0  0  0
 10  9  2  0  0  0  0
 11 12  2  0  0  0  0
 11 10  1  0  0  0  0
 12  8  1  0  0  0  0
 13 21  1  6  0  0  0
 13 14  1  0  0  0  0
 13 17  1  0  0  0  0
 13 12  1  0  0  0  0
 14 15  1  0  0  0  0
 15 16  2  0  0  0  0
 15  4  1  0  0  0  0
 18 22  1  0  0  0  0
 18 17  1  0  0  0  0
 19 18  1  0  0  0  0
 20 21  2  0  0  0  0
 20 19  1  0  0  0  0
 23 18  1  0  0  0  0
 24 14  1  0  0  0  0
M  END
>  <Pose>
1

>  <Score>
-8.575

$$$$
