MODEL 1
REMARK VINA RESULT:    -8.575      0.000      0.000
REMARK INTER + INTRA:          -8.575
REMARK INTER:                  -8.575
REMARK INTRA:                   0.000
REMARK UNBOUND:                 0.000
REMARK  0 active torsions:
REMARK  status: ('A' for Active; 'I' for Inactive)
ROOT
ATOM      1 Br   UNK d   1     -18.416  -0.591 -27.224  0.00  0.00    -0.051 Br
ATOM      2  C   UNK d   1     -19.298  -1.443 -28.682  0.00  0.00     0.012 A 
ATOM      3  C   UNK d   1     -19.109  -0.941 -29.936  0.00  0.00     0.038 A 
ATOM      4  C   UNK d   1     -19.738  -1.540 -31.014  0.00  0.00     0.062 A 
ATOM      5  C   UNK d   1     -20.558  -2.645 -30.822  0.00  0.00     0.078 A 
ATOM      6  C   UNK d   1     -20.759  -3.164 -29.559  0.00  0.00     0.034 A 
ATOM      7  C   UNK d   1     -20.114  -2.536 -28.518  0.00  0.00     0.021 A 
ATOM      8  N   UNK d   1     -21.249  -3.337 -31.843  0.00  0.00    -0.195 N 
ATOM      9  N   UNK d   1     -21.638  -4.606 -31.675  0.00  0.00    -0.039 NA
ATOM     10  N   UNK d   1     -22.239  -4.947 -32.782  0.00  0.00    -0.023 NA
ATOM     11  N   UNK d   1     -22.240  -3.937 -33.637  0.00  0.00    -0.111 NA
ATOM     12  C   UNK d   1     -21.601  -2.891 -33.036  0.00  0.00     0.182 A 
ATOM     13  C   UNK d   1     -21.422  -1.570 -33.732  0.00  0.00     0.102 C 
ATOM     14  N   UNK d   1     -20.079  -1.042 -33.500  0.00  0.00    -0.340 N 
ATOM     15  C   UNK d   1     -19.401  -0.848 -32.265  0.00  0.00     0.255 C 
ATOM     16  O   UNK d   1     -18.442  -0.027 -32.236  0.00  0.00    -0.268 OA
ATOM     17  C   UNK d   1     -22.370  -0.614 -33.061  0.00  0.00     0.076 C 
ATOM     18  C   UNK d   1     -22.637   0.548 -33.961  0.00  0.00     0.056 C 
ATOM     19  O   UNK d   1     -23.258   0.060 -35.080  0.00  0.00    -0.381 OA
ATOM     20  C   UNK d   1     -22.497  -0.760 -35.869  0.00  0.00     0.171 C 
ATOM     21  C   UNK d   1     -21.649  -1.746 -35.189  0.00  0.00     0.066 C 
ATOM     22  C   UNK d   1     -23.631   1.497 -33.280  0.00  0.00     0.045 C 
ATOM     23  C   UNK d   1     -21.411   1.368 -34.262  0.00  0.00     0.045 C 
ATOM     24  H   UNK d   1     -19.517  -0.758 -34.359  0.00  0.00     0.164 HD
ENDROOT
TORSDOF 0
ENDMDL
