MODEL 1
REMARK VINA RESULT:    -8.574      0.000      0.000
REMARK INTER + INTRA:          -8.574
REMARK INTER:                  -8.574
REMARK INTRA:                   0.000
REMARK UNBOUND:                 0.000
REMARK  0 active torsions:
REMARK  status: ('A' for Active; 'I' for Inactive)
ROOT
ATOM      1 Br   UNK d   1     -19.215  -3.499 -26.148  0.00  0.00    -0.051 Br
ATOM      2  C   UNK d   1     -19.865  -3.313 -27.945  0.00  0.00     0.012 A 
ATOM      3  C   UNK d   1     -20.037  -2.063 -28.499  0.00  0.00     0.038 A 
ATOM      4  C   UNK d   1     -20.504  -1.935 -29.790  0.00  0.00     0.061 A 
ATOM      5  C   UNK d   1     -20.819  -3.022 -30.584  0.00  0.00     0.072 A 
ATOM      6  C   UNK d   1     -20.640  -4.277 -30.008  0.00  0.00     0.034 A 
ATOM      7  C   UNK d   1     -20.173  -4.413 -28.717  0.00  0.00     0.021 A 
ATOM      8  N   UNK d   1     -21.302  -3.066 -31.906  0.00  0.00    -0.218 N 
ATOM      9  N   UNK d   1     -21.809  -4.155 -32.462  0.00  0.00     0.032 NA
ATOM     10  N   UNK d   1     -22.160  -3.848 -33.701  0.00  0.00    -0.052 NA
ATOM     11  N   UNK d   1     -21.877  -2.586 -33.917  0.00  0.00    -0.116 NA
ATOM     12  C   UNK d   1     -21.329  -2.053 -32.797  0.00  0.00     0.176 A 
ATOM     13  C   UNK d   1     -20.915  -0.649 -32.763  0.00  0.00     0.100 C 
ATOM     14  N   UNK d   1     -20.941  -0.005 -31.496  0.00  0.00    -0.340 N 
ATOM     15  C   UNK d   1     -20.628  -0.540 -30.220  0.00  0.00     0.255 C 
ATOM     16  O   UNK d   1     -20.411   0.257 -29.269  0.00  0.00    -0.268 OA
ATOM     17  C   UNK d   1     -19.491  -0.469 -33.311  0.00  0.00     0.069 C 
ATOM     18  C   UNK d   1     -19.408   0.864 -34.012  0.00  0.00     0.275 C 
ATOM     19  N   UNK d   1     -20.040   0.716 -35.303  0.00  0.00     0.084 N 
ATOM     20  C   UNK d   1     -21.315   0.071 -35.131  0.00  0.00     0.275 C 
ATOM     21  C   UNK d   1     -21.822   0.128 -33.711  0.00  0.00     0.069 C 
ATOM     22  C   UNK d   1     -19.144  -0.073 -36.146  0.00  0.00     0.309 C 
ATOM     23  H   UNK d   1     -21.229   0.994 -31.510  0.00  0.00     0.164 HD
ENDROOT
TORSDOF 0
ENDMDL
