MODEL 1
REMARK VINA RESULT:    -7.715      0.000      0.000
REMARK INTER + INTRA:          -7.941
REMARK INTER:                  -7.941
REMARK INTRA:                   0.000
REMARK UNBOUND:                 0.000
REMARK  1 active torsions:
REMARK  status: ('A' for Active; 'I' for Inactive)
REMARK    1  A    between atoms: C_9  and  N_23 
ROOT
ATOM      1 Br   UNK d   1     -24.144   2.113 -39.514  0.00  0.00    -0.051 Br
ATOM      2  C   UNK d   1     -23.745   0.765 -38.237  0.00  0.00     0.011 A 
ATOM      3  C   UNK d   1     -23.110   1.117 -37.079  0.00  0.00     0.031 A 
ATOM      4  C   UNK d   1     -22.816   0.124 -36.139  0.00  0.00     0.005 A 
ATOM      5  C   UNK d   1     -23.171  -1.157 -36.407  0.00  0.00     0.086 A 
ATOM      6  C   UNK d   1     -23.826  -1.517 -37.603  0.00  0.00     0.039 A 
ATOM      7  C   UNK d   1     -24.113  -0.538 -38.524  0.00  0.00     0.022 A 
ATOM      8  O   UNK d   1     -22.903  -2.176 -35.510  0.00  0.00    -0.292 OA
ATOM      9  C   UNK d   1     -22.264  -1.864 -34.330  0.00  0.00     0.160 A 
ATOM     10  C   UNK d   1     -21.891  -0.650 -34.002  0.00  0.00     0.100 A 
ATOM     11  C   UNK d   1     -22.129   0.487 -34.882  0.00  0.00     0.145 A 
ATOM     12  C   UNK d   1     -20.904   1.280 -35.143  0.00  0.00     0.041 A 
ATOM     13  C   UNK d   1     -21.082   2.536 -34.633  0.00  0.00     0.160 A 
ATOM     14  N   UNK d   1     -19.952   3.263 -34.874  0.00  0.00    -0.156 NA
ATOM     15  N   UNK d   1     -19.120   2.460 -35.514  0.00  0.00    -0.280 N 
ATOM     16  C   UNK d   1     -19.656   1.247 -35.698  0.00  0.00     0.036 A 
ATOM     17  C   UNK d   1     -18.963   0.117 -36.389  0.00  0.00     0.070 C 
ATOM     18  N   UNK d   1     -22.353   2.667 -34.033  0.00  0.00    -0.308 N 
ATOM     19  C   UNK d   1     -23.013   1.435 -34.170  0.00  0.00     0.247 A 
ATOM     20  O   UNK d   1     -24.171   1.144 -33.766  0.00  0.00    -0.271 OA
ATOM     21  C   UNK d   1     -21.225  -0.402 -32.746  0.00  0.00     0.101 C 
ATOM     22  N   UNK d   1     -20.707  -0.195 -31.731  0.00  0.00    -0.191 NA
ATOM     23  H   UNK d   1     -18.164   2.786 -35.818  0.00  0.00     0.189 HD
ATOM     24  H   UNK d   1     -22.724   3.558 -33.563  0.00  0.00     0.170 HD
ENDROOT
BRANCH   9  25
ATOM     25  N   UNK d   1     -21.992  -2.933 -33.409  0.00  0.00    -0.379 N 
ATOM     26  H   UNK d   1     -22.770  -3.554 -33.099  0.00  0.00     0.158 HD
ATOM     27  H   UNK d   1     -21.035  -3.117 -33.032  0.00  0.00     0.158 HD
ENDBRANCH   9  25
TORSDOF 1
ENDMDL
