/Users/jonathanwahrer/Desktop/Msc/3_Semester/Drug_Design_Praktikum/waehrer_HTS_screening/HTS_experiment/out/docking_results/vina_output/5l4q/0592_docked.pdbqt
 OpenBabel03212218083D

 27 30  0  0  1  0  0  0  0  0999 V2000
  -24.1440    2.1130  -39.5140 Br  0  0  0  0  0  0  0  0  0  0  0  0
  -23.7450    0.7650  -38.2370 C   0  0  0  0  0  0  0  0  0  0  0  0
  -23.1100    1.1170  -37.0790 C   0  0  0  0  0  3  0  0  0  0  0  0
  -22.8160    0.1240  -36.1390 C   0  0  0  0  0  0  0  0  0  0  0  0
  -23.1710   -1.1570  -36.4070 C   0  0  0  0  0  0  0  0  0  0  0  0
  -23.8260   -1.5170  -37.6030 C   0  0  0  0  0  3  0  0  0  0  0  0
  -24.1130   -0.5380  -38.5240 C   0  0  0  0  0  3  0  0  0  0  0  0
  -22.9030   -2.1760  -35.5100 O   0  0  0  0  0  0  0  0  0  0  0  0
  -22.2640   -1.8640  -34.3300 C   0  0  0  0  0  0  0  0  0  0  0  0
  -21.8910   -0.6500  -34.0020 C   0  0  0  0  0  0  0  0  0  0  0  0
  -22.1290    0.4870  -34.8820 C   0  0  1  0  0  0  0  0  0  0  0  0
  -20.9040    1.2800  -35.1430 C   0  0  0  0  0  0  0  0  0  0  0  0
  -21.0820    2.5360  -34.6330 C   0  0  0  0  0  0  0  0  0  0  0  0
  -19.9520    3.2630  -34.8740 N   0  0  0  0  0  0  0  0  0  0  0  0
  -19.1200    2.4600  -35.5140 N   0  0  0  0  0  0  0  0  0  0  0  0
  -19.6560    1.2470  -35.6980 C   0  0  0  0  0  0  0  0  0  0  0  0
  -18.9630    0.1170  -36.3890 C   0  0  0  0  0  1  0  0  0  0  0  0
  -22.3530    2.6670  -34.0330 N   0  0  0  0  0  0  0  0  0  0  0  0
  -23.0130    1.4350  -34.1700 C   0  0  0  0  0  0  0  0  0  0  0  0
  -24.1710    1.1440  -33.7660 O   0  0  0  0  0  0  0  0  0  0  0  0
  -21.2250   -0.4020  -32.7460 C   0  0  0  0  0  0  0  0  0  0  0  0
  -20.7070   -0.1950  -31.7310 N   0  0  0  0  0  0  0  0  0  0  0  0
  -18.1640    2.7860  -35.8180 H   0  0  0  0  0  0  0  0  0  0  0  0
  -22.7240    3.5580  -33.5630 H   0  0  0  0  0  0  0  0  0  0  0  0
  -21.9920   -2.9330  -33.4090 N   0  0  0  0  0  0  0  0  0  0  0  0
  -22.7700   -3.5540  -33.0990 H   0  0  0  0  0  0  0  0  0  0  0  0
  -21.0350   -3.1170  -33.0320 H   0  0  0  0  0  0  0  0  0  0  0  0
  1  2  1  0  0  0  0
  2  3  1  0  0  0  0
  3  4  2  0  0  0  0
  5  4  1  0  0  0  0
  5  8  1  0  0  0  0
  6  5  2  0  0  0  0
  7  2  2  0  0  0  0
  7  6  1  0  0  0  0
  8  9  1  0  0  0  0
  9 10  2  0  0  0  0
  9 25  1  0  0  0  0
 10 21  1  0  0  0  0
 11  4  1  6  0  0  0
 11 19  1  0  0  0  0
 11 10  1  0  0  0  0
 12 11  1  0  0  0  0
 12 13  1  0  0  0  0
 13 18  1  0  0  0  0
 14 13  2  0  0  0  0
 15 14  1  0  0  0  0
 16 15  1  0  0  0  0
 16 12  2  0  0  0  0
 17 16  1  0  0  0  0
 18 24  1  0  0  0  0
 19 18  1  0  0  0  0
 19 20  2  0  0  0  0
 21 22  3  0  0  0  0
 23 15  1  0  0  0  0
 25 26  1  0  0  0  0
 25 27  1  0  0  0  0
M  END
>  <Pose>
1

>  <Score>
-7.715

$$$$
