/Users/jonathanwahrer/Desktop/Msc/3_Semester/Drug_Design_Praktikum/waehrer_HTS_screening/HTS_experiment/out/docking_results/vina_output/5l4q/0596_docked.pdbqt
 OpenBabel03212218093D

 29 32  0  0  0  0  0  0  0  0999 V2000
  -20.8270   -2.8970  -31.2060 C   0  0  0  0  0  0  0  0  0  0  0  0
  -21.4750   -4.0060  -31.7260 C   0  0  0  0  0  3  0  0  0  0  0  0
  -21.9790   -3.9810  -33.0100 C   0  0  0  0  0  0  0  0  0  0  0  0
  -22.5620   -5.0360  -33.4150 O   0  0  0  0  0  0  0  0  0  0  0  0
  -21.8540   -2.9240  -33.7520 O   0  0  0  0  0  0  0  0  0  0  0  0
  -21.2670   -1.8690  -33.3340 C   0  0  0  0  0  0  0  0  0  0  0  0
  -20.7240   -1.8080  -32.0360 C   0  0  0  0  0  0  0  0  0  0  0  0
  -20.0920   -0.6720  -31.6220 C   0  0  0  0  0  3  0  0  0  0  0  0
  -20.0160    0.3990  -32.5190 C   0  0  0  0  0  3  0  0  0  0  0  0
  -20.5620    0.3090  -33.7830 C   0  0  0  0  0  0  0  0  0  0  0  0
  -21.2040   -0.8230  -34.2350 C   0  0  0  0  0  0  0  0  0  0  0  0
  -20.4360    1.4480  -34.6070 O   0  0  0  0  0  1  0  0  0  0  0  0
  -20.3410   -2.8850  -29.8280 C   0  0  0  0  0  0  0  0  0  0  0  0
  -20.3050   -4.0440  -29.0810 C   0  0  0  0  0  0  0  0  0  0  0  0
  -19.9050   -4.0260  -27.8590 O   0  0  0  0  0  0  0  0  0  0  0  0
  -20.6860   -5.0960  -29.6810 O   0  0  0  0  0  0  0  0  0  0  0  0
  -19.5040   -2.9160  -27.2360 C   0  0  0  0  0  0  0  0  0  0  0  0
  -19.5150   -1.7230  -27.9300 C   0  0  0  0  0  0  0  0  0  0  0  0
  -19.0890   -2.9820  -25.9140 C   0  0  0  0  0  3  0  0  0  0  0  0
  -19.0950   -0.5880  -27.2600 C   0  0  0  0  0  3  0  0  0  0  0  0
  -19.9390   -1.7100  -29.2350 C   0  0  0  0  0  3  0  0  0  0  0  0
  -18.6700   -0.5920  -25.9440 C   0  0  0  0  0  0  0  0  0  0  0  0
  -18.0910    0.9950  -25.0860 Br  0  0  0  0  0  0  0  0  0  0  0  0
  -18.6810   -1.8300  -25.2850 C   0  0  0  0  0  3  0  0  0  0  0  0
  -21.8350   -0.8050  -35.5270 C   0  0  0  0  0  2  0  0  0  0  0  0
  -23.2210   -0.9170  -35.7310 N   0  0  0  0  0  4  0  0  0  0  0  0
  -24.0220    0.2580  -35.5220 C   0  0  0  0  0  1  0  0  0  0  0  0
  -23.5500   -1.6120  -37.0020 C   0  0  0  0  0  1  0  0  0  0  0  0
  -23.5860   -1.5920  -34.9980 H   0  0  0  0  0  0  0  0  0  0  0  0
  1 13  1  0  0  0  0
  2  1  2  0  0  0  0
  3  2  1  0  0  0  0
  4  3  2  0  0  0  0
  5  6  1  0  0  0  0
  5  3  1  0  0  0  0
  6  7  1  0  0  0  0
  7  8  2  0  0  0  0
  7  1  1  0  0  0  0
  9  8  1  0  0  0  0
 10  9  2  0  0  0  0
 11 10  1  0  0  0  0
 11  6  2  0  0  0  0
 12 10  1  0  0  0  0
 13 21  2  0  0  0  0
 13 14  1  0  0  0  0
 14 15  1  0  0  0  0
 15 17  1  0  0  0  0
 16 14  2  0  0  0  0
 17 19  1  0  0  0  0
 18 20  1  0  0  0  0
 18 17  2  0  0  0  0
 19 24  2  0  0  0  0
 20 22  2  0  0  0  0
 21 18  1  0  0  0  0
 22 24  1  0  0  0  0
 22 23  1  0  0  0  0
 25 11  1  0  0  0  0
 26 25  1  0  0  0  0
 26 27  1  0  0  0  0
 26 29  1  0  0  0  0
 28 26  1  0  0  0  0
M  END
>  <Pose>
1

>  <Score>
-10.907

$$$$
