MODEL 1
REMARK VINA RESULT:   -10.907      0.000      0.000
REMARK INTER + INTRA:         -11.729
REMARK INTER:                 -12.820
REMARK INTRA:                   1.091
REMARK UNBOUND:                 1.091
REMARK  3 active torsions:
REMARK  status: ('A' for Active; 'I' for Inactive)
REMARK    1  A    between atoms: C_11  and  C_13 
REMARK    2  A    between atoms: C_23  and  C_24 
REMARK    3  A    between atoms: C_24  and  N_25 
ROOT
ATOM      1  C   UNK d   1     -20.827  -2.897 -31.206  0.00  0.00    -0.001 A 
ATOM      2  C   UNK d   1     -21.475  -4.006 -31.726  0.00  0.00     0.096 A 
ATOM      3  C   UNK d   1     -21.979  -3.981 -33.010  0.00  0.00     0.289 A 
ATOM      4  O   UNK d   1     -22.562  -5.036 -33.415  0.00  0.00    -0.260 OA
ATOM      5  O   UNK d   1     -21.854  -2.924 -33.752  0.00  0.00    -0.274 OA
ATOM      6  C   UNK d   1     -21.267  -1.869 -33.334  0.00  0.00     0.101 A 
ATOM      7  C   UNK d   1     -20.724  -1.808 -32.036  0.00  0.00     0.010 A 
ATOM      8  C   UNK d   1     -20.092  -0.672 -31.622  0.00  0.00     0.018 A 
ATOM      9  C   UNK d   1     -20.016   0.399 -32.519  0.00  0.00     0.041 A 
ATOM     10  C   UNK d   1     -20.562   0.309 -33.783  0.00  0.00     0.118 A 
ATOM     11  C   UNK d   1     -21.204  -0.823 -34.235  0.00  0.00     0.039 A 
ATOM     12  O   UNK d   1     -20.436   1.448 -34.607  0.00  0.00    -0.191 OA
ENDROOT
BRANCH   1  13
ATOM     13  C   UNK d   1     -20.341  -2.885 -29.828  0.00  0.00     0.052 A 
ATOM     14  C   UNK d   1     -20.305  -4.044 -29.081  0.00  0.00     0.299 A 
ATOM     15  O   UNK d   1     -19.905  -4.026 -27.859  0.00  0.00    -0.274 OA
ATOM     16  O   UNK d   1     -20.686  -5.096 -29.681  0.00  0.00    -0.259 OA
ATOM     17  C   UNK d   1     -19.504  -2.916 -27.236  0.00  0.00     0.089 A 
ATOM     18  C   UNK d   1     -19.515  -1.723 -27.930  0.00  0.00     0.000 A 
ATOM     19  C   UNK d   1     -19.089  -2.982 -25.914  0.00  0.00     0.039 A 
ATOM     20  C   UNK d   1     -19.095  -0.588 -27.260  0.00  0.00     0.033 A 
ATOM     21  C   UNK d   1     -19.939  -1.710 -29.235  0.00  0.00     0.032 A 
ATOM     22  C   UNK d   1     -18.670  -0.592 -25.944  0.00  0.00     0.011 A 
ATOM     23 Br   UNK d   1     -18.091   0.995 -25.086  0.00  0.00    -0.051 Br
ATOM     24  C   UNK d   1     -18.681  -1.830 -25.285  0.00  0.00     0.022 A 
ENDBRANCH   1  13
BRANCH  11  25
ATOM     25  C   UNK d   1     -21.835  -0.805 -35.527  0.00  0.00     0.278 C 
BRANCH  25  26
ATOM     26  N   UNK d   1     -23.221  -0.917 -35.731  0.00  0.00    -0.075 N 
ATOM     27  C   UNK d   1     -24.022   0.258 -35.522  0.00  0.00     0.269 C 
ATOM     28  C   UNK d   1     -23.550  -1.612 -37.002  0.00  0.00     0.269 C 
ATOM     29  H   UNK d   1     -23.586  -1.592 -34.998  0.00  0.00     0.279 HD
ENDBRANCH  25  26
ENDBRANCH  11  25
TORSDOF 3
ENDMDL
