MODEL 1
REMARK VINA RESULT:    -7.851      0.000      0.000
REMARK INTER + INTRA:         -11.429
REMARK INTER:                 -10.146
REMARK INTRA:                  -1.283
REMARK UNBOUND:                -1.283
REMARK  5 active torsions:
REMARK  status: ('A' for Active; 'I' for Inactive)
REMARK    1  A    between atoms: C_7  and  N_17 
REMARK    2  A    between atoms: C_9  and  C_10 
REMARK       I    between atoms: N_20  and  C_23 
REMARK    3  A    between atoms: C_23  and  C_25 
REMARK    4  A    between atoms: C_25  and  C_26 
REMARK    5  A    between atoms: C_26  and  C_27 
ROOT
ATOM      1 Br   UNK d   1     -19.548  -1.522 -30.837  0.00  0.00    -0.051 Br
ATOM      2  C   UNK d   1     -20.711  -1.658 -32.343  0.00  0.00     0.011 A 
ATOM      3  C   UNK d   1     -20.906  -0.571 -33.191  0.00  0.00     0.035 A 
ATOM      4  C   UNK d   1     -21.752  -0.669 -34.288  0.00  0.00     0.024 A 
ATOM      5  C   UNK d   1     -22.409  -1.853 -34.547  0.00  0.00     0.073 A 
ATOM      6  N   UNK d   1     -23.233  -1.952 -35.621  0.00  0.00    -0.207 NA
ATOM      7  C   UNK d   1     -23.435  -0.917 -36.456  0.00  0.00     0.327 A 
ATOM      8  N   UNK d   1     -22.788   0.224 -36.189  0.00  0.00    -0.206 NA
ATOM      9  C   UNK d   1     -21.959   0.393 -35.143  0.00  0.00     0.085 A 
ATOM     10  C   UNK d   1     -22.199  -2.922 -33.686  0.00  0.00     0.034 A 
ATOM     11  C   UNK d   1     -21.364  -2.847 -32.593  0.00  0.00     0.021 A 
ENDROOT
BRANCH   7  12
ATOM     12  N   UNK d   1     -24.310  -1.061 -37.582  0.00  0.00    -0.004 N 
ATOM     13  C   UNK d   1     -23.694  -1.888 -38.583  0.00  0.00     0.265 C 
ATOM     14  C   UNK d   1     -22.616  -1.215 -39.362  0.00  0.00     0.154 C 
ATOM     15  N   UNK d   1     -22.611   0.219 -39.177  0.00  0.00    -0.349 N 
ATOM     16  C   UNK d   1     -23.901   0.866 -39.069  0.00  0.00     0.154 C 
ATOM     17  C   UNK d   1     -21.368   0.893 -39.115  0.00  0.00     0.220 C 
ATOM     18  C   UNK d   1     -24.799   0.188 -38.081  0.00  0.00     0.265 C 
ATOM     19  O   UNK d   1     -20.291   0.265 -39.216  0.00  0.00    -0.273 OA
ATOM     20  H   UNK d   1     -25.129  -1.627 -37.207  0.00  0.00     0.290 HD
BRANCH  17  21
ATOM     21  C   UNK d   1     -21.419   2.372 -38.925  0.00  0.00     0.113 C 
BRANCH  21  22
ATOM     22  C   UNK d   1     -20.069   2.997 -39.103  0.00  0.00     0.122 C 
BRANCH  22  23
ATOM     23  C   UNK d   1     -19.799   3.414 -40.487  0.00  0.00     0.172 C 
ATOM     24  O   UNK d   1     -20.443   4.337 -41.029  0.00  0.00    -0.648 OA
ATOM     25  O   UNK d   1     -18.811   2.774 -41.206  0.00  0.00    -0.648 OA
ENDBRANCH  22  23
ENDBRANCH  21  22
ENDBRANCH  17  21
ENDBRANCH   7  12
BRANCH   9  26
ATOM     26  C   UNK d   1     -21.304   1.676 -34.942  0.00  0.00     0.015 A 
ATOM     27  C   UNK d   1     -20.002   1.876 -35.381  0.00  0.00     0.046 A 
ATOM     28  C   UNK d   1     -19.353   3.081 -35.220  0.00  0.00     0.025 A 
ATOM     29 Cl   UNK d   1     -19.176   0.526 -36.163  0.00  0.00    -0.083 Cl
ATOM     30  C   UNK d   1     -19.979   4.150 -34.611  0.00  0.00     0.002 A 
ATOM     31  C   UNK d   1     -21.282   3.948 -34.173  0.00  0.00     0.001 A 
ATOM     32  C   UNK d   1     -21.922   2.739 -34.337  0.00  0.00     0.015 A 
ENDBRANCH   9  26
TORSDOF 5
ENDMDL
