/Users/jonathanwahrer/Desktop/Msc/3_Semester/Drug_Design_Praktikum/waehrer_HTS_screening/HTS_experiment/out/docking_results/vina_output/5l4q/0610_docked.pdbqt
 OpenBabel03212218093D

 32 35  0  0  0  0  0  0  0  0999 V2000
  -19.5480   -1.5220  -30.8370 Br  0  0  0  0  0  0  0  0  0  0  0  0
  -20.7110   -1.6580  -32.3430 C   0  0  0  0  0  0  0  0  0  0  0  0
  -20.9060   -0.5710  -33.1910 C   0  0  0  0  0  3  0  0  0  0  0  0
  -21.7520   -0.6690  -34.2880 C   0  0  0  0  0  0  0  0  0  0  0  0
  -22.4090   -1.8530  -34.5470 C   0  0  0  0  0  0  0  0  0  0  0  0
  -23.2330   -1.9520  -35.6210 N   0  0  0  0  0  0  0  0  0  0  0  0
  -23.4350   -0.9170  -36.4560 C   0  0  0  0  0  0  0  0  0  0  0  0
  -22.7880    0.2240  -36.1890 N   0  0  0  0  0  0  0  0  0  0  0  0
  -21.9590    0.3930  -35.1430 C   0  0  0  0  0  0  0  0  0  0  0  0
  -22.1990   -2.9220  -33.6860 C   0  0  0  0  0  3  0  0  0  0  0  0
  -21.3640   -2.8470  -32.5930 C   0  0  0  0  0  3  0  0  0  0  0  0
  -24.3100   -1.0610  -37.5820 N   0  0  0  0  0  4  0  0  0  0  0  0
  -23.6940   -1.8880  -38.5830 C   0  0  0  0  0  2  0  0  0  0  0  0
  -22.6160   -1.2150  -39.3620 C   0  0  0  0  0  2  0  0  0  0  0  0
  -22.6110    0.2190  -39.1770 N   0  0  0  0  0  0  0  0  0  0  0  0
  -23.9010    0.8660  -39.0690 C   0  0  0  0  0  2  0  0  0  0  0  0
  -21.3680    0.8930  -39.1150 C   0  0  0  0  0  0  0  0  0  0  0  0
  -24.7990    0.1880  -38.0810 C   0  0  0  0  0  2  0  0  0  0  0  0
  -20.2910    0.2650  -39.2160 O   0  0  0  0  0  0  0  0  0  0  0  0
  -25.1290   -1.6270  -37.2070 H   0  0  0  0  0  0  0  0  0  0  0  0
  -21.4190    2.3720  -38.9250 C   0  0  0  0  0  2  0  0  0  0  0  0
  -20.0690    2.9970  -39.1030 C   0  0  0  0  0  2  0  0  0  0  0  0
  -19.7990    3.4140  -40.4870 C   0  0  0  0  0  0  0  0  0  0  0  0
  -20.4430    4.3370  -41.0290 O   0  0  0  0  0  1  0  0  0  0  0  0
  -18.8110    2.7740  -41.2060 O   0  0  0  0  0  0  0  0  0  0  0  0
  -21.3040    1.6760  -34.9420 C   0  0  0  0  0  0  0  0  0  0  0  0
  -20.0020    1.8760  -35.3810 C   0  0  0  0  0  0  0  0  0  0  0  0
  -19.3530    3.0810  -35.2200 C   0  0  0  0  0  3  0  0  0  0  0  0
  -19.1760    0.5260  -36.1630 Cl  0  0  0  0  0  0  0  0  0  0  0  0
  -19.9790    4.1500  -34.6110 C   0  0  0  0  0  3  0  0  0  0  0  0
  -21.2820    3.9480  -34.1730 C   0  0  0  0  0  3  0  0  0  0  0  0
  -21.9220    2.7390  -34.3370 C   0  0  0  0  0  3  0  0  0  0  0  0
  2  1  1  0  0  0  0
  3  2  2  0  0  0  0
  4  3  1  0  0  0  0
  5  4  2  0  0  0  0
  5 10  1  0  0  0  0
  6  5  1  0  0  0  0
  7  8  1  0  0  0  0
  7  6  2  0  0  0  0
  8  9  2  0  0  0  0
  9 26  1  0  0  0  0
  9  4  1  0  0  0  0
 10 11  2  0  0  0  0
 11  2  1  0  0  0  0
 12 20  1  0  0  0  0
 12  7  1  0  0  0  0
 13 12  1  0  0  0  0
 14 15  1  0  0  0  0
 14 13  1  0  0  0  0
 15 17  1  0  0  0  0
 15 16  1  0  0  0  0
 16 18  1  0  0  0  0
 17 21  1  0  0  0  0
 18 12  1  0  0  0  0
 19 17  2  0  0  0  0
 22 21  1  0  0  0  0
 23 22  1  0  0  0  0
 24 23  1  0  0  0  0
 25 23  2  0  0  0  0
 26 32  1  0  0  0  0
 27 28  1  0  0  0  0
 27 26  2  0  0  0  0
 28 30  2  0  0  0  0
 29 27  1  0  0  0  0
 30 31  1  0  0  0  0
 32 31  2  0  0  0  0
M  END
>  <Pose>
1

>  <Score>
-7.851

$$$$
