/Users/jonathanwahrer/Desktop/Msc/3_Semester/Drug_Design_Praktikum/waehrer_HTS_screening/HTS_experiment/out/docking_results/vina_output/5l4q/0611_docked.pdbqt
 OpenBabel03212218093D

 33 36  0  0  0  0  0  0  0  0999 V2000
  -20.3340   -5.6890  -28.6250 Br  0  0  0  0  0  0  0  0  0  0  0  0
  -20.6340   -4.5510  -30.1320 C   0  0  0  0  0  0  0  0  0  0  0  0
  -20.3620   -3.1950  -30.0930 C   0  0  0  0  0  3  0  0  0  0  0  0
  -20.5680   -2.3490  -31.1610 C   0  0  0  0  0  0  0  0  0  0  0  0
  -21.0700   -2.8530  -32.3470 C   0  0  0  0  0  0  0  0  0  0  0  0
  -21.2870   -2.0360  -33.4070 N   0  0  0  0  0  0  0  0  0  0  0  0
  -21.0300   -0.7180  -33.3660 C   0  0  0  0  0  0  0  0  0  0  0  0
  -20.5400   -0.2260  -32.2140 N   0  0  0  0  0  0  0  0  0  0  0  0
  -20.3060   -0.9990  -31.1270 C   0  0  0  0  0  0  0  0  0  0  0  0
  -21.3430   -4.2020  -32.3950 C   0  0  0  0  0  3  0  0  0  0  0  0
  -21.1340   -5.0500  -31.3140 C   0  0  0  0  0  3  0  0  0  0  0  0
  -21.2700    0.1090  -34.5000 N   0  0  0  0  0  4  0  0  0  0  0  0
  -20.0640    0.2820  -35.2790 C   0  0  0  0  0  2  0  0  0  0  0  0
  -20.4470    0.7500  -36.6480 C   0  0  0  0  0  2  0  0  0  0  0  0
  -21.8190    1.2130  -36.6120 N   0  0  0  0  0  0  0  0  0  0  0  0
  -22.2090    2.0530  -35.4940 C   0  0  0  0  0  2  0  0  0  0  0  0
  -22.6940    0.8330  -37.6440 C   0  0  0  0  0  0  0  0  0  0  0  0
  -21.7700    1.4180  -34.1690 C   0  0  0  0  0  2  0  0  0  0  0  0
  -23.8790    1.2430  -37.5890 O   0  0  0  0  0  0  0  0  0  0  0  0
  -21.9910   -0.3690  -35.0800 H   0  0  0  0  0  0  0  0  0  0  0  0
  -22.2720   -0.0130  -38.7620 C   0  0  0  0  0  2  0  0  0  0  0  0
  -23.3820   -0.9500  -39.1410 C   0  0  0  0  0  2  0  0  0  0  0  0
  -23.3940   -2.2080  -38.3010 C   0  0  0  0  0  2  0  0  0  0  0  0
  -23.9330   -3.3790  -39.0190 C   0  0  0  0  0  0  0  0  0  0  0  0
  -23.3160   -3.7660  -40.0390 O   0  0  0  0  0  0  0  0  0  0  0  0
  -25.0810   -4.0090  -38.5600 O   0  0  0  0  0  1  0  0  0  0  0  0
  -19.7760   -0.4140  -29.9040 C   0  0  0  0  0  0  0  0  0  0  0  0
  -18.4230   -0.4410  -29.6060 C   0  0  0  0  0  0  0  0  0  0  0  0
  -17.9100    0.0940  -28.4370 C   0  0  0  0  0  3  0  0  0  0  0  0
  -17.3090   -1.1810  -30.7450 Cl  0  0  0  0  0  0  0  0  0  0  0  0
  -18.8150    0.6780  -27.5430 C   0  0  0  0  0  3  0  0  0  0  0  0
  -20.1670    0.7220  -27.8100 C   0  0  0  0  0  3  0  0  0  0  0  0
  -20.6260    0.1830  -28.9690 C   0  0  0  0  0  3  0  0  0  0  0  0
  2  3  1  0  0  0  0
  2  1  1  0  0  0  0
  4  9  1  0  0  0  0
  4  3  2  0  0  0  0
  5  4  1  0  0  0  0
  6  7  2  0  0  0  0
  6  5  1  0  0  0  0
  7  8  1  0  0  0  0
  8  9  2  0  0  0  0
  9 27  1  0  0  0  0
 10  5  2  0  0  0  0
 10 11  1  0  0  0  0
 11  2  2  0  0  0  0
 12 18  1  0  0  0  0
 12  7  1  0  0  0  0
 13 12  1  0  0  0  0
 14 15  1  0  0  0  0
 14 13  1  0  0  0  0
 15 16  1  0  0  0  0
 16 18  1  0  0  0  0
 17 19  2  0  0  0  0
 17 15  1  0  0  0  0
 20 12  1  0  0  0  0
 21 17  1  0  0  0  0
 22 21  1  0  0  0  0
 22 23  1  0  0  0  0
 24 26  1  0  0  0  0
 24 23  1  0  0  0  0
 25 24  2  0  0  0  0
 27 28  2  0  0  0  0
 27 33  1  0  0  0  0
 28 29  1  0  0  0  0
 29 31  2  0  0  0  0
 30 28  1  0  0  0  0
 32 31  1  0  0  0  0
 33 32  2  0  0  0  0
M  END
>  <Pose>
1

>  <Score>
-8.727

$$$$
