MODEL 1
REMARK VINA RESULT:    -8.727      0.000      0.000
REMARK INTER + INTRA:         -12.904
REMARK INTER:                 -11.788
REMARK INTRA:                  -1.116
REMARK UNBOUND:                -1.116
REMARK  6 active torsions:
REMARK  status: ('A' for Active; 'I' for Inactive)
REMARK    1  A    between atoms: C_7  and  N_17 
REMARK    2  A    between atoms: C_9  and  C_10 
REMARK       I    between atoms: N_20  and  C_23 
REMARK    3  A    between atoms: C_23  and  C_25 
REMARK    4  A    between atoms: C_25  and  C_26 
REMARK    5  A    between atoms: C_26  and  C_27 
REMARK    6  A    between atoms: C_27  and  C_28 
ROOT
ATOM      1 Br   UNK d   1     -20.334  -5.689 -28.625  0.00  0.00    -0.051 Br
ATOM      2  C   UNK d   1     -20.634  -4.551 -30.132  0.00  0.00     0.011 A 
ATOM      3  C   UNK d   1     -20.362  -3.195 -30.093  0.00  0.00     0.035 A 
ATOM      4  C   UNK d   1     -20.568  -2.349 -31.161  0.00  0.00     0.024 A 
ATOM      5  C   UNK d   1     -21.070  -2.853 -32.347  0.00  0.00     0.073 A 
ATOM      6  N   UNK d   1     -21.287  -2.036 -33.407  0.00  0.00    -0.207 NA
ATOM      7  C   UNK d   1     -21.030  -0.718 -33.366  0.00  0.00     0.327 A 
ATOM      8  N   UNK d   1     -20.540  -0.226 -32.214  0.00  0.00    -0.206 NA
ATOM      9  C   UNK d   1     -20.306  -0.999 -31.127  0.00  0.00     0.085 A 
ATOM     10  C   UNK d   1     -21.343  -4.202 -32.395  0.00  0.00     0.034 A 
ATOM     11  C   UNK d   1     -21.134  -5.050 -31.314  0.00  0.00     0.021 A 
ENDROOT
BRANCH   7  12
ATOM     12  N   UNK d   1     -21.270   0.109 -34.500  0.00  0.00    -0.004 N 
ATOM     13  C   UNK d   1     -20.064   0.282 -35.279  0.00  0.00     0.265 C 
ATOM     14  C   UNK d   1     -20.447   0.750 -36.648  0.00  0.00     0.154 C 
ATOM     15  N   UNK d   1     -21.819   1.213 -36.612  0.00  0.00    -0.349 N 
ATOM     16  C   UNK d   1     -22.209   2.053 -35.494  0.00  0.00     0.154 C 
ATOM     17  C   UNK d   1     -22.694   0.833 -37.644  0.00  0.00     0.219 C 
ATOM     18  C   UNK d   1     -21.770   1.418 -34.169  0.00  0.00     0.265 C 
ATOM     19  O   UNK d   1     -23.879   1.243 -37.589  0.00  0.00    -0.273 OA
ATOM     20  H   UNK d   1     -21.991  -0.369 -35.080  0.00  0.00     0.290 HD
BRANCH  17  21
ATOM     21  C   UNK d   1     -22.272  -0.013 -38.762  0.00  0.00     0.103 C 
BRANCH  21  22
ATOM     22  C   UNK d   1     -23.382  -0.950 -39.141  0.00  0.00     0.020 C 
BRANCH  22  23
ATOM     23  C   UNK d   1     -23.394  -2.208 -38.301  0.00  0.00     0.113 C 
BRANCH  23  24
ATOM     24  C   UNK d   1     -23.933  -3.379 -39.019  0.00  0.00     0.172 C 
ATOM     25  O   UNK d   1     -23.316  -3.766 -40.039  0.00  0.00    -0.648 OA
ATOM     26  O   UNK d   1     -25.081  -4.009 -38.560  0.00  0.00    -0.648 OA
ENDBRANCH  23  24
ENDBRANCH  22  23
ENDBRANCH  21  22
ENDBRANCH  17  21
ENDBRANCH   7  12
BRANCH   9  27
ATOM     27  C   UNK d   1     -19.776  -0.414 -29.904  0.00  0.00     0.015 A 
ATOM     28  C   UNK d   1     -18.423  -0.441 -29.606  0.00  0.00     0.046 A 
ATOM     29  C   UNK d   1     -17.910   0.094 -28.437  0.00  0.00     0.025 A 
ATOM     30 Cl   UNK d   1     -17.309  -1.181 -30.745  0.00  0.00    -0.083 Cl
ATOM     31  C   UNK d   1     -18.815   0.678 -27.543  0.00  0.00     0.002 A 
ATOM     32  C   UNK d   1     -20.167   0.722 -27.810  0.00  0.00     0.001 A 
ATOM     33  C   UNK d   1     -20.626   0.183 -28.969  0.00  0.00     0.015 A 
ENDBRANCH   9  27
TORSDOF 6
ENDMDL
