MODEL 1
REMARK VINA RESULT:    -8.361      0.000      0.000
REMARK INTER + INTRA:         -10.207
REMARK INTER:                  -9.827
REMARK INTRA:                  -0.381
REMARK UNBOUND:                -0.381
REMARK  3 active torsions:
REMARK  status: ('A' for Active; 'I' for Inactive)
REMARK    1  A    between atoms: C_7  and  C_9 
REMARK       I    between atoms: C_9  and  N_11 
REMARK       I    between atoms: N_14  and  C_17 
REMARK    2  A    between atoms: C_17  and  C_19 
REMARK    3  A    between atoms: C_19  and  N_20 
ROOT
ATOM      1  C   UNK d   1     -21.663  -2.191 -33.232  0.00  0.00     0.270 C 
ATOM      2  O   UNK d   1     -21.772  -3.414 -33.626  0.00  0.00    -0.266 OA
ATOM      3  N   UNK d   1     -22.266  -1.236 -34.052  0.00  0.00    -0.344 N 
ATOM      4  C   UNK d   1     -22.273   0.187 -33.844  0.00  0.00     0.146 C 
ATOM      5  C   UNK d   1     -22.982   0.935 -34.981  0.00  0.00     0.145 C 
ATOM      6  N   UNK d   1     -22.474   0.436 -36.249  0.00  0.00    -0.348 N 
ATOM      7  C   UNK d   1     -22.289  -1.003 -36.444  0.00  0.00     0.145 C 
ATOM      8  C   UNK d   1     -22.997  -1.681 -35.268  0.00  0.00     0.146 C 
ATOM      9  C   UNK d   1     -22.149   1.317 -37.304  0.00  0.00     0.248 C 
ATOM     10  O   UNK d   1     -22.315   2.543 -37.098  0.00  0.00    -0.271 OA
ENDROOT
BRANCH   1  11
ATOM     11  C   UNK d   1     -20.940  -1.923 -32.004  0.00  0.00     0.102 A 
ATOM     12  N   UNK d   1     -20.066  -0.971 -31.669  0.00  0.00    -0.351 N 
ATOM     13  C   UNK d   1     -19.631  -1.130 -30.381  0.00  0.00     0.043 A 
ATOM     14  H   UNK d   1     -19.724  -0.191 -32.249  0.00  0.00     0.166 HD
ATOM     15  C   UNK d   1     -20.246  -2.231 -29.851  0.00  0.00    -0.006 A 
ATOM     16  C   UNK d   1     -18.744  -0.416 -29.598  0.00  0.00     0.031 A 
ATOM     17  C   UNK d   1     -19.971  -2.615 -28.536  0.00  0.00     0.032 A 
ATOM     18  C   UNK d   1     -21.051  -2.723 -30.839  0.00  0.00     0.049 A 
ATOM     19  C   UNK d   1     -19.092  -1.912 -27.753  0.00  0.00     0.011 A 
ATOM     20 Br   UNK d   1     -18.706  -2.430 -25.946  0.00  0.00    -0.051 Br
ATOM     21  C   UNK d   1     -18.476  -0.805 -28.293  0.00  0.00     0.021 A 
ENDBRANCH   1  11
BRANCH   9  22
ATOM     22  C   UNK d   1     -21.645   0.776 -38.557  0.00  0.00     0.374 C 
BRANCH  22  23
ATOM     23  N   UNK d   1     -22.653   0.515 -39.560  0.00  0.00     0.101 N 
ATOM     24  C   UNK d   1     -22.328  -0.739 -40.245  0.00  0.00     0.299 C 
ATOM     25  C   UNK d   1     -21.602  -0.482 -41.519  0.00  0.00     0.198 C 
ATOM     26  O   UNK d   1     -20.757   0.618 -41.393  0.00  0.00    -0.388 OA
ATOM     27  C   UNK d   1     -21.484   1.806 -41.285  0.00  0.00     0.198 C 
ATOM     28  C   UNK d   1     -22.777   1.588 -40.531  0.00  0.00     0.299 C 
ENDBRANCH  22  23
ENDBRANCH   9  22
TORSDOF 3
ENDMDL
