/Users/jonathanwahrer/Desktop/Msc/3_Semester/Drug_Design_Praktikum/waehrer_HTS_screening/HTS_experiment/out/docking_results/vina_output/5l4q/0617_docked.pdbqt
 OpenBabel03212218103D

 25 28  0  0  0  0  0  0  0  0999 V2000
  -18.0600    0.6940  -24.8460 Br  0  0  0  0  0  0  0  0  0  0  0  0
  -18.7200   -0.7280  -25.9230 C   0  0  0  0  0  0  0  0  0  0  0  0
  -19.0800   -0.5260  -27.2390 C   0  0  0  0  0  3  0  0  0  0  0  0
  -19.5610   -1.5460  -28.0340 C   0  0  0  0  0  0  0  0  0  0  0  0
  -19.6780   -2.8050  -27.4760 C   0  0  0  0  0  0  0  0  0  0  0  0
  -20.1620   -3.5900  -28.4550 N   0  0  0  0  0  0  0  0  0  0  0  0
  -20.3510   -2.8820  -29.5970 C   0  0  0  0  0  0  0  0  0  0  0  0
  -19.9740   -1.5800  -29.3490 C   0  0  0  0  0  0  0  0  0  0  0  0
  -20.0750   -0.6810  -30.3470 N   0  0  0  0  0  0  0  0  0  0  0  0
  -20.5300   -1.0180  -31.5690 C   0  0  0  0  0  3  0  0  0  0  0  0
  -20.9030   -2.2760  -31.8390 N   0  0  0  0  0  0  0  0  0  0  0  0
  -20.8110   -3.1870  -30.8590 C   0  0  0  0  0  0  0  0  0  0  0  0
  -21.1560   -4.3720  -31.0940 O   0  0  0  0  0  0  0  0  0  0  0  0
  -19.3140   -2.9950  -26.1550 C   0  0  0  0  0  3  0  0  0  0  0  0
  -18.8330   -1.9800  -25.3530 C   0  0  0  0  0  3  0  0  0  0  0  0
  -20.3710   -4.6020  -28.3750 H   0  0  0  0  0  0  0  0  0  0  0  0
  -21.4040   -2.6520  -33.1730 C   0  0  0  0  0  2  0  0  0  0  0  0
  -20.9830   -1.6550  -34.1830 C   0  0  0  0  0  2  0  0  0  0  0  0
  -22.0120   -0.9360  -34.8410 N   0  0  0  0  0  0  0  0  0  0  0  0
  -21.7160    0.4220  -35.1390 C   0  0  0  0  0  2  0  0  0  0  0  0
  -22.2430    1.3890  -34.1170 C   0  0  0  0  0  2  0  0  0  0  0  0
  -23.5310    0.9930  -33.5900 N   0  0  0  0  0  0  0  0  0  0  0  0
  -24.1710    0.0090  -34.4470 C   0  0  0  0  0  2  0  0  0  0  0  0
  -23.4680    0.6460  -32.6060 H   0  0  0  0  0  0  0  0  0  0  0  0
  -23.3190   -1.2360  -34.3770 C   0  0  0  0  0  2  0  0  0  0  0  0
  2 15  1  0  0  0  0
  2  1  1  0  0  0  0
  3  2  2  0  0  0  0
  4  5  2  0  0  0  0
  4  3  1  0  0  0  0
  5 14  1  0  0  0  0
  6 16  1  0  0  0  0
  6  5  1  0  0  0  0
  7  8  2  0  0  0  0
  7  6  1  0  0  0  0
  8  4  1  0  0  0  0
  9  8  1  0  0  0  0
 10  9  2  0  0  0  0
 11 10  1  0  0  0  0
 11 12  1  0  0  0  0
 12  7  1  0  0  0  0
 13 12  2  0  0  0  0
 14 15  2  0  0  0  0
 17 11  1  0  0  0  0
 18 17  1  0  0  0  0
 19 25  1  0  0  0  0
 19 18  1  0  0  0  0
 20 19  1  0  0  0  0
 20 21  1  0  0  0  0
 21 22  1  0  0  0  0
 22 24  1  0  0  0  0
 23 25  1  0  0  0  0
 23 22  1  0  0  0  0
M  END
>  <Pose>
1

>  <Score>
-8.548

$$$$
