MODEL 1
REMARK VINA RESULT:    -8.548      0.000      0.000
REMARK INTER + INTRA:         -10.541
REMARK INTER:                 -10.047
REMARK INTRA:                  -0.494
REMARK UNBOUND:                -0.494
REMARK  3 active torsions:
REMARK  status: ('A' for Active; 'I' for Inactive)
REMARK    1  A    between atoms: N_11  and  C_14 
REMARK    2  A    between atoms: C_14  and  C_15 
REMARK    3  A    between atoms: C_15  and  N_16 
ROOT
ATOM      1 Br   UNK d   1     -18.060   0.694 -24.846  0.00  0.00    -0.051 Br
ATOM      2  C   UNK d   1     -18.720  -0.728 -25.923  0.00  0.00     0.011 A 
ATOM      3  C   UNK d   1     -19.080  -0.526 -27.239  0.00  0.00     0.035 A 
ATOM      4  C   UNK d   1     -19.561  -1.546 -28.034  0.00  0.00     0.023 A 
ATOM      5  C   UNK d   1     -19.678  -2.805 -27.476  0.00  0.00     0.045 A 
ATOM      6  N   UNK d   1     -20.162  -3.590 -28.455  0.00  0.00    -0.349 N 
ATOM      7  C   UNK d   1     -20.351  -2.882 -29.597  0.00  0.00     0.131 A 
ATOM      8  C   UNK d   1     -19.974  -1.580 -29.349  0.00  0.00     0.103 A 
ATOM      9  N   UNK d   1     -20.075  -0.681 -30.347  0.00  0.00    -0.240 NA
ATOM     10  C   UNK d   1     -20.530  -1.018 -31.569  0.00  0.00     0.213 A 
ATOM     11  N   UNK d   1     -20.903  -2.276 -31.839  0.00  0.00    -0.305 N 
ATOM     12  C   UNK d   1     -20.811  -3.187 -30.859  0.00  0.00     0.277 A 
ATOM     13  O   UNK d   1     -21.156  -4.372 -31.094  0.00  0.00    -0.265 OA
ATOM     14  C   UNK d   1     -19.314  -2.995 -26.155  0.00  0.00     0.032 A 
ATOM     15  C   UNK d   1     -18.833  -1.980 -25.353  0.00  0.00     0.021 A 
ATOM     16  H   UNK d   1     -20.371  -4.602 -28.375  0.00  0.00     0.166 HD
ENDROOT
BRANCH  11  17
ATOM     17  C   UNK d   1     -21.404  -2.652 -33.173  0.00  0.00     0.152 C 
BRANCH  17  18
ATOM     18  C   UNK d   1     -20.983  -1.655 -34.183  0.00  0.00     0.137 C 
BRANCH  18  19
ATOM     19  N   UNK d   1     -22.012  -0.936 -34.841  0.00  0.00    -0.408 N 
ATOM     20  C   UNK d   1     -21.716   0.422 -35.139  0.00  0.00     0.147 C 
ATOM     21  C   UNK d   1     -22.243   1.389 -34.117  0.00  0.00     0.289 C 
ATOM     22  N   UNK d   1     -23.531   0.993 -33.590  0.00  0.00     0.086 N 
ATOM     23  C   UNK d   1     -24.171   0.009 -34.447  0.00  0.00     0.289 C 
ATOM     24  H   UNK d   1     -23.468   0.646 -32.606  0.00  0.00     0.316 HD
ATOM     25  C   UNK d   1     -23.319  -1.236 -34.377  0.00  0.00     0.147 C 
ENDBRANCH  18  19
ENDBRANCH  17  18
ENDBRANCH  11  17
TORSDOF 3
ENDMDL
