/Users/jonathanwahrer/Desktop/Msc/3_Semester/Drug_Design_Praktikum/waehrer_HTS_screening/HTS_experiment/out/docking_results/vina_output/5l4q/0624_docked.pdbqt
 OpenBabel03212218103D

 22 25  0  0  0  0  0  0  0  0999 V2000
  -18.8450   -0.0080  -27.0740 Br  0  0  0  0  0  0  0  0  0  0  0  0
  -19.4510   -1.0170  -28.5720 C   0  0  0  0  0  0  0  0  0  0  0  0
  -19.7570   -2.3500  -28.3980 C   0  0  0  0  0  3  0  0  0  0  0  0
  -20.2050   -3.1190  -29.4800 C   0  0  0  0  0  0  0  0  0  0  0  0
  -20.3250   -2.5150  -30.6890 C   0  0  0  0  0  0  0  0  0  0  0  0
  -20.0310   -1.1870  -30.9120 C   0  0  0  0  0  0  0  0  0  0  0  0
  -19.5950   -0.4550  -29.8380 C   0  0  0  0  0  3  0  0  0  0  0  0
  -20.1970   -0.7070  -32.1830 C   0  0  0  0  0  0  0  0  0  0  0  0
  -19.9370    0.4890  -32.3980 O   0  0  0  0  0  0  0  0  0  0  0  0
  -20.6440   -1.4990  -33.2310 C   0  0  0  0  0  0  0  0  0  0  0  0
  -20.9200   -2.8170  -32.9420 C   0  0  0  0  0  3  0  0  0  0  0  0
  -20.7560   -3.3080  -31.6710 N   0  0  0  0  0  0  0  0  0  0  0  0
  -20.9670   -4.6210  -31.1020 C   0  0  0  0  0  3  0  0  0  0  0  0
  -20.6070   -4.5260  -29.6440 C   0  0  0  0  0  3  0  0  0  0  0  0
  -20.8160   -0.9710  -34.5800 C   0  0  0  0  0  0  0  0  0  0  0  0
  -19.8050   -0.6400  -35.2400 O   0  0  0  0  0  0  0  0  0  0  0  0
  -22.1250   -0.8290  -35.1510 N   0  0  0  0  0  0  0  0  0  0  0  0
  -22.3240   -0.3070  -36.4860 C   0  0  0  0  0  2  0  0  0  0  0  0
  -23.3100   -1.2040  -34.4060 C   0  0  0  0  0  2  0  0  0  0  0  0
  -23.3140    0.8560  -36.3440 C   0  0  0  0  0  2  0  0  0  0  0  0
  -24.4330    0.4210  -35.6740 O   0  0  0  0  0  0  0  0  0  0  0  0
  -24.1990    0.0420  -34.3690 C   0  0  0  0  0  2  0  0  0  0  0  0
  2  3  1  0  0  0  0
  2  1  1  0  0  0  0
  4  3  2  0  0  0  0
  5  4  1  0  0  0  0
  6  5  2  0  0  0  0
  6  7  1  0  0  0  0
  7  2  2  0  0  0  0
  8  6  1  0  0  0  0
  9  8  2  0  0  0  0
 10 11  2  0  0  0  0
 10  8  1  0  0  0  0
 11 12  1  0  0  0  0
 12 13  1  0  0  0  0
 12  5  1  0  0  0  0
 13 14  2  0  0  0  0
 14  4  1  0  0  0  0
 15 10  1  0  0  0  0
 16 15  2  0  0  0  0
 17 15  1  0  0  0  0
 17 19  1  0  0  0  0
 18 20  1  0  0  0  0
 18 17  1  0  0  0  0
 19 22  1  0  0  0  0
 20 21  1  0  0  0  0
 21 22  1  0  0  0  0
M  END
>  <Pose>
1

>  <Score>
-8.435

$$$$
