MODEL 1
REMARK VINA RESULT:    -8.435      0.000      0.000
REMARK INTER + INTRA:          -8.938
REMARK INTER:                  -8.928
REMARK INTRA:                  -0.010
REMARK UNBOUND:                -0.010
REMARK  1 active torsions:
REMARK  status: ('A' for Active; 'I' for Inactive)
REMARK    1  A    between atoms: C_10  and  C_15 
REMARK       I    between atoms: C_15  and  N_17 
ROOT
ATOM      1 Br   UNK d   1     -18.845  -0.008 -27.074  0.00  0.00    -0.051 Br
ATOM      2  C   UNK d   1     -19.451  -1.017 -28.572  0.00  0.00     0.012 A 
ATOM      3  C   UNK d   1     -19.757  -2.350 -28.398  0.00  0.00     0.028 A 
ATOM      4  C   UNK d   1     -20.205  -3.119 -29.480  0.00  0.00    -0.027 A 
ATOM      5  C   UNK d   1     -20.325  -2.515 -30.689  0.00  0.00     0.055 A 
ATOM      6  C   UNK d   1     -20.031  -1.187 -30.912  0.00  0.00     0.044 A 
ATOM      7  C   UNK d   1     -19.595  -0.455 -29.838  0.00  0.00     0.037 A 
ATOM      8  C   UNK d   1     -20.197  -0.707 -32.183  0.00  0.00     0.201 A 
ATOM      9  O   UNK d   1     -19.937   0.489 -32.398  0.00  0.00    -0.286 OA
ATOM     10  C   UNK d   1     -20.644  -1.499 -33.231  0.00  0.00     0.098 A 
ATOM     11  C   UNK d   1     -20.920  -2.817 -32.942  0.00  0.00     0.112 A 
ATOM     12  N   UNK d   1     -20.756  -3.308 -31.671  0.00  0.00    -0.354 N 
ATOM     13  C   UNK d   1     -20.967  -4.621 -31.102  0.00  0.00     0.133 A 
ATOM     14  C   UNK d   1     -20.607  -4.526 -29.644  0.00  0.00     0.061 A 
ENDROOT
BRANCH  10  15
ATOM     15  C   UNK d   1     -20.816  -0.971 -34.580  0.00  0.00     0.259 C 
ATOM     16  O   UNK d   1     -19.805  -0.640 -35.240  0.00  0.00    -0.267 OA
ATOM     17  N   UNK d   1     -22.125  -0.829 -35.151  0.00  0.00    -0.344 N 
ATOM     18  C   UNK d   1     -22.324  -0.307 -36.486  0.00  0.00     0.152 C 
ATOM     19  C   UNK d   1     -23.310  -1.204 -34.406  0.00  0.00     0.152 C 
ATOM     20  C   UNK d   1     -23.314   0.856 -36.344  0.00  0.00     0.187 C 
ATOM     21  O   UNK d   1     -24.433   0.421 -35.674  0.00  0.00    -0.388 OA
ATOM     22  C   UNK d   1     -24.199   0.042 -34.369  0.00  0.00     0.187 C 
ENDBRANCH  10  15
TORSDOF 1
ENDMDL
