MODEL 1
REMARK VINA RESULT:    -8.549      0.000      0.000
REMARK INTER + INTRA:         -12.541
REMARK INTER:                 -11.797
REMARK INTRA:                  -0.745
REMARK UNBOUND:                -0.745
REMARK  7 active torsions:
REMARK  status: ('A' for Active; 'I' for Inactive)
REMARK    1  A    between atoms: C_6  and  O_28 
REMARK    2  A    between atoms: C_10  and  N_11 
REMARK       I    between atoms: N_11  and  C_12 
REMARK    3  A    between atoms: C_12  and  C_14 
REMARK    4  A    between atoms: C_14  and  N_15 
REMARK    5  A    between atoms: N_18  and  C_21 
REMARK    6  A    between atoms: C_21  and  C_22 
REMARK       I    between atoms: C_22  and  N_24 
REMARK    7  A    between atoms: N_24  and  C_25 
ROOT
ATOM      1  N   UNK d   1     -20.357  -0.618 -31.716  0.00  0.00    -0.324 N 
ATOM      2  C   UNK d   1     -19.278  -0.039 -32.397  0.00  0.00     0.239 C 
ATOM      3  O   UNK d   1     -18.100  -0.386 -32.126  0.00  0.00    -0.271 OA
ATOM      4  H   UNK d   1     -21.316  -0.274 -32.027  0.00  0.00     0.169 HD
ENDROOT
BRANCH   2   5
ATOM      5  C   UNK d   1     -19.421   0.981 -33.442  0.00  0.00     0.220 C 
BRANCH   5   6
ATOM      6  N   UNK d   1     -20.546   0.915 -34.286  0.00  0.00    -0.401 N 
ATOM      7  C   UNK d   1     -21.275   2.107 -34.529  0.00  0.00     0.136 C 
ATOM      8  C   UNK d   1     -22.686   1.826 -35.049  0.00  0.00     0.136 C 
ATOM      9  N   UNK d   1     -22.576   0.997 -36.172  0.00  0.00    -0.401 N 
ATOM     10  C   UNK d   1     -21.309   0.480 -36.514  0.00  0.00     0.136 C 
ATOM     11  C   UNK d   1     -20.447   0.011 -35.381  0.00  0.00     0.136 C 
BRANCH   9  12
ATOM     12  C   UNK d   1     -23.737   0.355 -36.595  0.00  0.00     0.219 C 
BRANCH  12  13
ATOM     13  C   UNK d   1     -23.650  -1.037 -37.036  0.00  0.00     0.235 C 
ATOM     14  O   UNK d   1     -23.466  -1.900 -36.092  0.00  0.00    -0.272 OA
ATOM     15  N   UNK d   1     -23.743  -1.536 -38.330  0.00  0.00    -0.355 N 
ATOM     16  H   UNK d   1     -23.901  -0.893 -39.132  0.00  0.00     0.162 HD
BRANCH  15  17
ATOM     17  C   UNK d   1     -23.641  -2.956 -38.651  0.00  0.00     0.084 A 
ATOM     18  C   UNK d   1     -24.840  -3.747 -38.971  0.00  0.00     0.027 A 
ATOM     19  C   UNK d   1     -23.883  -3.370 -40.087  0.00  0.00     0.027 A 
ENDBRANCH  15  17
ENDBRANCH  12  13
ENDBRANCH   9  12
ENDBRANCH   5   6
ENDBRANCH   2   5
BRANCH   1  20
ATOM     20  C   UNK d   1     -20.308  -1.598 -30.701  0.00  0.00     0.054 A 
ATOM     21  C   UNK d   1     -20.756  -2.880 -30.981  0.00  0.00     0.040 A 
ATOM     22 Br   UNK d   1     -21.442  -3.214 -32.741  0.00  0.00    -0.049 Br
ATOM     23  C   UNK d   1     -20.741  -3.909 -30.068  0.00  0.00     0.055 A 
ATOM     24  C   UNK d   1     -20.266  -3.705 -28.795  0.00  0.00     0.089 A 
ATOM     25  N   UNK d   1     -20.109  -4.456 -27.689  0.00  0.00    -0.207 NA
ATOM     26  C   UNK d   1     -19.820  -2.448 -28.498  0.00  0.00     0.066 A 
ATOM     27  C   UNK d   1     -19.578  -3.722 -26.694  0.00  0.00     0.244 A 
ATOM     28  N   UNK d   1     -19.409  -2.494 -27.214  0.00  0.00    -0.319 N 
ATOM     29  H   UNK d   1     -19.008  -1.664 -26.695  0.00  0.00     0.169 HD
ATOM     30  C   UNK d   1     -19.833  -1.396 -29.425  0.00  0.00     0.063 A 
BRANCH  27  31
ATOM     31  O   UNK d   1     -19.270  -4.164 -25.392  0.00  0.00    -0.331 OA
ATOM     32  H   UNK d   1     -18.532  -4.879 -25.338  0.00  0.00     0.221 HD
ENDBRANCH  27  31
ENDBRANCH   1  20
TORSDOF 7
ENDMDL
