MODEL 1
REMARK VINA RESULT:    -8.489      0.000      0.000
REMARK INTER + INTRA:         -11.521
REMARK INTER:                 -10.474
REMARK INTRA:                  -1.047
REMARK UNBOUND:                -1.047
REMARK  4 active torsions:
REMARK  status: ('A' for Active; 'I' for Inactive)
REMARK    1  A    between atoms: N_4  and  C_31 
REMARK    2  A    between atoms: C_6  and  C_7 
REMARK       I    between atoms: C_7  and  N_9 
REMARK       I    between atoms: N_12  and  C_15 
REMARK    3  A    between atoms: C_15  and  C_17 
REMARK    4  A    between atoms: C_20  and  C_22 
REMARK       I    between atoms: C_22  and  N_24 
ROOT
ATOM      1  C   UNK d   1     -19.747   0.490 -37.128  0.00  0.00     0.275 C 
ATOM      2  O   UNK d   1     -18.852  -0.420 -37.266  0.00  0.00    -0.266 OA
ATOM      3  N   UNK d   1     -19.609   1.363 -36.082  0.00  0.00    -0.344 N 
ATOM      4  C   UNK d   1     -20.506   2.428 -35.755  0.00  0.00     0.146 C 
ATOM      5  C   UNK d   1     -21.251   2.064 -34.513  0.00  0.00     0.145 C 
ATOM      6  N   UNK d   1     -20.482   1.153 -33.677  0.00  0.00    -0.355 N 
ATOM      7  C   UNK d   1     -19.065   1.024 -33.753  0.00  0.00     0.145 C 
ATOM      8  C   UNK d   1     -18.476   1.269 -35.139  0.00  0.00     0.146 C 
ATOM      9  C   UNK d   1     -21.295   0.348 -32.808  0.00  0.00     0.205 C 
ATOM     10  O   UNK d   1     -22.585   0.467 -32.939  0.00  0.00    -0.170 OA
ENDROOT
BRANCH   9  11
ATOM     11  C   UNK d   1     -20.796  -0.556 -31.831  0.00  0.00     0.108 A 
ATOM     12  N   UNK d   1     -20.482  -1.879 -32.113  0.00  0.00    -0.269 N 
ATOM     13  N   UNK d   1     -20.111  -2.481 -31.030  0.00  0.00    -0.167 NA
ATOM     14  C   UNK d   1     -20.549  -2.498 -33.415  0.00  0.00     0.180 C 
ATOM     15  C   UNK d   1     -20.144  -1.661 -29.984  0.00  0.00     0.147 A 
ATOM     16  C   UNK d   1     -20.586  -0.426 -30.503  0.00  0.00     0.075 A 
BRANCH  15  17
ATOM     17  C   UNK d   1     -19.793  -1.912 -28.598  0.00  0.00     0.274 C 
ATOM     18  O   UNK d   1     -20.458  -2.832 -28.001  0.00  0.00    -0.266 OA
ATOM     19  N   UNK d   1     -18.811  -1.245 -27.882  0.00  0.00    -0.343 N 
ATOM     20  C   UNK d   1     -18.576  -1.650 -26.492  0.00  0.00     0.152 C 
ATOM     21  C   UNK d   1     -18.018  -0.170 -28.390  0.00  0.00     0.152 C 
ATOM     22  C   UNK d   1     -18.673  -0.381 -25.671  0.00  0.00     0.187 C 
ATOM     23  O   UNK d   1     -17.575   0.403 -26.069  0.00  0.00    -0.388 OA
ATOM     24  C   UNK d   1     -17.784   0.895 -27.327  0.00  0.00     0.187 C 
ENDBRANCH  15  17
ENDBRANCH   9  11
BRANCH   1  25
ATOM     25  C   UNK d   1     -20.804   0.476 -38.107  0.00  0.00     0.163 A 
ATOM     26  C   UNK d   1     -22.091  -0.053 -37.967  0.00  0.00     0.064 A 
ATOM     27 Br   UNK d   1     -22.740  -0.906 -36.370  0.00  0.00    -0.047 Br
ATOM     28  C   UNK d   1     -22.777   0.142 -39.135  0.00  0.00     0.134 A 
ATOM     29  N   UNK d   1     -21.950   0.771 -39.977  0.00  0.00    -0.279 N 
ATOM     30  N   UNK d   1     -20.803   0.965 -39.382  0.00  0.00    -0.166 NA
BRANCH  29  31
ATOM     31  C   UNK d   1     -22.357   1.132 -41.329  0.00  0.00     0.146 C 
ATOM     32  C   UNK d   1     -23.107   2.436 -41.387  0.00  0.00     0.028 C 
ENDBRANCH  29  31
ENDBRANCH   1  25
TORSDOF 4
ENDMDL
