MODEL 1
REMARK VINA RESULT:    -8.401      0.000      0.000
REMARK INTER + INTRA:         -11.945
REMARK INTER:                 -10.857
REMARK INTRA:                  -1.088
REMARK UNBOUND:                -1.088
REMARK  5 active torsions:
REMARK  status: ('A' for Active; 'I' for Inactive)
REMARK    1  A    between atoms: N_4  and  C_7 
REMARK    2  A    between atoms: C_7  and  C_8 
REMARK       I    between atoms: C_8  and  N_10 
REMARK    3  A    between atoms: N_10  and  C_11 
REMARK    4  A    between atoms: C_11  and  C_12 
REMARK    5  A    between atoms: C_15  and  O_24 
ROOT
ATOM      1  C   UNK d   1     -19.652  -1.402 -30.747  0.00  0.00     0.003 A 
ATOM      2  C   UNK d   1     -20.314  -2.538 -31.138  0.00  0.00     0.116 A 
ATOM      3  C   UNK d   1     -20.680  -3.507 -30.222  0.00  0.00     0.140 A 
ATOM      4  C   UNK d   1     -20.389  -3.362 -28.884  0.00  0.00     0.120 A 
ATOM      5  C   UNK d   1     -19.708  -2.202 -28.468  0.00  0.00     0.075 A 
ATOM      6  C   UNK d   1     -19.347  -1.242 -29.376  0.00  0.00    -0.027 A 
ATOM      7  C   UNK d   1     -18.648  -0.034 -28.930  0.00  0.00     0.060 C 
ATOM      8  C   UNK d   1     -17.940  -0.093 -27.635  0.00  0.00     0.130 C 
ATOM      9  N   UNK d   1     -18.592  -0.937 -26.642  0.00  0.00    -0.352 N 
ATOM     10  C   UNK d   1     -19.338  -2.072 -27.063  0.00  0.00     0.256 C 
ATOM     11  O   UNK d   1     -19.666  -2.947 -26.206  0.00  0.00    -0.267 OA
ATOM     12  C   UNK d   1     -18.418  -0.568 -25.256  0.00  0.00     0.152 C 
ATOM     13  O   UNK d   1     -21.322  -4.500 -30.937  0.00  0.00    -0.320 OA
ATOM     14  C   UNK d   1     -21.533  -4.094 -32.265  0.00  0.00     0.352 C 
ATOM     15  O   UNK d   1     -20.728  -2.930 -32.432  0.00  0.00    -0.322 OA
ENDROOT
BRANCH   1  16
ATOM     16  C   UNK d   1     -19.210  -0.369 -31.708  0.00  0.00     0.164 C 
BRANCH  16  17
ATOM     17  N   UNK d   1     -20.293   0.181 -32.502  0.00  0.00    -0.355 N 
ATOM     18  C   UNK d   1     -20.246   0.805 -33.730  0.00  0.00     0.237 C 
ATOM     19  O   UNK d   1     -19.148   0.981 -34.349  0.00  0.00    -0.272 OA
ATOM     20  H   UNK d   1     -21.249   0.062 -32.039  0.00  0.00     0.162 HD
BRANCH  18  21
ATOM     21  C   UNK d   1     -21.486   1.303 -34.386  0.00  0.00     0.253 C 
BRANCH  21  22
ATOM     22  N   UNK d   1     -22.078   0.155 -35.099  0.00  0.00    -0.271 N 
ATOM     23  C   UNK d   1     -22.421   0.092 -36.382  0.00  0.00     0.133 A 
ATOM     24  C   UNK d   1     -22.931  -1.162 -36.627  0.00  0.00     0.047 A 
ATOM     25 Br   UNK d   1     -23.597  -1.849 -38.280  0.00  0.00    -0.048 Br
ATOM     26  C   UNK d   1     -22.892  -1.869 -35.448  0.00  0.00     0.159 A 
ATOM     27  N   UNK d   1     -22.364  -1.023 -34.551  0.00  0.00    -0.183 NA
ENDBRANCH  21  22
ENDBRANCH  18  21
ENDBRANCH  16  17
ENDBRANCH   1  16
BRANCH   4  28
ATOM     28  O   UNK d   1     -20.741  -4.310 -27.939  0.00  0.00    -0.352 OA
ATOM     29  C   UNK d   1     -20.286  -5.643 -28.035  0.00  0.00     0.210 C 
ENDBRANCH   4  28
TORSDOF 5
ENDMDL
