MODEL 1
REMARK VINA RESULT:    -8.739      0.000      0.000
REMARK INTER + INTRA:         -10.642
REMARK INTER:                 -10.272
REMARK INTRA:                  -0.370
REMARK UNBOUND:                -0.370
REMARK  3 active torsions:
REMARK  status: ('A' for Active; 'I' for Inactive)
REMARK    1  A    between atoms: N_4  and  C_7 
REMARK    2  A    between atoms: C_7  and  N_8 
REMARK    3  A    between atoms: C_10  and  C_13 
ROOT
ATOM      1  C   UNK d   1     -20.285  -3.028 -29.284  0.00  0.00     0.202 A 
ATOM      2  N   UNK d   1     -20.236  -3.774 -28.169  0.00  0.00    -0.142 NA
ATOM      3  N   UNK d   1     -19.676  -3.082 -27.177  0.00  0.00    -0.206 N 
ATOM      4  C   UNK d   1     -19.354  -1.851 -27.670  0.00  0.00     0.170 A 
ATOM      5  N   UNK d   1     -19.738  -1.845 -28.961  0.00  0.00    -0.205 NA
ATOM      6  C   UNK d   1     -18.755  -0.943 -26.823  0.00  0.00     0.078 A 
ATOM      7  C   UNK d   1     -18.470  -1.231 -25.500  0.00  0.00     0.160 A 
ATOM      8  N   UNK d   1     -17.892  -0.160 -24.931  0.00  0.00    -0.261 N 
ATOM      9  N   UNK d   1     -17.811   0.780 -25.859  0.00  0.00    -0.184 NA
ATOM     10  C   UNK d   1     -18.327   0.342 -27.026  0.00  0.00     0.158 A 
ATOM     11  N   UNK d   1     -18.804  -2.454 -25.060  0.00  0.00    -0.222 NA
ATOM     12  C   UNK d   1     -19.388  -3.336 -25.888  0.00  0.00     0.239 A 
ATOM     13  H   UNK d   1     -17.560  -0.059 -23.948  0.00  0.00     0.191 HD
ENDROOT
BRANCH   1  14
ATOM     14  C   UNK d   1     -20.829  -3.440 -30.577  0.00  0.00     0.128 A 
ATOM     15  N   UNK d   1     -21.230  -2.660 -31.596  0.00  0.00    -0.167 NA
ATOM     16  N   UNK d   1     -21.667  -3.388 -32.608  0.00  0.00    -0.261 N 
ATOM     17  C   UNK d   1     -21.567  -4.689 -32.288  0.00  0.00     0.117 A 
ATOM     18  C   UNK d   1     -21.038  -4.735 -31.002  0.00  0.00     0.056 A 
BRANCH  16  19
ATOM     19  C   UNK d   1     -22.177  -2.857 -33.875  0.00  0.00     0.300 C 
BRANCH  19  20
ATOM     20  N   UNK d   1     -21.678  -1.521 -34.129  0.00  0.00    -0.260 N 
ATOM     21  C   UNK d   1     -22.395  -0.386 -34.093  0.00  0.00     0.135 A 
ATOM     22  C   UNK d   1     -21.553   0.666 -34.391  0.00  0.00     0.047 A 
ATOM     23 Br   UNK d   1     -22.021   2.496 -34.486  0.00  0.00    -0.048 Br
ATOM     24  C   UNK d   1     -20.308   0.119 -34.607  0.00  0.00     0.159 A 
ATOM     25  N   UNK d   1     -20.430  -1.217 -34.435  0.00  0.00    -0.182 NA
ENDBRANCH  19  20
ENDBRANCH  16  19
ENDBRANCH   1  14
TORSDOF 3
ENDMDL
