/Users/jonathanwahrer/Desktop/Msc/3_Semester/Drug_Design_Praktikum/waehrer_HTS_screening/HTS_experiment/out/docking_results/vina_output/5l4q/0662_docked.pdbqt
 OpenBabel03212218113D

 25 29  0  0  0  0  0  0  0  0999 V2000
  -20.2850   -3.0280  -29.2840 C   0  0  0  0  0  0  0  0  0  0  0  0
  -20.2360   -3.7740  -28.1690 N   0  0  0  0  0  0  0  0  0  0  0  0
  -19.6760   -3.0820  -27.1770 N   0  0  0  0  0  0  0  0  0  0  0  0
  -19.3540   -1.8510  -27.6700 C   0  0  0  0  0  0  0  0  0  0  0  0
  -19.7380   -1.8450  -28.9610 N   0  0  0  0  0  0  0  0  0  0  0  0
  -18.7550   -0.9430  -26.8230 C   0  0  0  0  0  0  0  0  0  0  0  0
  -18.4700   -1.2310  -25.5000 C   0  0  0  0  0  0  0  0  0  0  0  0
  -17.8920   -0.1600  -24.9310 N   0  0  0  0  0  0  0  0  0  0  0  0
  -17.8110    0.7800  -25.8590 N   0  0  0  0  0  0  0  0  0  0  0  0
  -18.3270    0.3420  -27.0260 C   0  0  0  0  0  3  0  0  0  0  0  0
  -18.8040   -2.4540  -25.0600 N   0  0  0  0  0  0  0  0  0  0  0  0
  -19.3880   -3.3360  -25.8880 C   0  0  0  0  0  3  0  0  0  0  0  0
  -17.5600   -0.0590  -23.9480 H   0  0  0  0  0  0  0  0  0  0  0  0
  -20.8290   -3.4400  -30.5770 C   0  0  0  0  0  0  0  0  0  0  0  0
  -21.2300   -2.6600  -31.5960 N   0  0  0  0  0  0  0  0  0  0  0  0
  -21.6670   -3.3880  -32.6080 N   0  0  0  0  0  0  0  0  0  0  0  0
  -21.5670   -4.6890  -32.2880 C   0  0  0  0  0  3  0  0  0  0  0  0
  -21.0380   -4.7350  -31.0020 C   0  0  0  0  0  3  0  0  0  0  0  0
  -22.1770   -2.8570  -33.8750 C   0  0  0  0  0  2  0  0  0  0  0  0
  -21.6780   -1.5210  -34.1290 N   0  0  0  0  0  0  0  0  0  0  0  0
  -22.3950   -0.3860  -34.0930 C   0  0  0  0  0  3  0  0  0  0  0  0
  -21.5530    0.6660  -34.3910 C   0  0  0  0  0  0  0  0  0  0  0  0
  -22.0210    2.4960  -34.4860 Br  0  0  0  0  0  0  0  0  0  0  0  0
  -20.3080    0.1190  -34.6070 C   0  0  0  0  0  3  0  0  0  0  0  0
  -20.4300   -1.2170  -34.4350 N   0  0  0  0  0  0  0  0  0  0  0  0
  1  5  1  0  0  0  0
  1  2  2  0  0  0  0
  2  3  1  0  0  0  0
  3 12  1  0  0  0  0
  4  3  1  0  0  0  0
  4  6  1  0  0  0  0
  5  4  2  0  0  0  0
  6  7  2  0  0  0  0
  7 11  1  0  0  0  0
  7  8  1  0  0  0  0
  8 13  1  0  0  0  0
  9  8  1  0  0  0  0
 10  6  1  0  0  0  0
 10  9  2  0  0  0  0
 12 11  2  0  0  0  0
 14  1  1  0  0  0  0
 15 14  2  0  0  0  0
 16 17  1  0  0  0  0
 16 15  1  0  0  0  0
 17 18  2  0  0  0  0
 18 14  1  0  0  0  0
 19 16  1  0  0  0  0
 20 21  1  0  0  0  0
 20 19  1  0  0  0  0
 22 21  2  0  0  0  0
 23 22  1  0  0  0  0
 24 25  2  0  0  0  0
 24 22  1  0  0  0  0
 25 20  1  0  0  0  0
M  END
>  <Pose>
1

>  <Score>
-8.739

$$$$
