MODEL 1
REMARK VINA RESULT:    -8.356      0.000      0.000
REMARK INTER + INTRA:          -9.926
REMARK INTER:                  -9.333
REMARK INTRA:                  -0.593
REMARK UNBOUND:                -0.593
REMARK  2 active torsions:
REMARK  status: ('A' for Active; 'I' for Inactive)
REMARK    1  A    between atoms: N_4  and  C_7 
REMARK    2  A    between atoms: C_10  and  C_13 
REMARK       I    between atoms: C_13  and  N_15 
ROOT
ATOM      1  C   UNK d   1     -21.669   1.332 -35.218  0.00  0.00     0.253 C 
ATOM      2  O   UNK d   1     -22.585   2.180 -34.874  0.00  0.00    -0.267 OA
ATOM      3  N   UNK d   1     -21.016   1.604 -36.408  0.00  0.00    -0.348 N 
ATOM      4  C   UNK d   1     -19.930   0.935 -37.072  0.00  0.00     0.129 C 
ATOM      5  C   UNK d   1     -20.536   0.085 -38.172  0.00  0.00     0.061 C 
ATOM      6  C   UNK d   1     -21.702   0.808 -38.816  0.00  0.00     0.118 C 
ATOM      7  N   UNK d   1     -21.646   0.533 -40.235  0.00  0.00    -0.324 N 
ATOM      8  C   UNK d   1     -22.306  -0.702 -40.466  0.00  0.00     0.323 C 
ATOM      9  O   UNK d   1     -22.194  -1.477 -41.471  0.00  0.00    -0.247 OA
ATOM     10  N   UNK d   1     -23.154  -0.933 -39.329  0.00  0.00    -0.277 N 
ATOM     11  C   UNK d   1     -22.981   0.182 -38.430  0.00  0.00     0.254 C 
ATOM     12  O   UNK d   1     -23.791   0.494 -37.531  0.00  0.00    -0.270 OA
ATOM     13  C   UNK d   1     -21.668   2.290 -38.619  0.00  0.00     0.061 C 
ATOM     14  C   UNK d   1     -21.520   2.761 -37.212  0.00  0.00     0.129 C 
ATOM     15  H   UNK d   1     -21.212   1.105 -40.985  0.00  0.00     0.165 HD
ATOM     16  H   UNK d   1     -23.793  -1.736 -39.138  0.00  0.00     0.173 HD
ENDROOT
BRANCH   1  17
ATOM     17  C   UNK d   1     -21.491   0.240 -34.288  0.00  0.00     0.032 A 
ATOM     18  C   UNK d   1     -21.947  -1.048 -34.640  0.00  0.00     0.019 A 
ATOM     19  C   UNK d   1     -21.781  -2.139 -33.831  0.00  0.00     0.032 A 
ATOM     20  C   UNK d   1     -21.151  -2.052 -32.613  0.00  0.00     0.058 A 
ATOM     21  C   UNK d   1     -20.698  -0.813 -32.247  0.00  0.00     0.032 A 
ATOM     22  C   UNK d   1     -20.861   0.313 -33.068  0.00  0.00     0.019 A 
BRANCH  20  23
ATOM     23  N   UNK d   1     -20.992  -3.201 -31.794  0.00  0.00    -0.244 N 
ATOM     24  C   UNK d   1     -20.705  -3.264 -30.482  0.00  0.00     0.139 A 
ATOM     25  C   UNK d   1     -20.643  -4.583 -30.090  0.00  0.00     0.047 A 
ATOM     26 Br   UNK d   1     -20.268  -5.262 -28.327  0.00  0.00    -0.048 Br
ATOM     27  C   UNK d   1     -20.905  -5.315 -31.226  0.00  0.00     0.159 A 
ATOM     28  N   UNK d   1     -21.106  -4.444 -32.213  0.00  0.00    -0.179 NA
ENDBRANCH  20  23
ENDBRANCH   1  17
TORSDOF 2
ENDMDL
