MODEL 1
REMARK VINA RESULT:    -8.345      0.000      0.000
REMARK INTER + INTRA:         -10.934
REMARK INTER:                 -10.296
REMARK INTRA:                  -0.638
REMARK UNBOUND:                -0.638
REMARK  4 active torsions:
REMARK  status: ('A' for Active; 'I' for Inactive)
REMARK    1  A    between atoms: C_5  and  N_8 
REMARK    2  A    between atoms: N_8  and  C_9 
REMARK    3  A    between atoms: C_10  and  N_22 
REMARK    4  A    between atoms: N_13  and  C_16 
ROOT
ATOM      1  C   UNK d   1     -19.973  -0.852 -33.726  0.00  0.00     0.136 A 
ATOM      2  C   UNK d   1     -19.728   0.270 -33.118  0.00  0.00     0.140 A 
ATOM      3  C   UNK d   1     -19.722  -0.024 -31.684  0.00  0.00     0.285 A 
ATOM      4  O   UNK d   1     -19.515   0.848 -30.783  0.00  0.00    -0.265 OA
ATOM      5  N   UNK d   1     -19.981  -1.414 -31.442  0.00  0.00    -0.241 N 
ATOM      6  C   UNK d   1     -20.143  -1.957 -32.751  0.00  0.00     0.284 A 
ATOM      7  O   UNK d   1     -20.387  -3.161 -33.028  0.00  0.00    -0.265 OA
ENDROOT
BRANCH   1   8
ATOM      8  N   UNK d   1     -20.084  -1.107 -35.113  0.00  0.00    -0.335 N 
ATOM      9  H   UNK d   1     -19.332  -1.574 -35.620  0.00  0.00     0.168 HD
BRANCH   8  10
ATOM     10  C   UNK d   1     -21.263  -0.694 -35.775  0.00  0.00     0.127 A 
ATOM     11  N   UNK d   1     -21.232   0.241 -36.762  0.00  0.00    -0.242 NA
ATOM     12  C   UNK d   1     -22.320   0.677 -37.407  0.00  0.00     0.138 A 
ATOM     13  C   UNK d   1     -23.563   0.191 -37.100  0.00  0.00     0.028 A 
ATOM     14 Br   UNK d   1     -25.139   0.799 -37.995  0.00  0.00    -0.050 Br
ATOM     15  C   UNK d   1     -23.669  -0.760 -36.111  0.00  0.00     0.024 A 
ATOM     16  C   UNK d   1     -22.538  -1.186 -35.471  0.00  0.00     0.052 A 
ENDBRANCH   8  10
ENDBRANCH   1   8
BRANCH   2  17
ATOM     17  N   UNK d   1     -19.492   1.560 -33.686  0.00  0.00    -0.326 N 
ATOM     18  C   UNK d   1     -18.232   1.971 -33.918  0.00  0.00     0.097 A 
ATOM     19  C   UNK d   1     -17.965   3.237 -34.468  0.00  0.00     0.018 A 
ATOM     20  C   UNK d   1     -19.011   4.086 -34.780  0.00  0.00     0.003 A 
ATOM     21  C   UNK d   1     -20.292   3.642 -34.534  0.00  0.00     0.018 A 
ATOM     22  C   UNK d   1     -20.509   2.400 -33.997  0.00  0.00     0.097 A 
ENDBRANCH   2  17
BRANCH   5  23
ATOM     23  C   UNK d   1     -20.064  -2.075 -30.189  0.00  0.00     0.046 A 
ATOM     24  C   UNK d   1     -20.916  -3.121 -29.941  0.00  0.00     0.030 A 
ATOM     25  C   UNK d   1     -20.959  -3.765 -28.687  0.00  0.00     0.002 A 
ATOM     26  C   UNK d   1     -20.135  -3.355 -27.664  0.00  0.00     0.000 A 
ATOM     27  C   UNK d   1     -19.281  -2.309 -27.907  0.00  0.00     0.002 A 
ATOM     28  C   UNK d   1     -19.252  -1.683 -29.154  0.00  0.00     0.030 A 
ENDBRANCH   5  23
TORSDOF 4
ENDMDL
