MODEL 1
REMARK VINA RESULT:    -8.050      0.000      0.000
REMARK INTER + INTRA:          -9.728
REMARK INTER:                  -9.462
REMARK INTRA:                  -0.266
REMARK UNBOUND:                -0.266
REMARK  3 active torsions:
REMARK  status: ('A' for Active; 'I' for Inactive)
REMARK    1  A    between atoms: C_5  and  N_8 
REMARK    2  A    between atoms: C_10  and  C_12 
REMARK    3  A    between atoms: C_12  and  N_13 
ROOT
ATOM      1  C   UNK d   1     -20.710  -3.047 -29.513  0.00  0.00     0.160 C 
ENDROOT
BRANCH   1   2
ATOM      2  C   UNK d   1     -20.019  -2.112 -30.455  0.00  0.00     0.043 C 
ATOM      3  C   UNK d   1     -20.354  -2.288 -31.923  0.00  0.00     0.149 C 
ATOM      4  N   UNK d   1     -20.173  -0.868 -32.019  0.00  0.00    -0.213 N 
ATOM      5  C   UNK d   1     -20.744  -0.794 -30.704  0.00  0.00     0.149 C 
BRANCH   4   6
ATOM      6  C   UNK d   1     -19.669   0.024 -32.971  0.00  0.00     0.724 A 
ATOM      7  N   UNK d   1     -18.433   0.565 -32.919  0.00  0.00    -0.074 NA
ATOM      8  C   UNK d   1     -17.935   1.411 -33.811  0.00  0.00     0.157 A 
ATOM      9  C   UNK d   1     -18.703   1.792 -34.888  0.00  0.00     0.047 A 
ATOM     10 Br   UNK d   1     -18.013   3.011 -36.190  0.00  0.00    -0.048 Br
ATOM     11  C   UNK d   1     -19.972   1.260 -34.977  0.00  0.00     0.157 A 
ATOM     12  N   UNK d   1     -20.426   0.405 -34.043  0.00  0.00    -0.074 NA
ENDBRANCH   4   6
ENDBRANCH   1   2
BRANCH   1  13
ATOM     13  N   UNK d   1     -20.106  -2.896 -28.216  0.00  0.00    -0.257 N 
ATOM     14  N   UNK d   1     -19.666  -1.645 -27.784  0.00  0.00    -0.296 N 
ATOM     15  C   UNK d   1     -19.064  -1.447 -26.512  0.00  0.00     0.051 A 
ATOM     16  H   UNK d   1     -19.800  -0.833 -28.454  0.00  0.00     0.187 HD
ATOM     17  C   UNK d   1     -18.665  -0.242 -26.153  0.00  0.00    -0.051 A 
ATOM     18  C   UNK d   1     -18.885  -2.564 -25.606  0.00  0.00     0.036 A 
ATOM     19  C   UNK d   1     -18.447   1.210 -26.312  0.00  0.00     0.041 A 
ATOM     20  C   UNK d   1     -18.019   0.593 -25.066  0.00  0.00     0.041 A 
ATOM     21  C   UNK d   1     -19.294  -3.761 -25.994  0.00  0.00     0.078 A 
ATOM     22  C   UNK d   1     -19.922  -3.977 -27.314  0.00  0.00     0.262 A 
ATOM     23  O   UNK d   1     -20.303  -5.127 -27.660  0.00  0.00    -0.267 OA
ENDBRANCH   1  13
TORSDOF 3
ENDMDL
