MODEL 1
REMARK VINA RESULT:    -9.036      0.000      0.000
REMARK INTER + INTRA:          -9.260
REMARK INTER:                 -10.093
REMARK INTRA:                   0.832
REMARK UNBOUND:                 0.832
REMARK  2 active torsions:
REMARK  status: ('A' for Active; 'I' for Inactive)
REMARK    1  A    between atoms: C_6  and  C_8 
REMARK       I    between atoms: C_8  and  N_10 
REMARK    2  A    between atoms: C_12  and  N_14 
ROOT
ATOM      1  C   UNK d   1     -20.460  -3.062 -28.664  0.00  0.00     0.255 C 
ATOM      2  O   UNK d   1     -21.001  -4.190 -28.370  0.00  0.00    -0.267 OA
ATOM      3  N   UNK d   1     -20.592  -2.607 -29.989  0.00  0.00    -0.344 N 
ATOM      4  C   UNK d   1     -20.194  -1.504 -30.808  0.00  0.00     0.153 C 
ATOM      5  C   UNK d   1     -20.273  -2.460 -32.012  0.00  0.00     0.132 C 
ATOM      6  C   UNK d   1     -21.294  -3.135 -31.177  0.00  0.00     0.153 C 
ENDROOT
BRANCH   5   7
ATOM      7  N   UNK d   1     -20.725  -1.787 -33.199  0.00  0.00    -0.280 N 
ATOM      8  C   UNK d   1     -20.254  -0.546 -33.757  0.00  0.00     0.232 C 
ATOM      9  O   UNK d   1     -19.120  -0.070 -33.574  0.00  0.00    -0.272 OA
ATOM     10  C   UNK d   1     -21.402  -0.007 -34.565  0.00  0.00     0.095 C 
ATOM     11  C   UNK d   1     -21.926  -1.289 -35.167  0.00  0.00     0.095 C 
ATOM     12  C   UNK d   1     -22.339   0.647 -33.608  0.00  0.00     0.041 C 
ATOM     13  C   UNK d   1     -23.354  -1.138 -35.615  0.00  0.00     0.041 C 
ATOM     14  C   UNK d   1     -21.757  -2.251 -34.061  0.00  0.00     0.232 C 
ATOM     15  C   UNK d   1     -24.203  -0.755 -34.455  0.00  0.00    -0.030 C 
ATOM     16  C   UNK d   1     -23.689   0.067 -33.563  0.00  0.00    -0.030 C 
ATOM     17  O   UNK d   1     -22.443  -3.297 -33.948  0.00  0.00    -0.272 OA
ENDBRANCH   5   7
BRANCH   1  18
ATOM     18  C   UNK d   1     -19.780  -2.404 -27.573  0.00  0.00     0.051 A 
ATOM     19  C   UNK d   1     -19.423  -3.121 -26.424  0.00  0.00     0.133 A 
ATOM     20  N   UNK d   1     -18.805  -2.556 -25.381  0.00  0.00    -0.271 NA
ATOM     21  C   UNK d   1     -18.486  -1.237 -25.385  0.00  0.00     0.135 A 
ATOM     22  C   UNK d   1     -18.801  -0.458 -26.473  0.00  0.00     0.029 A 
ATOM     23 Br   UNK d   1     -18.345   1.390 -26.455  0.00  0.00    -0.050 Br
ATOM     24  C   UNK d   1     -19.441  -1.070 -27.538  0.00  0.00     0.039 A 
ENDBRANCH   1  18
TORSDOF 2
ENDMDL
