/Users/jonathanwahrer/Desktop/Msc/3_Semester/Drug_Design_Praktikum/waehrer_HTS_screening/HTS_experiment/out/docking_results/vina_output/5l4q/0680_docked.pdbqt
 OpenBabel03212218123D

 24 27  0  0  1  0  0  0  0  0999 V2000
  -20.4600   -3.0620  -28.6640 C   0  0  0  0  0  0  0  0  0  0  0  0
  -21.0010   -4.1900  -28.3700 O   0  0  0  0  0  0  0  0  0  0  0  0
  -20.5920   -2.6070  -29.9890 N   0  0  0  0  0  0  0  0  0  0  0  0
  -20.1940   -1.5040  -30.8080 C   0  0  0  0  0  2  0  0  0  0  0  0
  -20.2730   -2.4600  -32.0120 C   0  0  1  0  0  3  0  0  0  0  0  0
  -21.2940   -3.1350  -31.1770 C   0  0  0  0  0  2  0  0  0  0  0  0
  -20.7250   -1.7870  -33.1990 N   0  0  0  0  0  0  0  0  0  0  0  0
  -20.2540   -0.5460  -33.7570 C   0  0  0  0  0  0  0  0  0  0  0  0
  -19.1200   -0.0700  -33.5740 O   0  0  0  0  0  0  0  0  0  0  0  0
  -21.4020   -0.0070  -34.5650 C   0  0  1  0  0  3  0  0  0  0  0  0
  -21.9260   -1.2890  -35.1670 C   0  0  2  0  0  3  0  0  0  0  0  0
  -22.3390    0.6470  -33.6080 C   0  0  0  0  0  2  0  0  0  0  0  0
  -23.3540   -1.1380  -35.6150 C   0  0  0  0  0  2  0  0  0  0  0  0
  -21.7570   -2.2510  -34.0610 C   0  0  0  0  0  0  0  0  0  0  0  0
  -24.2030   -0.7550  -34.4550 C   0  0  0  0  0  3  0  0  0  0  0  0
  -23.6890    0.0670  -33.5630 C   0  0  0  0  0  3  0  0  0  0  0  0
  -22.4430   -3.2970  -33.9480 O   0  0  0  0  0  0  0  0  0  0  0  0
  -19.7800   -2.4040  -27.5730 C   0  0  0  0  0  0  0  0  0  0  0  0
  -19.4230   -3.1210  -26.4240 C   0  0  0  0  0  3  0  0  0  0  0  0
  -18.8050   -2.5560  -25.3810 N   0  0  0  0  0  0  0  0  0  0  0  0
  -18.4860   -1.2370  -25.3850 C   0  0  0  0  0  3  0  0  0  0  0  0
  -18.8010   -0.4580  -26.4730 C   0  0  0  0  0  0  0  0  0  0  0  0
  -18.3450    1.3900  -26.4550 Br  0  0  0  0  0  0  0  0  0  0  0  0
  -19.4410   -1.0700  -27.5380 C   0  0  0  0  0  3  0  0  0  0  0  0
  1  2  2  0  0  0  0
  1 18  1  0  0  0  0
  3  1  1  0  0  0  0
  4  3  1  0  0  0  0
  5  7  1  6  0  0  0
  5  6  1  0  0  0  0
  5  4  1  0  0  0  0
  6  3  1  0  0  0  0
  8  9  2  0  0  0  0
  8  7  1  0  0  0  0
 10  8  1  0  0  0  0
 10 12  1  1  0  0  0
 11 13  1  1  0  0  0
 11 10  1  0  0  0  0
 11 14  1  0  0  0  0
 12 16  1  0  0  0  0
 13 15  1  0  0  0  0
 14 17  2  0  0  0  0
 14  7  1  0  0  0  0
 15 16  2  0  0  0  0
 18 24  2  0  0  0  0
 18 19  1  0  0  0  0
 19 20  2  0  0  0  0
 21 20  1  0  0  0  0
 22 23  1  0  0  0  0
 22 21  2  0  0  0  0
 24 22  1  0  0  0  0
M  END
>  <Pose>
1

>  <Score>
-9.036

$$$$
