/Users/jonathanwahrer/Desktop/Msc/3_Semester/Drug_Design_Praktikum/waehrer_HTS_screening/HTS_experiment/out/docking_results/vina_output/5l4q/0681_docked.pdbqt
 OpenBabel03212218123D

 25 28  0  0  1  0  0  0  0  0999 V2000
  -21.3820   -2.3530  -33.2080 C   0  0  0  0  0  0  0  0  0  0  0  0
  -21.7410   -3.5700  -33.2590 O   0  0  0  0  0  0  0  0  0  0  0  0
  -20.8660   -1.8560  -32.0050 N   0  0  0  0  0  0  0  0  0  0  0  0
  -20.3330   -0.6480  -31.4340 C   0  0  0  0  0  2  0  0  0  0  0  0
  -19.9060   -1.3610  -30.1600 C   0  0  2  0  0  3  0  0  0  0  0  0
  -20.6880   -2.5210  -30.6980 C   0  0  0  0  0  2  0  0  0  0  0  0
  -20.3530   -0.8220  -28.9550 O   0  0  0  0  0  0  0  0  0  0  0  0
  -19.6570   -0.8050  -27.7640 C   0  0  2  0  0  3  0  0  0  0  0  0
  -19.1580    0.3400  -27.3070 C   0  0  0  0  0  3  0  0  0  0  0  0
  -18.4140    0.4230  -26.0560 C   0  0  0  0  0  0  0  0  0  0  0  0
  -17.9330    1.5780  -25.6310 C   0  0  0  0  0  1  0  0  0  0  0  0
  -18.2290   -0.7790  -25.3210 N   0  0  0  0  0  0  0  0  0  0  0  0
  -18.7790   -2.0000  -25.8400 C   0  0  0  0  0  0  0  0  0  0  0  0
  -17.7040   -0.7320  -24.4320 H   0  0  0  0  0  0  0  0  0  0  0  0
  -19.4540   -2.0100  -26.9980 N   0  0  0  0  0  0  0  0  0  0  0  0
  -18.7570   -3.2540  -25.3760 N   0  0  0  0  0  0  0  0  0  0  0  0
  -19.8510   -3.2610  -27.2540 N   0  0  0  0  0  0  0  0  0  0  0  0
  -19.4160   -4.0250  -26.2460 C   0  0  0  0  0  3  0  0  0  0  0  0
  -21.5290   -1.5530  -34.3990 C   0  0  0  0  0  0  0  0  0  0  0  0
  -20.7250   -0.5120  -34.7880 C   0  0  0  0  0  3  0  0  0  0  0  0
  -20.9280    0.1920  -35.9400 N   0  0  0  0  0  0  0  0  0  0  0  0
  -21.9320   -0.0830  -36.7800 C   0  0  0  0  0  3  0  0  0  0  0  0
  -22.7730   -1.1190  -36.4430 C   0  0  0  0  0  0  0  0  0  0  0  0
  -24.2260   -1.5430  -37.6280 Br  0  0  0  0  0  0  0  0  0  0  0  0
  -22.5810   -1.8350  -35.2890 C   0  0  0  0  0  3  0  0  0  0  0  0
  1  3  1  0  0  0  0
  2  1  2  0  0  0  0
  3  4  1  0  0  0  0
  3  6  1  0  0  0  0
  4  5  1  0  0  0  0
  5  7  1  1  0  0  0
  6  5  1  0  0  0  0
  8  7  1  6  0  0  0
  8  9  1  0  0  0  0
  8 15  1  0  0  0  0
  9 10  2  0  0  0  0
 10 11  1  0  0  0  0
 10 12  1  0  0  0  0
 12 14  1  0  0  0  0
 13 16  2  0  0  0  0
 13 12  1  0  0  0  0
 15 13  1  0  0  0  0
 17 15  1  0  0  0  0
 17 18  2  0  0  0  0
 18 16  1  0  0  0  0
 19  1  1  0  0  0  0
 20 19  1  0  0  0  0
 21 20  2  0  0  0  0
 22 23  2  0  0  0  0
 22 21  1  0  0  0  0
 23 25  1  0  0  0  0
 24 23  1  0  0  0  0
 25 19  2  0  0  0  0
M  END
>  <Pose>
1

>  <Score>
-8.724

$$$$
