MODEL 1
REMARK VINA RESULT:    -5.088      0.000      0.000
REMARK INTER + INTRA:          -5.418
REMARK INTER:                  -5.385
REMARK INTRA:                  -0.033
REMARK UNBOUND:                -0.033
REMARK  2 active torsions:
REMARK  status: ('A' for Active; 'I' for Inactive)
REMARK    1  A    between atoms: C_6  and  C_8 
REMARK    2  A    between atoms: C_21  and  N_22 
ROOT
ATOM      1 Br   UNK d   1     -20.701  -3.729 -28.682  0.00  0.00    -0.050 Br
ATOM      2  C   UNK d   1     -19.781  -2.768 -27.342  0.00  0.00     0.029 A 
ATOM      3  C   UNK d   1     -19.433  -3.400 -26.159  0.00  0.00     0.135 A 
ATOM      4  N   UNK d   1     -18.780  -2.675 -25.238  0.00  0.00    -0.271 NA
ATOM      5  C   UNK d   1     -18.448  -1.385 -25.396  0.00  0.00     0.134 A 
ATOM      6  C   UNK d   1     -18.798  -0.766 -26.570  0.00  0.00     0.059 A 
ATOM      7  C   UNK d   1     -19.473  -1.444 -27.572  0.00  0.00     0.040 A 
ENDROOT
BRANCH   6   8
ATOM      8  C   UNK d   1     -18.455   0.632 -26.779  0.00  0.00     0.210 C 
ATOM      9  O   UNK d   1     -18.472   1.448 -25.814  0.00  0.00    -0.644 OA
ATOM     10  O   UNK d   1     -18.105   1.109 -28.029  0.00  0.00    -0.644 OA
ENDBRANCH   6   8
TORSDOF 2
ENDMDL
