/Users/jonathanwahrer/Desktop/Msc/3_Semester/Drug_Design_Praktikum/waehrer_HTS_screening/HTS_experiment/out/docking_results/vina_output/5l4q/0684_docked.pdbqt
 OpenBabel03212218123D

 10 10  0  0  0  0  0  0  0  0999 V2000
  -20.7210   -3.8460  -29.0620 Br  0  0  0  0  0  0  0  0  0  0  0  0
  -19.8250   -3.0080  -27.6040 C   0  0  0  0  0  0  0  0  0  0  0  0
  -19.5340   -3.6840  -26.4380 C   0  0  0  0  0  3  0  0  0  0  0  0
  -18.9020   -3.0990  -25.4050 N   0  0  0  0  0  0  0  0  0  0  0  0
  -18.5440   -1.8110  -25.5140 C   0  0  0  0  0  3  0  0  0  0  0  0
  -18.7980   -1.0670  -26.6440 C   0  0  0  0  0  0  0  0  0  0  0  0
  -19.4430   -1.6880  -27.6820 C   0  0  0  0  0  3  0  0  0  0  0  0
  -18.4020    0.3320  -26.7480 C   0  0  0  0  0  0  0  0  0  0  0  0
  -18.6240    1.1120  -25.7900 O   0  0  0  0  0  1  0  0  0  0  0  0
  -17.7830    0.7550  -27.9150 O   0  0  0  0  0  0  0  0  0  0  0  0
  1  2  1  0  0  0  0
  2  3  1  0  0  0  0
  3  4  2  0  0  0  0
  5  4  1  0  0  0  0
  6  5  2  0  0  0  0
  7  2  2  0  0  0  0
  7  6  1  0  0  0  0
  8  6  1  0  0  0  0
  8  9  1  0  0  0  0
 10  8  2  0  0  0  0
M  END
>  <Pose>
1

>  <Score>
-5.081

$$$$
