MODEL 1
REMARK VINA RESULT:    -5.081      0.000      0.000
REMARK INTER + INTRA:          -5.409
REMARK INTER:                  -5.378
REMARK INTRA:                  -0.031
REMARK UNBOUND:                -0.031
REMARK  2 active torsions:
REMARK  status: ('A' for Active; 'I' for Inactive)
REMARK    1  A    between atoms: C_6  and  C_8 
REMARK    2  A    between atoms: C_20  and  N_21 
ROOT
ATOM      1 Br   UNK d   1     -20.721  -3.846 -29.062  0.00  0.00    -0.050 Br
ATOM      2  C   UNK d   1     -19.825  -3.008 -27.604  0.00  0.00     0.029 A 
ATOM      3  C   UNK d   1     -19.534  -3.684 -26.438  0.00  0.00     0.135 A 
ATOM      4  N   UNK d   1     -18.902  -3.099 -25.405  0.00  0.00    -0.271 NA
ATOM      5  C   UNK d   1     -18.544  -1.811 -25.514  0.00  0.00     0.134 A 
ATOM      6  C   UNK d   1     -18.798  -1.067 -26.644  0.00  0.00     0.059 A 
ATOM      7  C   UNK d   1     -19.443  -1.688 -27.682  0.00  0.00     0.040 A 
ENDROOT
BRANCH   6   8
ATOM      8  C   UNK d   1     -18.402   0.332 -26.748  0.00  0.00     0.210 C 
ATOM      9  O   UNK d   1     -18.624   1.112 -25.790  0.00  0.00    -0.644 OA
ATOM     10  O   UNK d   1     -17.783   0.755 -27.915  0.00  0.00    -0.644 OA
ENDBRANCH   6   8
TORSDOF 2
ENDMDL
