MODEL 1
REMARK VINA RESULT:    -6.518      0.000      0.000
REMARK INTER + INTRA:          -9.692
REMARK INTER:                  -8.042
REMARK INTRA:                  -1.650
REMARK UNBOUND:                -1.650
REMARK  4 active torsions:
REMARK  status: ('A' for Active; 'I' for Inactive)
REMARK    1  A    between atoms: C_11  and  C_14 
REMARK    2  A    between atoms: C_11  and  C_21 
REMARK    3  A    between atoms: C_14  and  N_15 
REMARK    4  A    between atoms: C_21  and  N_22 
ROOT
ATOM      1 Br   UNK d   1     -18.210   4.639 -37.524  0.00  0.00    -0.048 Br
ATOM      2  C   UNK d   1     -19.413   4.299 -36.094  0.00  0.00     0.046 A 
ATOM      3  C   UNK d   1     -19.975   3.043 -35.962  0.00  0.00     0.100 A 
ATOM      4  C   UNK d   1     -20.871   2.727 -34.930  0.00  0.00     0.047 A 
ATOM      5  C   UNK d   1     -21.205   3.695 -34.015  0.00  0.00     0.037 A 
ATOM      6  C   UNK d   1     -20.646   4.952 -34.142  0.00  0.00     0.013 A 
ATOM      7  C   UNK d   1     -19.767   5.264 -35.155  0.00  0.00     0.041 A 
ATOM      8 Br   UNK d   1     -21.087   6.318 -32.892  0.00  0.00    -0.051 Br
ATOM      9  C   UNK d   1     -21.448   1.391 -34.840  0.00  0.00     0.176 C 
ATOM     10  O   UNK d   1     -22.534   1.303 -34.204  0.00  0.00    -0.291 OA
ATOM     11  C   UNK d   1     -20.818   0.223 -35.445  0.00  0.00     0.095 C 
ATOM     12  C   UNK d   1     -19.604   0.696 -36.287  0.00  0.00     0.197 C 
ATOM     13  O   UNK d   1     -19.734   1.971 -36.802  0.00  0.00    -0.347 OA
ENDROOT
BRANCH  11  14
ATOM     14  C   UNK d   1     -20.256  -0.787 -34.553  0.00  0.00     0.256 C 
BRANCH  14  15
ATOM     15  N   UNK d   1     -20.382  -0.840 -33.171  0.00  0.00    -0.070 N 
ATOM     16  C   UNK d   1     -19.299  -0.459 -32.320  0.00  0.00     0.235 C 
ATOM     17  C   UNK d   1     -19.939  -0.044 -30.971  0.00  0.00     0.028 C 
ATOM     18  C   UNK d   1     -20.378  -1.342 -30.326  0.00  0.00     0.003 C 
ATOM     19  C   UNK d   1     -20.455  -2.470 -31.331  0.00  0.00     0.028 C 
ATOM     20  C   UNK d   1     -21.059  -2.016 -32.643  0.00  0.00     0.235 C 
ATOM     21  H   UNK d   1     -21.108  -0.060 -32.957  0.00  0.00     0.279 HD
ENDBRANCH  14  15
ENDBRANCH  11  14
BRANCH  11  22
ATOM     22  C   UNK d   1     -21.831  -0.421 -36.379  0.00  0.00     0.256 C 
BRANCH  22  23
ATOM     23  N   UNK d   1     -22.577   0.542 -37.150  0.00  0.00    -0.070 N 
ATOM     24  C   UNK d   1     -23.976   0.139 -37.132  0.00  0.00     0.235 C 
ATOM     25  C   UNK d   1     -24.082  -1.275 -37.597  0.00  0.00     0.028 C 
ATOM     26  C   UNK d   1     -23.445  -1.560 -38.907  0.00  0.00     0.003 C 
ATOM     27  C   UNK d   1     -22.199  -0.796 -39.195  0.00  0.00     0.028 C 
ATOM     28  C   UNK d   1     -22.232   0.576 -38.559  0.00  0.00     0.235 C 
ATOM     29  H   UNK d   1     -22.445   1.505 -36.792  0.00  0.00     0.279 HD
ENDBRANCH  22  23
ENDBRANCH  11  22
TORSDOF 4
ENDMDL
