MODEL 1
REMARK VINA RESULT:    -9.559      0.000      0.000
REMARK INTER + INTRA:         -13.847
REMARK INTER:                 -13.191
REMARK INTRA:                  -0.657
REMARK UNBOUND:                -0.657
REMARK  7 active torsions:
REMARK  status: ('A' for Active; 'I' for Inactive)
REMARK    1  A    between atoms: C_7  and  O_8 
REMARK    2  A    between atoms: O_8  and  C_9 
REMARK    3  A    between atoms: C_9  and  C_10 
REMARK    4  A    between atoms: C_10  and  O_11 
REMARK    5  A    between atoms: C_10  and  C_12 
REMARK    6  A    between atoms: C_12  and  N_13 
REMARK       I    between atoms: N_16  and  C_19 
REMARK    7  A    between atoms: C_19  and  C_21 
ROOT
ATOM      1  C   UNK d   1     -18.921  -1.411 -31.197  0.00  0.00     0.168 C 
ENDROOT
BRANCH   1   2
ATOM      2  C   UNK d   1     -18.850  -1.911 -29.776  0.00  0.00     0.209 C 
BRANCH   2   3
ATOM      3  O   UNK d   1     -19.820  -1.299 -28.948  0.00  0.00    -0.347 OA
BRANCH   3   4
ATOM      4  C   UNK d   1     -19.404  -0.248 -28.133  0.00  0.00     0.087 A 
ATOM      5  C   UNK d   1     -18.972  -0.456 -26.838  0.00  0.00     0.055 A 
ATOM      6 Br   UNK d   1     -18.956  -2.242 -26.180  0.00  0.00    -0.047 Br
ATOM      7  C   UNK d   1     -18.556   0.571 -26.015  0.00  0.00    -0.006 A 
ATOM      8  C   UNK d   1     -18.556   1.875 -26.466  0.00  0.00    -0.024 A 
ATOM      9  C   UNK d   1     -18.124   0.355 -24.718  0.00  0.00     0.014 A 
ATOM     10  C   UNK d   1     -18.986   2.093 -27.759  0.00  0.00     0.015 A 
ATOM     11  C   UNK d   1     -18.138   2.905 -25.640  0.00  0.00     0.012 A 
ATOM     12  C   UNK d   1     -19.400   1.060 -28.575  0.00  0.00     0.039 A 
ATOM     13  C   UNK d   1     -17.708   2.688 -24.347  0.00  0.00     0.001 A 
ATOM     14  C   UNK d   1     -17.708   1.383 -23.895  0.00  0.00     0.001 A 
ENDBRANCH   3   4
ENDBRANCH   2   3
ENDBRANCH   1   2
BRANCH   1  15
ATOM     15  O   UNK d   1     -17.992  -0.442 -31.474  0.00  0.00    -0.392 OA
ATOM     16  H   UNK d   1     -17.169  -0.763 -31.884  0.00  0.00     0.210 HD
ENDBRANCH   1  15
BRANCH   1  17
ATOM     17  C   UNK d   1     -20.306  -0.985 -31.541  0.00  0.00     0.268 C 
BRANCH  17  18
ATOM     18  N   UNK d   1     -20.503  -0.714 -32.948  0.00  0.00    -0.066 N 
ATOM     19  C   UNK d   1     -21.561   0.276 -33.042  0.00  0.00     0.254 C 
ATOM     20  C   UNK d   1     -22.044   0.465 -34.487  0.00  0.00     0.152 C 
ATOM     21  N   UNK d   1     -22.485  -0.786 -34.990  0.00  0.00    -0.356 N 
ATOM     22  C   UNK d   1     -22.316  -1.922 -34.059  0.00  0.00     0.152 C 
ATOM     23  C   UNK d   1     -23.047  -0.998 -36.254  0.00  0.00     0.187 C 
ATOM     24  C   UNK d   1     -20.893  -1.952 -33.608  0.00  0.00     0.254 C 
ATOM     25  O   UNK d   1     -23.373  -2.261 -36.475  0.00  0.00    -0.171 OA
ATOM     26  H   UNK d   1     -19.663  -0.324 -33.423  0.00  0.00     0.280 HD
BRANCH  23  27
ATOM     27  C   UNK d   1     -23.329  -0.116 -37.340  0.00  0.00     0.018 A 
ATOM     28  C   UNK d   1     -22.440   0.361 -38.260  0.00  0.00     0.016 A 
ATOM     29  C   UNK d   1     -22.782   1.220 -39.296  0.00  0.00     0.001 A 
ATOM     30  C   UNK d   1     -24.067   1.635 -39.440  0.00  0.00     0.000 A 
ATOM     31  C   UNK d   1     -24.990   1.171 -38.526  0.00  0.00     0.001 A 
ATOM     32  C   UNK d   1     -24.652   0.323 -37.502  0.00  0.00     0.016 A 
ENDBRANCH  23  27
ENDBRANCH  17  18
ENDBRANCH   1  17
TORSDOF 7
ENDMDL
