/Users/jonathanwahrer/Desktop/Msc/3_Semester/Drug_Design_Praktikum/waehrer_HTS_screening/HTS_experiment/out/docking_results/vina_output/5l4q/0699_docked.pdbqt
 OpenBabel03212218133D

 32 35  0  0  1  0  0  0  0  0999 V2000
  -18.9210   -1.4110  -31.1970 C   0  0  2  0  0  3  0  0  0  0  0  0
  -18.8500   -1.9110  -29.7760 C   0  0  0  0  0  2  0  0  0  0  0  0
  -19.8200   -1.2990  -28.9480 O   0  0  0  0  0  0  0  0  0  0  0  0
  -19.4040   -0.2480  -28.1330 C   0  0  0  0  0  0  0  0  0  0  0  0
  -18.9720   -0.4560  -26.8380 C   0  0  0  0  0  0  0  0  0  0  0  0
  -18.9560   -2.2420  -26.1800 Br  0  0  0  0  0  0  0  0  0  0  0  0
  -18.5560    0.5710  -26.0150 C   0  0  0  0  0  0  0  0  0  0  0  0
  -18.5560    1.8750  -26.4660 C   0  0  0  0  0  0  0  0  0  0  0  0
  -18.1240    0.3550  -24.7180 C   0  0  0  0  0  3  0  0  0  0  0  0
  -18.9860    2.0930  -27.7590 C   0  0  0  0  0  3  0  0  0  0  0  0
  -18.1380    2.9050  -25.6400 C   0  0  0  0  0  3  0  0  0  0  0  0
  -19.4000    1.0600  -28.5750 C   0  0  0  0  0  3  0  0  0  0  0  0
  -17.7080    2.6880  -24.3470 C   0  0  0  0  0  3  0  0  0  0  0  0
  -17.7080    1.3830  -23.8950 C   0  0  0  0  0  3  0  0  0  0  0  0
  -17.9920   -0.4420  -31.4740 O   0  0  0  0  0  0  0  0  0  0  0  0
  -17.1690   -0.7630  -31.8840 H   0  0  0  0  0  0  0  0  0  0  0  0
  -20.3060   -0.9850  -31.5410 C   0  0  0  0  0  2  0  0  0  0  0  0
  -20.5030   -0.7140  -32.9480 N   0  0  0  0  0  4  0  0  0  0  0  0
  -21.5610    0.2760  -33.0420 C   0  0  0  0  0  2  0  0  0  0  0  0
  -22.0440    0.4650  -34.4870 C   0  0  0  0  0  2  0  0  0  0  0  0
  -22.4850   -0.7860  -34.9900 N   0  0  0  0  0  0  0  0  0  0  0  0
  -22.3160   -1.9220  -34.0590 C   0  0  0  0  0  2  0  0  0  0  0  0
  -23.0470   -0.9980  -36.2540 C   0  0  0  0  0  0  0  0  0  0  0  0
  -20.8930   -1.9520  -33.6080 C   0  0  0  0  0  2  0  0  0  0  0  0
  -23.3730   -2.2610  -36.4750 O   0  0  0  0  0  0  0  0  0  0  0  0
  -19.6630   -0.3240  -33.4230 H   0  0  0  0  0  0  0  0  0  0  0  0
  -23.3290   -0.1160  -37.3400 C   0  0  0  0  0  0  0  0  0  0  0  0
  -22.4400    0.3610  -38.2600 C   0  0  0  0  0  3  0  0  0  0  0  0
  -22.7820    1.2200  -39.2960 C   0  0  0  0  0  3  0  0  0  0  0  0
  -24.0670    1.6350  -39.4400 C   0  0  0  0  0  3  0  0  0  0  0  0
  -24.9900    1.1710  -38.5260 C   0  0  0  0  0  3  0  0  0  0  0  0
  -24.6520    0.3230  -37.5020 C   0  0  0  0  0  3  0  0  0  0  0  0
  1 17  1  1  0  0  0
  1  2  1  0  0  0  0
  2  3  1  0  0  0  0
  3  4  1  0  0  0  0
  4  5  1  0  0  0  0
  5  6  1  0  0  0  0
  5  7  2  0  0  0  0
  7  9  1  0  0  0  0
  8  7  1  0  0  0  0
  8 11  1  0  0  0  0
  9 14  2  0  0  0  0
 10  8  2  0  0  0  0
 11 13  2  0  0  0  0
 12  4  2  0  0  0  0
 12 10  1  0  0  0  0
 13 14  1  0  0  0  0
 15  1  1  0  0  0  0
 16 15  1  0  0  0  0
 18 17  1  0  0  0  0
 19 18  1  0  0  0  0
 20 19  1  0  0  0  0
 21 20  1  0  0  0  0
 21 22  1  0  0  0  0
 22 24  1  0  0  0  0
 23 21  1  0  0  0  0
 24 18  1  0  0  0  0
 25 23  2  0  0  0  0
 26 18  1  0  0  0  0
 27 23  1  0  0  0  0
 28 27  2  0  0  0  0
 29 28  1  0  0  0  0
 30 29  2  0  0  0  0
 30 31  1  0  0  0  0
 31 32  2  0  0  0  0
 32 27  1  0  0  0  0
M  END
>  <Pose>
1

>  <Score>
-9.559

$$$$
