MODEL 1
REMARK VINA RESULT:    -9.445      0.000      0.000
REMARK INTER + INTRA:         -11.567
REMARK INTER:                 -11.102
REMARK INTRA:                  -0.465
REMARK UNBOUND:                -0.465
REMARK  3 active torsions:
REMARK  status: ('A' for Active; 'I' for Inactive)
REMARK    1  A    between atoms: N_3  and  C_15 
REMARK    2  A    between atoms: C_15  and  C_16 
REMARK    3  A    between atoms: C_16  and  N_17 
ROOT
ATOM      1  C   UNK d   1     -19.062  -1.638 -28.818  0.00  0.00     0.152 C 
ENDROOT
BRANCH   1   2
ATOM      2  N   UNK d   1     -19.827  -2.231 -29.861  0.00  0.00    -0.316 N 
ATOM      3  C   UNK d   1     -20.397  -3.447 -29.754  0.00  0.00     0.180 A 
ATOM      4 Br   UNK d   1     -20.335  -4.630 -28.232  0.00  0.00    -0.008 Br
ATOM      5  N   UNK d   1     -21.024  -3.683 -30.920  0.00  0.00    -0.203 NA
ATOM      6  C   UNK d   1     -20.859  -2.646 -31.752  0.00  0.00     0.169 A 
ATOM      7  C   UNK d   1     -20.094  -1.718 -31.073  0.00  0.00     0.152 A 
ATOM      8  N   UNK d   1     -21.257  -2.363 -33.009  0.00  0.00    -0.286 N 
ATOM      9  C   UNK d   1     -19.790  -0.555 -31.749  0.00  0.00     0.282 A 
ATOM     10  N   UNK d   1     -20.193  -0.282 -33.003  0.00  0.00    -0.269 N 
ATOM     11  O   UNK d   1     -19.097   0.296 -31.155  0.00  0.00    -0.265 OA
ATOM     12  C   UNK d   1     -20.938  -1.208 -33.634  0.00  0.00     0.332 A 
ATOM     13  C   UNK d   1     -19.862   0.948 -33.695  0.00  0.00     0.164 C 
ATOM     14  O   UNK d   1     -21.332  -0.981 -34.817  0.00  0.00    -0.246 OA
ATOM     15  C   UNK d   1     -22.061  -3.341 -33.713  0.00  0.00     0.163 C 
ENDBRANCH   1   2
BRANCH   1  16
ATOM     16  C   UNK d   1     -19.750  -0.654 -27.944  0.00  0.00     0.152 C 
BRANCH  16  17
ATOM     17  N   UNK d   1     -19.062  -0.218 -26.775  0.00  0.00    -0.316 N 
ATOM     18  C   UNK d   1     -18.546   1.021 -26.581  0.00  0.00     0.152 A 
ATOM     19  C   UNK d   1     -17.949   1.077 -25.346  0.00  0.00     0.169 A 
ATOM     20  C   UNK d   1     -18.503   2.182 -27.343  0.00  0.00     0.282 A 
ATOM     21  N   UNK d   1     -18.123  -0.146 -24.816  0.00  0.00    -0.203 NA
ATOM     22  N   UNK d   1     -17.340   2.193 -24.862  0.00  0.00    -0.286 N 
ATOM     23  C   UNK d   1     -18.792  -0.927 -25.675  0.00  0.00     0.180 A 
ATOM     24 Br   UNK d   1     -19.304  -2.769 -25.427  0.00  0.00    -0.008 Br
ATOM     25  C   UNK d   1     -17.341   3.276 -25.659  0.00  0.00     0.332 A 
ATOM     26  C   UNK d   1     -16.717   2.215 -23.545  0.00  0.00     0.163 C 
ATOM     27  O   UNK d   1     -16.780   4.318 -25.222  0.00  0.00    -0.246 OA
ATOM     28  N   UNK d   1     -17.910   3.280 -26.878  0.00  0.00    -0.269 N 
ATOM     29  C   UNK d   1     -17.883   4.473 -27.697  0.00  0.00     0.164 C 
ATOM     30  O   UNK d   1     -19.054   2.119 -28.475  0.00  0.00    -0.265 OA
ENDBRANCH  16  17
ENDBRANCH   1  16
TORSDOF 3
ENDMDL
