MODEL 1
REMARK VINA RESULT:    -9.000      0.000      0.000
REMARK INTER + INTRA:         -11.389
REMARK INTER:                 -11.105
REMARK INTRA:                  -0.284
REMARK UNBOUND:                -0.284
REMARK  4 active torsions:
REMARK  status: ('A' for Active; 'I' for Inactive)
REMARK    1  A    between atoms: N_3  and  C_14 
REMARK    2  A    between atoms: C_14  and  C_15 
REMARK    3  A    between atoms: C_15  and  C_16 
REMARK    4  A    between atoms: C_16  and  N_17 
ROOT
ATOM      1  C   UNK d   1     -21.535   0.080 -33.244  0.00  0.00     0.041 C 
ENDROOT
BRANCH   1   2
ATOM      2  C   UNK d   1     -20.735  -1.189 -33.263  0.00  0.00     0.133 C 
BRANCH   2   3
ATOM      3  N   UNK d   1     -20.658  -1.853 -31.978  0.00  0.00    -0.318 N 
ATOM      4  C   UNK d   1     -21.257  -3.046 -31.678  0.00  0.00     0.180 A 
ATOM      5 Br   UNK d   1     -22.282  -4.034 -32.943  0.00  0.00    -0.008 Br
ATOM      6  N   UNK d   1     -21.009  -3.383 -30.404  0.00  0.00    -0.203 NA
ATOM      7  C   UNK d   1     -20.246  -2.423 -29.839  0.00  0.00     0.169 A 
ATOM      8  C   UNK d   1     -20.042  -1.484 -30.837  0.00  0.00     0.152 A 
ATOM      9  N   UNK d   1     -19.756  -2.318 -28.592  0.00  0.00    -0.286 N 
ATOM     10  C   UNK d   1     -19.299  -0.386 -30.527  0.00  0.00     0.280 A 
ATOM     11  N   UNK d   1     -18.804  -0.283 -29.262  0.00  0.00    -0.273 N 
ATOM     12  O   UNK d   1     -19.086   0.493 -31.387  0.00  0.00    -0.265 OA
ATOM     13  C   UNK d   1     -19.026  -1.221 -28.322  0.00  0.00     0.330 A 
ATOM     14  H   UNK d   1     -18.241   0.572 -29.070  0.00  0.00     0.173 HD
ATOM     15  O   UNK d   1     -18.537  -1.076 -27.152  0.00  0.00    -0.246 OA
ATOM     16  C   UNK d   1     -19.973  -3.305 -27.555  0.00  0.00     0.163 C 
ENDBRANCH   2   3
ENDBRANCH   1   2
BRANCH   1  17
ATOM     17  C   UNK d   1     -22.797   0.037 -34.057  0.00  0.00     0.133 C 
BRANCH  17  18
ATOM     18  N   UNK d   1     -22.516   0.416 -35.435  0.00  0.00    -0.318 N 
ATOM     19  C   UNK d   1     -22.606  -0.344 -36.550  0.00  0.00     0.152 A 
ATOM     20  C   UNK d   1     -22.252   0.391 -37.658  0.00  0.00     0.169 A 
ATOM     21  C   UNK d   1     -22.971  -1.651 -36.740  0.00  0.00     0.280 A 
ATOM     22  N   UNK d   1     -21.944   1.617 -37.195  0.00  0.00    -0.203 NA
ATOM     23  N   UNK d   1     -22.246  -0.102 -38.910  0.00  0.00    -0.286 N 
ATOM     24  C   UNK d   1     -22.104   1.623 -35.854  0.00  0.00     0.180 A 
ATOM     25 Br   UNK d   1     -21.811   3.096 -34.675  0.00  0.00    -0.008 Br
ATOM     26  C   UNK d   1     -22.615  -1.400 -39.051  0.00  0.00     0.330 A 
ATOM     27  C   UNK d   1     -21.863   0.717 -40.057  0.00  0.00     0.163 C 
ATOM     28  O   UNK d   1     -22.611  -1.868 -40.230  0.00  0.00    -0.246 OA
ATOM     29  N   UNK d   1     -22.969  -2.156 -37.991  0.00  0.00    -0.273 N 
ATOM     30  H   UNK d   1     -23.243  -3.144 -38.160  0.00  0.00     0.173 HD
ATOM     31  O   UNK d   1     -23.295  -2.327 -35.734  0.00  0.00    -0.265 OA
ENDBRANCH  17  18
ENDBRANCH   1  17
TORSDOF 4
ENDMDL
