MODEL 1
REMARK VINA RESULT:    -9.048      0.000      0.000
REMARK INTER + INTRA:         -11.152
REMARK INTER:                 -10.634
REMARK INTRA:                  -0.518
REMARK UNBOUND:                -0.518
REMARK  3 active torsions:
REMARK  status: ('A' for Active; 'I' for Inactive)
REMARK    1  A    between atoms: N_3  and  C_14 
REMARK    2  A    between atoms: C_14  and  C_15 
REMARK    3  A    between atoms: C_15  and  N_16 
ROOT
ATOM      1  C   UNK d   1     -21.048  -0.714 -33.005  0.00  0.00     0.152 C 
ENDROOT
BRANCH   1   2
ATOM      2  N   UNK d   1     -21.009  -0.270 -34.356  0.00  0.00    -0.316 N 
ATOM      3  C   UNK d   1     -20.183   0.688 -34.839  0.00  0.00     0.180 A 
ATOM      4 Br   UNK d   1     -18.899   1.596 -33.756  0.00  0.00    -0.008 Br
ATOM      5  N   UNK d   1     -20.425   0.864 -36.147  0.00  0.00    -0.203 NA
ATOM      6  C   UNK d   1     -21.412   0.031 -36.549  0.00  0.00     0.169 A 
ATOM      7  C   UNK d   1     -21.765  -0.675 -35.403  0.00  0.00     0.152 A 
ATOM      8  N   UNK d   1     -22.031  -0.193 -37.722  0.00  0.00    -0.286 N 
ATOM      9  C   UNK d   1     -22.774  -1.597 -35.551  0.00  0.00     0.280 A 
ATOM     10  N   UNK d   1     -23.397  -1.819 -36.737  0.00  0.00    -0.273 N 
ATOM     11  O   UNK d   1     -23.109  -2.244 -34.516  0.00  0.00    -0.265 OA
ATOM     12  C   UNK d   1     -23.012  -1.108 -37.813  0.00  0.00     0.330 A 
ATOM     13  H   UNK d   1     -24.155  -2.533 -36.786  0.00  0.00     0.173 HD
ATOM     14  O   UNK d   1     -23.603  -1.327 -38.918  0.00  0.00    -0.246 OA
ATOM     15  C   UNK d   1     -21.669   0.535 -38.916  0.00  0.00     0.163 C 
ENDBRANCH   1   2
BRANCH   1  16
ATOM     16  C   UNK d   1     -20.173  -1.861 -32.644  0.00  0.00     0.152 C 
BRANCH  16  17
ATOM     17  N   UNK d   1     -20.253  -2.382 -31.325  0.00  0.00    -0.316 N 
ATOM     18  C   UNK d   1     -19.654  -1.914 -30.218  0.00  0.00     0.152 A 
ATOM     19  C   UNK d   1     -19.989  -2.720 -29.149  0.00  0.00     0.169 A 
ATOM     20  C   UNK d   1     -18.819  -0.843 -29.941  0.00  0.00     0.280 A 
ATOM     21  N   UNK d   1     -20.800  -3.663 -29.671  0.00  0.00    -0.203 NA
ATOM     22  N   UNK d   1     -19.517  -2.452 -27.932  0.00  0.00    -0.286 N 
ATOM     23  C   UNK d   1     -20.978  -3.486 -30.975  0.00  0.00     0.180 A 
ATOM     24 Br   UNK d   1     -22.043  -4.558 -32.171  0.00  0.00    -0.008 Br
ATOM     25  C   UNK d   1     -18.715  -1.404 -27.731  0.00  0.00     0.330 A 
ATOM     26  C   UNK d   1     -19.860  -3.288 -26.805  0.00  0.00     0.163 C 
ATOM     27  O   UNK d   1     -18.246  -1.124 -26.578  0.00  0.00    -0.246 OA
ATOM     28  N   UNK d   1     -18.342  -0.572 -28.720  0.00  0.00    -0.273 N 
ATOM     29  H   UNK d   1     -17.708   0.246 -28.527  0.00  0.00     0.173 HD
ATOM     30  O   UNK d   1     -18.480  -0.072 -30.867  0.00  0.00    -0.265 OA
ENDBRANCH  16  17
ENDBRANCH   1  16
TORSDOF 3
ENDMDL
