/Users/jonathanwahrer/Desktop/Msc/3_Semester/Drug_Design_Praktikum/waehrer_HTS_screening/HTS_experiment/out/docking_results/vina_output/5l4q/0709_docked.pdbqt
 OpenBabel03212218143D

 30 33  0  0  0  0  0  0  0  0999 V2000
  -21.0480   -0.7140  -33.0050 C   0  0  0  0  0  3  0  0  0  0  0  0
  -21.0090   -0.2700  -34.3560 N   0  0  0  0  0  0  0  0  0  0  0  0
  -20.1830    0.6880  -34.8390 C   0  0  0  0  0  0  0  0  0  0  0  0
  -18.8990    1.5960  -33.7560 Br  0  0  0  0  0  0  0  0  0  0  0  0
  -20.4250    0.8640  -36.1470 N   0  0  0  0  0  0  0  0  0  0  0  0
  -21.4120    0.0310  -36.5490 C   0  0  0  0  0  0  0  0  0  0  0  0
  -21.7650   -0.6750  -35.4030 C   0  0  0  0  0  0  0  0  0  0  0  0
  -22.0310   -0.1930  -37.7220 N   0  0  0  0  0  0  0  0  0  0  0  0
  -22.7740   -1.5970  -35.5510 C   0  0  0  0  0  0  0  0  0  0  0  0
  -23.3970   -1.8190  -36.7370 N   0  0  0  0  0  0  0  0  0  0  0  0
  -23.1090   -2.2440  -34.5160 O   0  0  0  0  0  0  0  0  0  0  0  0
  -23.0120   -1.1080  -37.8130 C   0  0  0  0  0  0  0  0  0  0  0  0
  -24.1550   -2.5330  -36.7860 H   0  0  0  0  0  0  0  0  0  0  0  0
  -23.6030   -1.3270  -38.9180 O   0  0  0  0  0  0  0  0  0  0  0  0
  -21.6690    0.5350  -38.9160 C   0  0  0  0  0  1  0  0  0  0  0  0
  -20.1730   -1.8610  -32.6440 C   0  0  0  0  0  3  0  0  0  0  0  0
  -20.2530   -2.3820  -31.3250 N   0  0  0  0  0  0  0  0  0  0  0  0
  -19.6540   -1.9140  -30.2180 C   0  0  0  0  0  0  0  0  0  0  0  0
  -19.9890   -2.7200  -29.1490 C   0  0  0  0  0  0  0  0  0  0  0  0
  -18.8190   -0.8430  -29.9410 C   0  0  0  0  0  0  0  0  0  0  0  0
  -20.8000   -3.6630  -29.6710 N   0  0  0  0  0  0  0  0  0  0  0  0
  -19.5170   -2.4520  -27.9320 N   0  0  0  0  0  0  0  0  0  0  0  0
  -20.9780   -3.4860  -30.9750 C   0  0  0  0  0  0  0  0  0  0  0  0
  -22.0430   -4.5580  -32.1710 Br  0  0  0  0  0  0  0  0  0  0  0  0
  -18.7150   -1.4040  -27.7310 C   0  0  0  0  0  0  0  0  0  0  0  0
  -19.8600   -3.2880  -26.8050 C   0  0  0  0  0  1  0  0  0  0  0  0
  -18.2460   -1.1240  -26.5780 O   0  0  0  0  0  0  0  0  0  0  0  0
  -18.3420   -0.5720  -28.7200 N   0  0  0  0  0  0  0  0  0  0  0  0
  -17.7080    0.2460  -28.5270 H   0  0  0  0  0  0  0  0  0  0  0  0
  -18.4800   -0.0720  -30.8670 O   0  0  0  0  0  0  0  0  0  0  0  0
  1 16  2  0  0  0  0
  2  1  1  0  0  0  0
  3  2  1  0  0  0  0
  3  4  1  0  0  0  0
  5  3  2  0  0  0  0
  6  5  1  0  0  0  0
  6  7  2  0  0  0  0
  7  2  1  0  0  0  0
  8  6  1  0  0  0  0
  9  7  1  0  0  0  0
  9 11  2  0  0  0  0
 10  9  1  0  0  0  0
 12  8  1  0  0  0  0
 12 10  1  0  0  0  0
 13 10  1  0  0  0  0
 14 12  2  0  0  0  0
 15  8  1  0  0  0  0
 16 17  1  0  0  0  0
 17 23  1  0  0  0  0
 17 18  1  0  0  0  0
 18 20  1  0  0  0  0
 18 19  2  0  0  0  0
 19 22  1  0  0  0  0
 20 28  1  0  0  0  0
 21 19  1  0  0  0  0
 22 25  1  0  0  0  0
 22 26  1  0  0  0  0
 23 21  2  0  0  0  0
 24 23  1  0  0  0  0
 25 27  2  0  0  0  0
 28 29  1  0  0  0  0
 28 25  1  0  0  0  0
 30 20  2  0  0  0  0
M  END
>  <Pose>
1

>  <Score>
-9.048

$$$$
