MODEL 1
REMARK VINA RESULT:    -8.530      0.000      0.000
REMARK INTER + INTRA:         -11.397
REMARK INTER:                 -10.525
REMARK INTRA:                  -0.872
REMARK UNBOUND:                -0.872
REMARK  4 active torsions:
REMARK  status: ('A' for Active; 'I' for Inactive)
REMARK    1  A    between atoms: N_4  and  C_7 
REMARK    2  A    between atoms: C_9  and  C_17 
REMARK       I    between atoms: C_17  and  N_19 
REMARK    3  A    between atoms: N_19  and  C_20 
REMARK    4  A    between atoms: C_21  and  C_26 
REMARK       I    between atoms: C_26  and  N_28 
ROOT
ATOM      1  C   UNK d   1     -22.383  -0.240 -36.076  0.00  0.00     0.059 C 
ATOM      2  C   UNK d   1     -21.909  -1.182 -34.992  0.00  0.00     0.052 C 
ATOM      3  C   UNK d   1     -21.175  -0.403 -33.940  0.00  0.00     0.044 C 
ATOM      4  C   UNK d   1     -22.219   0.509 -33.279  0.00  0.00     0.024 C 
ATOM      5  C   UNK d   1     -22.815   1.405 -34.335  0.00  0.00    -0.011 C 
ATOM      6  C   UNK d   1     -23.453   0.638 -35.464  0.00  0.00     0.038 C 
ATOM      7  C   UNK d   1     -21.741   2.301 -34.863  0.00  0.00     0.009 C 
ATOM      8  C   UNK d   1     -20.666   1.445 -35.495  0.00  0.00    -0.011 C 
ATOM      9  C   UNK d   1     -21.292   0.647 -36.589  0.00  0.00     0.038 C 
ATOM     10  C   UNK d   1     -20.101   0.487 -34.469  0.00  0.00     0.024 C 
ENDROOT
BRANCH   3  11
ATOM     11  C   UNK d   1     -20.601  -1.292 -32.908  0.00  0.00     0.231 C 
ATOM     12  O   UNK d   1     -19.610  -1.999 -33.222  0.00  0.00    -0.272 OA
ATOM     13  N   UNK d   1     -21.154  -1.346 -31.596  0.00  0.00    -0.323 N 
ATOM     14  H   UNK d   1     -21.971  -0.733 -31.416  0.00  0.00     0.169 HD
BRANCH  13  15
ATOM     15  C   UNK d   1     -20.672  -2.167 -30.543  0.00  0.00     0.088 A 
ATOM     16  C   UNK d   1     -20.849  -3.520 -30.475  0.00  0.00     0.148 A 
ATOM     17  N   UNK d   1     -20.253  -3.943 -29.334  0.00  0.00    -0.267 N 
ATOM     18  N   UNK d   1     -19.729  -2.904 -28.719  0.00  0.00    -0.182 NA
ATOM     19  C   UNK d   1     -20.173  -5.301 -28.826  0.00  0.00     0.180 C 
ATOM     20  C   UNK d   1     -19.961  -1.791 -29.422  0.00  0.00     0.171 A 
BRANCH  16  21
ATOM     21  C   UNK d   1     -21.517  -4.441 -31.372  0.00  0.00     0.270 C 
ATOM     22  O   UNK d   1     -20.872  -5.302 -32.021  0.00  0.00    -0.266 OA
ATOM     23  N   UNK d   1     -22.922  -4.445 -31.584  0.00  0.00    -0.365 N 
ATOM     24  H   UNK d   1     -23.496  -5.181 -31.079  0.00  0.00     0.159 HD
ATOM     25  H   UNK d   1     -23.435  -3.783 -32.198  0.00  0.00     0.159 HD
ENDBRANCH  16  21
ENDBRANCH  13  15
ENDBRANCH   3  11
BRANCH   1  26
ATOM     26  N   UNK d   1     -22.907  -1.020 -37.196  0.00  0.00    -0.251 N 
ATOM     27  N   UNK d   1     -23.813  -1.989 -37.152  0.00  0.00    -0.142 NA
ATOM     28  C   UNK d   1     -24.049  -2.477 -38.383  0.00  0.00     0.217 A 
ATOM     29 Br   UNK d   1     -25.260  -3.879 -38.876  0.00  0.00    -0.005 Br
ATOM     30  N   UNK d   1     -23.258  -1.785 -39.235  0.00  0.00    -0.215 NA
ATOM     31  C   UNK d   1     -22.572  -0.902 -38.494  0.00  0.00     0.232 A 
ENDBRANCH   1  26
TORSDOF 4
ENDMDL
