/Users/jonathanwahrer/Desktop/Msc/3_Semester/Drug_Design_Praktikum/waehrer_HTS_screening/HTS_experiment/out/docking_results/vina_output/5l4q/0716_docked.pdbqt
 OpenBabel03212218143D

 31 35  0  0  1  0  0  0  0  0999 V2000
  -22.3830   -0.2400  -36.0760 C   0  0  1  0  0  0  0  0  0  0  0  0
  -21.9090   -1.1820  -34.9920 C   0  0  0  0  0  2  0  0  0  0  0  0
  -21.1750   -0.4030  -33.9400 C   0  0  2  0  0  0  0  0  0  0  0  0
  -22.2190    0.5090  -33.2790 C   0  0  0  0  0  2  0  0  0  0  0  0
  -22.8150    1.4050  -34.3350 C   0  0  2  0  0  3  0  0  0  0  0  0
  -23.4530    0.6380  -35.4640 C   0  0  0  0  0  2  0  0  0  0  0  0
  -21.7410    2.3010  -34.8630 C   0  0  0  0  0  2  0  0  0  0  0  0
  -20.6660    1.4450  -35.4950 C   0  0  2  0  0  3  0  0  0  0  0  0
  -21.2920    0.6470  -36.5890 C   0  0  0  0  0  2  0  0  0  0  0  0
  -20.1010    0.4870  -34.4690 C   0  0  0  0  0  2  0  0  0  0  0  0
  -20.6010   -1.2920  -32.9080 C   0  0  0  0  0  0  0  0  0  0  0  0
  -19.6100   -1.9990  -33.2220 O   0  0  0  0  0  0  0  0  0  0  0  0
  -21.1540   -1.3460  -31.5960 N   0  0  0  0  0  0  0  0  0  0  0  0
  -21.9710   -0.7330  -31.4160 H   0  0  0  0  0  0  0  0  0  0  0  0
  -20.6720   -2.1670  -30.5430 C   0  0  0  0  0  0  0  0  0  0  0  0
  -20.8490   -3.5200  -30.4750 C   0  0  0  0  0  0  0  0  0  0  0  0
  -20.2530   -3.9430  -29.3340 N   0  0  0  0  0  0  0  0  0  0  0  0
  -19.7290   -2.9040  -28.7190 N   0  0  0  0  0  0  0  0  0  0  0  0
  -20.1730   -5.3010  -28.8260 C   0  0  0  0  0  1  0  0  0  0  0  0
  -19.9610   -1.7910  -29.4220 C   0  0  0  0  0  3  0  0  0  0  0  0
  -21.5170   -4.4410  -31.3720 C   0  0  0  0  0  0  0  0  0  0  0  0
  -20.8720   -5.3020  -32.0210 O   0  0  0  0  0  0  0  0  0  0  0  0
  -22.9220   -4.4450  -31.5840 N   0  0  0  0  0  0  0  0  0  0  0  0
  -23.4960   -5.1810  -31.0790 H   0  0  0  0  0  0  0  0  0  0  0  0
  -23.4350   -3.7830  -32.1980 H   0  0  0  0  0  0  0  0  0  0  0  0
  -22.9070   -1.0200  -37.1960 N   0  0  0  0  0  0  0  0  0  0  0  0
  -23.8130   -1.9890  -37.1520 N   0  0  0  0  0  0  0  0  0  0  0  0
  -24.0490   -2.4770  -38.3830 C   0  0  0  0  0  0  0  0  0  0  0  0
  -25.2600   -3.8790  -38.8760 Br  0  0  0  0  0  0  0  0  0  0  0  0
  -23.2580   -1.7850  -39.2350 N   0  0  0  0  0  0  0  0  0  0  0  0
  -22.5720   -0.9020  -38.4940 C   0  0  0  0  0  3  0  0  0  0  0  0
  1 26  1  6  0  0  0
  1  6  1  0  0  0  0
  1  2  1  0  0  0  0
  2  3  1  0  0  0  0
  3  4  1  0  0  0  0
  3 11  1  1  0  0  0
  5  6  1  6  0  0  0
  5  4  1  0  0  0  0
  7  5  1  0  0  0  0
  8  9  1  6  0  0  0
  8  7  1  0  0  0  0
  8 10  1  0  0  0  0
  9  1  1  0  0  0  0
 10  3  1  0  0  0  0
 11 13  1  0  0  0  0
 12 11  2  0  0  0  0
 13 14  1  0  0  0  0
 13 15  1  0  0  0  0
 15 16  2  0  0  0  0
 15 20  1  0  0  0  0
 16 17  1  0  0  0  0
 17 19  1  0  0  0  0
 17 18  1  0  0  0  0
 20 18  2  0  0  0  0
 21 16  1  0  0  0  0
 22 21  2  0  0  0  0
 23 21  1  0  0  0  0
 23 24  1  0  0  0  0
 25 23  1  0  0  0  0
 26 27  1  0  0  0  0
 28 27  2  0  0  0  0
 29 28  1  0  0  0  0
 30 31  2  0  0  0  0
 30 28  1  0  0  0  0
 31 26  1  0  0  0  0
M  END
>  <Pose>
1

>  <Score>
-8.530

$$$$
