MODEL 1
REMARK VINA RESULT:    14.522      0.000      0.000
REMARK INTER + INTRA:          15.840
REMARK INTER:                  16.220
REMARK INTRA:                  -0.379
REMARK UNBOUND:                -0.379
REMARK  2 active torsions:
REMARK  status: ('A' for Active; 'I' for Inactive)
REMARK    1  A    between atoms: C_9  and  N_11 
REMARK    2  A    between atoms: C_12  and  C_17 
ROOT
ATOM      1  N   UNK d   1     -20.890   0.740 -38.105  0.00  0.00    -0.348 N 
ATOM      2  C   UNK d   1     -21.409   2.025 -37.757  0.00  0.00     0.189 C 
ATOM      3  C   UNK d   1     -20.361   3.059 -37.600  0.00  0.00     0.201 C 
ATOM      4  O   UNK d   1     -19.059   2.639 -37.599  0.00  0.00    -0.387 OA
ATOM      5  C   UNK d   1     -18.883   1.415 -36.964  0.00  0.00     0.187 C 
ATOM      6  C   UNK d   1     -19.603   0.304 -37.657  0.00  0.00     0.151 C 
ENDROOT
BRANCH   1   7
ATOM      7  C   UNK d   1     -21.637  -0.191 -38.903  0.00  0.00     0.145 A 
ATOM      8  N   UNK d   1     -21.381  -0.259 -40.246  0.00  0.00    -0.223 NA
ATOM      9  C   UNK d   1     -22.012  -1.149 -41.031  0.00  0.00     0.237 A 
ATOM     10  N   UNK d   1     -22.915  -2.002 -40.514  0.00  0.00    -0.222 NA
ATOM     11  C   UNK d   1     -23.217  -1.994 -39.212  0.00  0.00     0.164 A 
ATOM     12  N   UNK d   1     -24.082  -2.728 -38.490  0.00  0.00    -0.255 N 
ATOM     13  C   UNK d   1     -22.559  -1.064 -38.397  0.00  0.00     0.095 A 
ATOM     14  N   UNK d   1     -23.991  -2.292 -37.254  0.00  0.00    -0.163 NA
ATOM     15  C   UNK d   1     -24.950  -3.792 -38.959  0.00  0.00     0.182 C 
ATOM     16  C   UNK d   1     -23.088  -1.291 -37.149  0.00  0.00     0.141 A 
ATOM     17 Br   UNK d   1     -22.629  -0.312 -35.583  0.00  0.00    -0.026 Br
ENDBRANCH   1   7
BRANCH   2  18
ATOM     18  C   UNK d   1     -22.513   2.431 -38.655  0.00  0.00     0.198 A 
ATOM     19  N   UNK d   1     -22.391   3.140 -39.778  0.00  0.00    -0.207 NA
ATOM     20  C   UNK d   1     -23.650   3.283 -40.282  0.00  0.00     0.152 A 
ATOM     21  N   UNK d   1     -24.476   2.649 -39.430  0.00  0.00    -0.112 NA
ATOM     22  C   UNK d   1     -24.046   3.992 -41.520  0.00  0.00     0.096 C 
ATOM     23  O   UNK d   1     -23.768   2.146 -38.461  0.00  0.00    -0.194 OA
ENDBRANCH   2  18
TORSDOF 2
ENDMDL
