MODEL 1
REMARK VINA RESULT:    -7.093      0.000      0.000
REMARK INTER + INTRA:          -7.806
REMARK INTER:                  -7.508
REMARK INTRA:                  -0.298
REMARK UNBOUND:                -0.298
REMARK  1 active torsions:
REMARK  status: ('A' for Active; 'I' for Inactive)
REMARK    1  A    between atoms: C_9  and  N_11 
ROOT
ATOM      1 Br   UNK d   1     -19.784  -0.027 -29.600  0.00  0.00    -0.026 Br
ATOM      2  C   UNK d   1     -20.127  -1.899 -29.594  0.00  0.00     0.141 A 
ATOM      3  N   UNK d   1     -19.985  -2.736 -28.525  0.00  0.00    -0.163 NA
ATOM      4  N   UNK d   1     -20.332  -3.947 -28.890  0.00  0.00    -0.255 N 
ATOM      5  C   UNK d   1     -20.704  -3.947 -30.180  0.00  0.00     0.164 A 
ATOM      6  N   UNK d   1     -21.147  -4.896 -31.020  0.00  0.00    -0.222 NA
ATOM      7  C   UNK d   1     -21.468  -4.625 -32.282  0.00  0.00     0.237 A 
ATOM      8  N   UNK d   1     -21.350  -3.382 -32.740  0.00  0.00    -0.223 NA
ATOM      9  C   UNK d   1     -20.906  -2.336 -31.967  0.00  0.00     0.144 A 
ATOM     10  C   UNK d   1     -20.582  -2.635 -30.667  0.00  0.00     0.095 A 
ATOM     11  C   UNK d   1     -20.341  -5.171 -28.075  0.00  0.00     0.182 C 
ENDROOT
BRANCH   9  12
ATOM     12  N   UNK d   1     -20.760  -1.057 -32.504  0.00  0.00    -0.359 N 
ATOM     13  C   UNK d   1     -19.572  -0.681 -33.237  0.00  0.00     0.131 C 
ATOM     14  C   UNK d   1     -19.966  -0.579 -34.725  0.00  0.00     0.079 C 
ATOM     15  C   UNK d   1     -21.325  -0.006 -34.831  0.00  0.00     0.040 A 
ATOM     16  N   UNK d   1     -21.966   0.360 -35.965  0.00  0.00    -0.347 N 
ATOM     17  C   UNK d   1     -22.182   0.262 -33.805  0.00  0.00     0.076 A 
ATOM     18  C   UNK d   1     -23.175   0.833 -35.618  0.00  0.00     0.209 A 
ATOM     19  C   UNK d   1     -21.492   0.281 -37.323  0.00  0.00     0.157 C 
ATOM     20  N   UNK d   1     -23.328   0.782 -34.296  0.00  0.00    -0.245 NA
ATOM     21  C   UNK d   1     -21.769  -0.033 -32.411  0.00  0.00     0.185 C 
ENDBRANCH   9  12
TORSDOF 1
ENDMDL
