MODEL 1
REMARK VINA RESULT:    -8.443      0.000      0.000
REMARK INTER + INTRA:         -10.524
REMARK INTER:                  -9.924
REMARK INTRA:                  -0.600
REMARK UNBOUND:                -0.600
REMARK  3 active torsions:
REMARK  status: ('A' for Active; 'I' for Inactive)
REMARK    1  A    between atoms: C_9  and  N_11 
REMARK    2  A    between atoms: N_14  and  C_17 
REMARK    3  A    between atoms: C_17  and  C_19 
REMARK       I    between atoms: C_19  and  N_21 
ROOT
ATOM      1  N   UNK d   1     -21.044  -1.214 -33.242  0.00  0.00    -0.362 N 
ATOM      2  C   UNK d   1     -21.901  -0.109 -32.919  0.00  0.00     0.154 C 
ATOM      3  C   UNK d   1     -22.761   0.105 -34.168  0.00  0.00     0.293 C 
ATOM      4  N   UNK d   1     -22.130  -0.500 -35.346  0.00  0.00     0.103 N 
ATOM      5  C   UNK d   1     -20.696  -0.200 -35.341  0.00  0.00     0.293 C 
ATOM      6  C   UNK d   1     -20.011  -0.954 -34.216  0.00  0.00     0.154 C 
ENDROOT
BRANCH   1   7
ATOM      7  C   UNK d   1     -21.223  -2.477 -32.667  0.00  0.00     0.144 A 
ATOM      8  N   UNK d   1     -21.972  -3.427 -33.275  0.00  0.00    -0.223 NA
ATOM      9  C   UNK d   1     -22.187  -4.623 -32.740  0.00  0.00     0.237 A 
ATOM     10  N   UNK d   1     -21.649  -4.912 -31.552  0.00  0.00    -0.222 NA
ATOM     11  C   UNK d   1     -20.892  -4.035 -30.871  0.00  0.00     0.164 A 
ATOM     12  N   UNK d   1     -20.248  -4.097 -29.690  0.00  0.00    -0.255 N 
ATOM     13  C   UNK d   1     -20.664  -2.781 -31.431  0.00  0.00     0.095 A 
ATOM     14  N   UNK d   1     -19.647  -2.951 -29.512  0.00  0.00    -0.163 NA
ATOM     15  C   UNK d   1     -20.276  -5.275 -28.835  0.00  0.00     0.182 C 
ATOM     16  C   UNK d   1     -19.862  -2.109 -30.538  0.00  0.00     0.141 A 
ATOM     17 Br   UNK d   1     -19.201  -0.348 -30.777  0.00  0.00    -0.026 Br
ENDBRANCH   1   7
BRANCH   4  18
ATOM     18  C   UNK d   1     -22.725   0.145 -36.507  0.00  0.00     0.296 C 
ATOM     19  C   UNK d   1     -24.234   0.332 -36.189  0.00  0.00     0.052 C 
BRANCH  18  20
ATOM     20  C   UNK d   1     -22.603  -0.700 -37.708  0.00  0.00     0.186 C 
ATOM     21  O   UNK d   1     -23.397  -1.731 -37.697  0.00  0.00    -0.175 OA
ATOM     22  N   UNK d   1     -21.760  -0.534 -38.818  0.00  0.00    -0.361 N 
ATOM     23  C   UNK d   1     -20.781   0.485 -39.052  0.00  0.00     0.124 C 
ATOM     24  C   UNK d   1     -21.872  -1.540 -39.898  0.00  0.00     0.124 C 
ATOM     25  C   UNK d   1     -20.817   1.077 -40.445  0.00  0.00     0.020 C 
ATOM     26  C   UNK d   1     -21.172   0.107 -41.519  0.00  0.00     0.003 C 
ATOM     27  C   UNK d   1     -22.324  -0.793 -41.125  0.00  0.00     0.020 C 
ENDBRANCH  18  20
ENDBRANCH   4  18
TORSDOF 3
ENDMDL
