/Users/jonathanwahrer/Desktop/Msc/3_Semester/Drug_Design_Praktikum/waehrer_HTS_screening/HTS_experiment/out/docking_results/vina_output/5l4q/0729_docked.pdbqt
 OpenBabel03212218143D

 27 30  0  0  1  0  0  0  0  0999 V2000
  -21.0440   -1.2140  -33.2420 N   0  0  0  0  0  0  0  0  0  0  0  0
  -21.9010   -0.1090  -32.9190 C   0  0  0  0  0  2  0  0  0  0  0  0
  -22.7610    0.1050  -34.1680 C   0  0  0  0  0  2  0  0  0  0  0  0
  -22.1300   -0.5000  -35.3460 N   0  0  0  0  0  0  0  0  0  0  0  0
  -20.6960   -0.2000  -35.3410 C   0  0  0  0  0  2  0  0  0  0  0  0
  -20.0110   -0.9540  -34.2160 C   0  0  0  0  0  2  0  0  0  0  0  0
  -21.2230   -2.4770  -32.6670 C   0  0  0  0  0  0  0  0  0  0  0  0
  -21.9720   -3.4270  -33.2750 N   0  0  0  0  0  0  0  0  0  0  0  0
  -22.1870   -4.6230  -32.7400 C   0  0  0  0  0  3  0  0  0  0  0  0
  -21.6490   -4.9120  -31.5520 N   0  0  0  0  0  0  0  0  0  0  0  0
  -20.8920   -4.0350  -30.8710 C   0  0  0  0  0  0  0  0  0  0  0  0
  -20.2480   -4.0970  -29.6900 N   0  0  0  0  0  0  0  0  0  0  0  0
  -20.6640   -2.7810  -31.4310 C   0  0  0  0  0  0  0  0  0  0  0  0
  -19.6470   -2.9510  -29.5120 N   0  0  0  0  0  0  0  0  0  0  0  0
  -20.2760   -5.2750  -28.8350 C   0  0  0  0  0  1  0  0  0  0  0  0
  -19.8620   -2.1090  -30.5380 C   0  0  0  0  0  0  0  0  0  0  0  0
  -19.2010   -0.3480  -30.7770 Br  0  0  0  0  0  0  0  0  0  0  0  0
  -22.7250    0.1450  -36.5070 C   0  0  2  0  0  3  0  0  0  0  0  0
  -24.2340    0.3320  -36.1890 C   0  0  0  0  0  1  0  0  0  0  0  0
  -22.6030   -0.7000  -37.7080 C   0  0  0  0  0  0  0  0  0  0  0  0
  -23.3970   -1.7310  -37.6970 O   0  0  0  0  0  0  0  0  0  0  0  0
  -21.7600   -0.5340  -38.8180 N   0  0  0  0  0  0  0  0  0  0  0  0
  -20.7810    0.4850  -39.0520 C   0  0  0  0  0  2  0  0  0  0  0  0
  -21.8720   -1.5400  -39.8980 C   0  0  0  0  0  2  0  0  0  0  0  0
  -20.8170    1.0770  -40.4450 C   0  0  0  0  0  2  0  0  0  0  0  0
  -21.1720    0.1070  -41.5190 C   0  0  0  0  0  2  0  0  0  0  0  0
  -22.3240   -0.7930  -41.1250 C   0  0  0  0  0  2  0  0  0  0  0  0
  1  2  1  0  0  0  0
  1  7  1  0  0  0  0
  3  2  1  0  0  0  0
  4  5  1  0  0  0  0
  4  3  1  0  0  0  0
  5  6  1  0  0  0  0
  6  1  1  0  0  0  0
  7 13  1  0  0  0  0
  8  9  1  0  0  0  0
  8  7  2  0  0  0  0
  9 10  2  0  0  0  0
 10 11  1  0  0  0  0
 11 12  1  0  0  0  0
 12 14  1  0  0  0  0
 12 15  1  0  0  0  0
 13 11  2  0  0  0  0
 13 16  1  0  0  0  0
 16 14  2  0  0  0  0
 17 16  1  0  0  0  0
 18 19  1  1  0  0  0
 18  4  1  0  0  0  0
 20 21  2  0  0  0  0
 20 18  1  0  0  0  0
 22 20  1  0  0  0  0
 23 22  1  0  0  0  0
 24 22  1  0  0  0  0
 25 23  1  0  0  0  0
 26 27  1  0  0  0  0
 26 25  1  0  0  0  0
 27 24  1  0  0  0  0
M  END
>  <Pose>
1

>  <Score>
-8.443

$$$$
