MODEL 1
REMARK VINA RESULT:    -7.936      0.000      0.000
REMARK INTER + INTRA:          -7.962
REMARK INTER:                  -8.400
REMARK INTRA:                   0.438
REMARK UNBOUND:                 0.438
REMARK  1 active torsions:
REMARK  status: ('A' for Active; 'I' for Inactive)
REMARK    1  A    between atoms: N_8  and  C_11 
ROOT
ATOM      1  C   UNK d   1     -19.301  -1.038 -28.175  0.00  0.00     0.148 A 
ATOM      2  C   UNK d   1     -19.040   0.237 -28.002  0.00  0.00     0.080 A 
ATOM      3  C   UNK d   1     -18.650   0.778 -26.691  0.00  0.00     0.043 A 
ATOM      4  C   UNK d   1     -18.385   2.058 -26.503  0.00  0.00     0.043 C 
ATOM      5  N   UNK d   1     -18.578  -0.174 -25.640  0.00  0.00    -0.189 N 
ATOM      6  C   UNK d   1     -18.866  -1.563 -25.848  0.00  0.00     0.730 A 
ATOM      7  N   UNK d   1     -19.217  -1.955 -27.102  0.00  0.00    -0.044 N 
ATOM      8  N   UNK d   1     -19.428  -3.274 -27.021  0.00  0.00    -0.143 NA
ATOM      9  C   UNK d   1     -19.224  -3.720 -25.774  0.00  0.00     0.275 A 
ATOM     10  N   UNK d   1     -18.873  -2.645 -25.049  0.00  0.00    -0.054 NA
ATOM     11  H   UNK d   1     -18.306   0.146 -24.686  0.00  0.00     0.184 HD
ENDROOT
BRANCH   1  12
ATOM     12  N   UNK d   1     -19.670  -1.501 -29.452  0.00  0.00    -0.357 N 
ATOM     13  C   UNK d   1     -19.564  -2.915 -29.715  0.00  0.00     0.203 C 
ATOM     14  C   UNK d   1     -20.507  -3.314 -30.802  0.00  0.00     0.124 A 
ATOM     15  N   UNK d   1     -20.838  -2.454 -31.763  0.00  0.00    -0.325 N 
ATOM     16  N   UNK d   1     -21.169  -4.473 -31.057  0.00  0.00    -0.243 NA
ATOM     17  C   UNK d   1     -21.688  -3.041 -32.614  0.00  0.00     0.101 A 
ATOM     18  C   UNK d   1     -20.303  -1.108 -31.796  0.00  0.00     0.151 C 
ATOM     19 Br   UNK d   1     -22.501  -2.295 -34.182  0.00  0.00    -0.029 Br
ATOM     20  C   UNK d   1     -21.907  -4.329 -32.172  0.00  0.00     0.156 A 
ATOM     21  C   UNK d   1     -20.130  -0.534 -30.421  0.00  0.00     0.145 C 
ENDBRANCH   1  12
TORSDOF 1
ENDMDL
