/Users/jonathanwahrer/Desktop/Msc/3_Semester/Drug_Design_Praktikum/waehrer_HTS_screening/HTS_experiment/out/docking_results/vina_output/5l4q/0746_docked.pdbqt
 OpenBabel03212218153D

 30 33  0  0  1  0  0  0  0  0999 V2000
  -22.4310   -0.5030  -34.6180 C   0  0  0  0  0  0  0  0  0  0  0  0
  -23.3320   -1.2320  -34.0750 O   0  0  0  0  0  0  0  0  0  0  0  0
  -22.7830    0.1730  -35.7910 N   0  0  0  0  0  0  0  0  0  0  0  0
  -21.8650    1.0350  -36.5070 C   0  0  0  0  0  2  0  0  0  0  0  0
  -21.6580    0.4550  -37.8720 C   0  0  0  0  0  2  0  0  0  0  0  0
  -22.9520    0.1840  -38.5730 C   0  0  1  0  0  0  0  0  0  0  0  0
  -22.9470    0.8970  -39.8380 N   0  0  0  0  0  0  0  0  0  0  0  0
  -21.9080    0.3210  -40.6710 C   0  0  0  0  0  2  0  0  0  0  0  0
  -22.5140   -0.9420  -41.2940 C   0  0  0  0  0  2  0  0  0  0  0  0
  -22.9450   -1.7850  -40.1530 C   0  0  0  0  0  0  0  0  0  0  0  0
  -23.2020   -3.1070  -40.1140 N   0  0  0  0  0  0  0  0  0  0  0  0
  -23.5580   -3.4060  -38.8550 C   0  0  0  0  0  3  0  0  0  0  0  0
  -23.5190   -2.2740  -38.1290 N   0  0  0  0  0  0  0  0  0  0  0  0
  -23.1400   -1.2460  -38.9060 C   0  0  0  0  0  0  0  0  0  0  0  0
  -24.1140    0.7010  -37.7250 C   0  0  0  0  0  2  0  0  0  0  0  0
  -24.1070    0.0630  -36.3740 C   0  0  0  0  0  2  0  0  0  0  0  0
  -22.6830    1.9120  -39.7030 H   0  0  0  0  0  0  0  0  0  0  0  0
  -23.1510   -3.8170  -40.8870 H   0  0  0  0  0  0  0  0  0  0  0  0
  -21.1300   -0.4710  -33.9280 C   0  0  2  0  0  3  0  0  0  0  0  0
  -19.9490   -0.7610  -34.7820 C   0  0  0  0  0  1  0  0  0  0  0  0
  -21.0990   -1.3460  -32.7730 N   0  0  0  0  0  0  0  0  0  0  0  0
  -20.4150   -1.0350  -31.5850 C   0  0  0  0  0  0  0  0  0  0  0  0
  -19.7940    0.0440  -31.4950 O   0  0  0  0  0  0  0  0  0  0  0  0
  -21.6140   -2.2480  -32.8370 H   0  0  0  0  0  0  0  0  0  0  0  0
  -20.4230   -1.9570  -30.4600 C   0  0  0  0  0  0  0  0  0  0  0  0
  -19.9380   -1.6860  -29.2480 O   0  0  0  0  0  0  0  0  0  0  0  0
  -20.0890   -2.7140  -28.4530 C   0  0  0  0  0  0  0  0  0  0  0  0
  -19.5440   -2.7970  -26.6090 Br  0  0  0  0  0  0  0  0  0  0  0  0
  -20.7090   -3.7410  -29.1490 C   0  0  0  0  0  3  0  0  0  0  0  0
  -20.9100   -3.2440  -30.4120 C   0  0  0  0  0  3  0  0  0  0  0  0
  1  2  2  0  0  0  0
  1 19  1  0  0  0  0
  3  1  1  0  0  0  0
  4  3  1  0  0  0  0
  5  4  1  0  0  0  0
  6  5  1  1  0  0  0
  6 15  1  0  0  0  0
  7 17  1  0  0  0  0
  7  6  1  0  0  0  0
  8  7  1  0  0  0  0
  9  8  1  0  0  0  0
  9 10  1  0  0  0  0
 10 11  1  0  0  0  0
 10 14  2  0  0  0  0
 11 12  1  0  0  0  0
 12 13  2  0  0  0  0
 14  6  1  0  0  0  0
 14 13  1  0  0  0  0
 15 16  1  0  0  0  0
 16  3  1  0  0  0  0
 18 11  1  0  0  0  0
 19 20  1  6  0  0  0
 19 21  1  0  0  0  0
 21 22  1  0  0  0  0
 22 23  2  0  0  0  0
 22 25  1  0  0  0  0
 24 21  1  0  0  0  0
 25 30  2  0  0  0  0
 25 26  1  0  0  0  0
 26 27  1  0  0  0  0
 27 28  1  0  0  0  0
 29 27  2  0  0  0  0
 30 29  1  0  0  0  0
M  END
>  <Pose>
1

>  <Score>
-8.851

$$$$
