MODEL 1
REMARK VINA RESULT:    -8.090      0.000      0.000
REMARK INTER + INTRA:         -10.255
REMARK INTER:                  -9.509
REMARK INTRA:                  -0.745
REMARK UNBOUND:                -0.745
REMARK  3 active torsions:
REMARK  status: ('A' for Active; 'I' for Inactive)
REMARK    1  A    between atoms: C_4  and  C_7 
REMARK       I    between atoms: C_7  and  N_9 
REMARK    2  A    between atoms: N_12  and  C_15 
REMARK    3  A    between atoms: C_17  and  N_22 
ROOT
ATOM      1  C   UNK d   1     -20.539   0.821 -37.500  0.00  0.00     0.277 C 
ATOM      2  O   UNK d   1     -19.360   1.008 -37.833  0.00  0.00    -0.265 OA
ATOM      3  N   UNK d   1     -21.020   1.360 -36.281  0.00  0.00    -0.343 N 
ATOM      4  C   UNK d   1     -20.132   2.128 -35.433  0.00  0.00     0.146 C 
ATOM      5  C   UNK d   1     -19.968   1.507 -34.067  0.00  0.00     0.144 C 
ATOM      6  N   UNK d   1     -21.223   0.790 -33.784  0.00  0.00    -0.362 N 
ATOM      7  C   UNK d   1     -22.414   1.396 -34.272  0.00  0.00     0.144 C 
ATOM      8  C   UNK d   1     -22.378   1.198 -35.799  0.00  0.00     0.146 C 
ENDROOT
BRANCH   6   9
ATOM      9  C   UNK d   1     -21.116  -0.422 -33.059  0.00  0.00     0.146 A 
ATOM     10  N   UNK d   1     -20.461  -0.483 -31.867  0.00  0.00    -0.045 NA
ATOM     11  C   UNK d   1     -20.350  -1.625 -31.170  0.00  0.00     0.726 A 
ATOM     12  N   UNK d   1     -20.898  -2.764 -31.645  0.00  0.00    -0.068 NA
ATOM     13  C   UNK d   1     -21.564  -2.799 -32.812  0.00  0.00     0.053 A 
ATOM     14  C   UNK d   1     -21.659  -1.588 -33.514  0.00  0.00     0.078 A 
ATOM     15  C   UNK d   1     -22.175  -4.043 -33.355  0.00  0.00     0.071 C 
BRANCH  11  16
ATOM     16  N   UNK d   1     -19.658  -1.636 -29.933  0.00  0.00    -0.210 N 
ATOM     17  C   UNK d   1     -18.604  -0.706 -29.607  0.00  0.00     0.167 C 
ATOM     18  C   UNK d   1     -18.893  -0.039 -28.296  0.00  0.00     0.188 C 
ATOM     19  O   UNK d   1     -19.952  -0.626 -27.607  0.00  0.00    -0.388 OA
ATOM     20  C   UNK d   1     -19.808  -2.010 -27.569  0.00  0.00     0.188 C 
ATOM     21  C   UNK d   1     -20.013  -2.620 -28.934  0.00  0.00     0.167 C 
ENDBRANCH  11  16
ENDBRANCH   6   9
BRANCH   1  22
ATOM     22  C   UNK d   1     -21.411   0.037 -38.392  0.00  0.00     0.144 A 
ATOM     23  O   UNK d   1     -21.965  -1.116 -38.168  0.00  0.00    -0.298 OA
ATOM     24  C   UNK d   1     -22.666  -1.517 -39.166  0.00  0.00     0.122 A 
ATOM     25 Br   UNK d   1     -23.683  -3.154 -39.332  0.00  0.00    -0.023 Br
ATOM     26  C   UNK d   1     -22.589  -0.567 -40.155  0.00  0.00     0.048 A 
ATOM     27  C   UNK d   1     -21.785   0.426 -39.658  0.00  0.00     0.046 A 
ENDBRANCH   1  22
TORSDOF 3
ENDMDL
