/Users/jonathanwahrer/Desktop/Msc/3_Semester/Drug_Design_Praktikum/waehrer_HTS_screening/HTS_experiment/out/docking_results/vina_output/5l4q/0755_docked.pdbqt
 OpenBabel03212218153D

 28 31  0  0  0  0  0  0  0  0999 V2000
  -19.7730   -1.8200  -27.7370 C   0  0  0  0  0  0  0  0  0  0  0  0
  -20.6130   -2.6220  -27.3020 O   0  0  0  0  0  0  0  0  0  0  0  0
  -19.3890   -1.8330  -29.1040 N   0  0  0  0  0  0  0  0  0  0  0  0
  -18.3980   -0.8860  -29.6070 C   0  0  0  0  0  2  0  0  0  0  0  0
  -18.2190   -1.0700  -31.1130 C   0  0  0  0  0  2  0  0  0  0  0  0
  -19.5420   -1.0650  -31.7060 N   0  0  0  0  0  0  0  0  0  0  0  0
  -20.5040   -2.0320  -31.2530 C   0  0  0  0  0  2  0  0  0  0  0  0
  -19.9490   -2.7680  -30.0600 C   0  0  0  0  0  2  0  0  0  0  0  0
  -19.9010   -0.1240  -32.7260 C   0  0  0  0  0  0  0  0  0  0  0  0
  -19.3220    1.0830  -32.8040 N   0  0  0  0  0  0  0  0  0  0  0  0
  -19.6780    1.9410  -33.7670 C   0  0  0  0  0  0  0  0  0  0  0  0
  -20.6190    1.6330  -34.6800 N   0  0  0  0  0  0  0  0  0  0  0  0
  -19.0310    3.2750  -33.8450 C   0  0  0  0  0  1  0  0  0  0  0  0
  -21.2380    0.4390  -34.6580 C   0  0  0  0  0  0  0  0  0  0  0  0
  -20.8570   -0.4320  -33.6590 C   0  0  0  0  0  3  0  0  0  0  0  0
  -22.2330    0.0680  -35.5960 N   0  0  0  0  0  0  0  0  0  0  0  0
  -22.6470   -1.3150  -35.7150 C   0  0  0  0  0  2  0  0  0  0  0  0
  -23.9090   -1.3360  -36.5520 C   0  0  0  0  0  2  0  0  0  0  0  0
  -23.6080   -0.8110  -37.8560 N   0  0  0  0  0  0  0  0  0  0  0  0
  -22.8690    0.4120  -37.8590 C   0  0  0  0  0  2  0  0  0  0  0  0
  -23.0540   -1.8470  -38.6900 C   0  0  0  0  0  1  0  0  0  0  0  0
  -22.8810    1.0230  -36.4740 C   0  0  0  0  0  2  0  0  0  0  0  0
  -19.1580   -0.8330  -26.8200 C   0  0  0  0  0  0  0  0  0  0  0  0
  -19.1740    0.4700  -26.9470 O   0  0  0  0  0  0  0  0  0  0  0  0
  -18.5420    1.0720  -25.9710 C   0  0  0  0  0  0  0  0  0  0  0  0
  -18.3280    2.9600  -25.7720 Br  0  0  0  0  0  0  0  0  0  0  0  0
  -18.0640    0.0950  -25.1240 C   0  0  0  0  0  3  0  0  0  0  0  0
  -18.4580   -1.1000  -25.6680 C   0  0  0  0  0  3  0  0  0  0  0  0
  1  2  2  0  0  0  0
  1 23  1  0  0  0  0
  3  1  1  0  0  0  0
  4  3  1  0  0  0  0
  5  4  1  0  0  0  0
  6  7  1  0  0  0  0
  6  5  1  0  0  0  0
  7  8  1  0  0  0  0
  8  3  1  0  0  0  0
  9  6  1  0  0  0  0
 10  9  1  0  0  0  0
 11 10  2  0  0  0  0
 12 14  2  0  0  0  0
 12 11  1  0  0  0  0
 13 11  1  0  0  0  0
 14 15  1  0  0  0  0
 15  9  2  0  0  0  0
 16 14  1  0  0  0  0
 17 16  1  0  0  0  0
 18 17  1  0  0  0  0
 19 18  1  0  0  0  0
 20 19  1  0  0  0  0
 20 22  1  0  0  0  0
 21 19  1  0  0  0  0
 22 16  1  0  0  0  0
 23 28  2  0  0  0  0
 24 23  1  0  0  0  0
 24 25  1  0  0  0  0
 25 26  1  0  0  0  0
 25 27  2  0  0  0  0
 28 27  1  0  0  0  0
M  END
>  <Pose>
1

>  <Score>
-8.956

$$$$
