MODEL 1
REMARK VINA RESULT:    -9.836      0.000      0.000
REMARK INTER + INTRA:         -14.179
REMARK INTER:                 -13.286
REMARK INTRA:                  -0.893
REMARK UNBOUND:                -0.893
REMARK  6 active torsions:
REMARK  status: ('A' for Active; 'I' for Inactive)
REMARK    1  A    between atoms: C_4  and  C_7 
REMARK    2  A    between atoms: C_10  and  C_12 
REMARK       I    between atoms: C_12  and  N_14 
REMARK    3  A    between atoms: N_14  and  C_15 
REMARK    4  A    between atoms: C_15  and  C_16 
REMARK    5  A    between atoms: C_16  and  N_17 
REMARK       I    between atoms: N_17  and  C_18 
REMARK    6  A    between atoms: C_18  and  C_20 
ROOT
ATOM      1  C   UNK d   1     -20.267  -5.421 -29.169  0.00  0.00     0.142 C 
ENDROOT
BRANCH   1   2
ATOM      2  N   UNK d   1     -20.668  -4.465 -30.145  0.00  0.00    -0.352 N 
ATOM      3  C   UNK d   1     -21.049  -4.849 -31.460  0.00  0.00     0.297 C 
ATOM      4  O   UNK d   1     -21.025  -6.092 -31.756  0.00  0.00    -0.264 OA
ATOM      5  H   UNK d   1     -20.686  -3.458 -29.897  0.00  0.00     0.162 HD
BRANCH   3   6
ATOM      6  C   UNK d   1     -21.460  -3.873 -32.462  0.00  0.00     0.264 A 
ATOM      7  O   UNK d   1     -22.295  -4.139 -33.434  0.00  0.00    -0.185 OA
ATOM      8  N   UNK d   1     -22.478  -3.082 -34.174  0.00  0.00    -0.103 NA
ATOM      9  C   UNK d   1     -21.741  -2.058 -33.689  0.00  0.00     0.213 A 
ATOM     10  N   UNK d   1     -21.120  -2.589 -32.621  0.00  0.00    -0.193 NA
BRANCH   9  11
ATOM     11  C   UNK d   1     -21.649  -0.700 -34.211  0.00  0.00     0.127 A 
ATOM     12  O   UNK d   1     -22.035  -0.262 -35.382  0.00  0.00    -0.299 OA
ATOM     13  C   UNK d   1     -21.810   1.007 -35.535  0.00  0.00     0.122 A 
ATOM     14 Br   UNK d   1     -22.180   2.112 -37.032  0.00  0.00    -0.023 Br
ATOM     15  C   UNK d   1     -21.217   1.496 -34.369  0.00  0.00     0.048 A 
ATOM     16  C   UNK d   1     -21.123   0.389 -33.539  0.00  0.00     0.045 A 
ENDBRANCH   9  11
ENDBRANCH   3   6
ENDBRANCH   1   2
BRANCH   1  17
ATOM     17  C   UNK d   1     -20.153  -4.834 -27.779  0.00  0.00     0.142 C 
BRANCH  17  18
ATOM     18  N   UNK d   1     -20.022  -3.384 -27.826  0.00  0.00    -0.355 N 
ATOM     19  C   UNK d   1     -19.348  -2.726 -26.783  0.00  0.00     0.257 C 
ATOM     20  O   UNK d   1     -18.895  -3.489 -25.856  0.00  0.00    -0.267 OA
ATOM     21  H   UNK d   1     -20.409  -2.828 -28.609  0.00  0.00     0.162 HD
BRANCH  19  22
ATOM     22  C   UNK d   1     -19.108  -1.313 -26.635  0.00  0.00     0.108 A 
ATOM     23  C   UNK d   1     -18.557  -0.853 -25.439  0.00  0.00     0.037 A 
ATOM     24  C   UNK d   1     -18.309   0.487 -25.275  0.00  0.00    -0.001 A 
ATOM     25  C   UNK d   1     -18.599   1.366 -26.272  0.00  0.00     0.089 A 
ATOM     26  C   UNK d   1     -17.757   0.983 -24.090  0.00  0.00     0.014 A 
ATOM     27  C   UNK d   1     -18.345   2.729 -26.100  0.00  0.00     0.038 A 
ATOM     28  O   UNK d   1     -19.112   0.905 -27.376  0.00  0.00    -0.274 OA
ATOM     29  C   UNK d   1     -17.802   3.221 -24.938  0.00  0.00     0.003 A 
ATOM     30  C   UNK d   1     -17.513   2.330 -23.936  0.00  0.00     0.001 A 
ATOM     31  C   UNK d   1     -19.377  -0.377 -27.601  0.00  0.00     0.304 A 
ATOM     32  O   UNK d   1     -19.873  -0.688 -28.709  0.00  0.00    -0.259 OA
ENDBRANCH  19  22
ENDBRANCH  17  18
ENDBRANCH   1  17
TORSDOF 6
ENDMDL
