MODEL 1
REMARK VINA RESULT:    -9.186      0.000      0.000
REMARK INTER + INTRA:         -11.337
REMARK INTER:                 -10.798
REMARK INTRA:                  -0.540
REMARK UNBOUND:                -0.540
REMARK  3 active torsions:
REMARK  status: ('A' for Active; 'I' for Inactive)
REMARK    1  A    between atoms: C_4  and  C_9 
REMARK       I    between atoms: C_9  and  N_11 
REMARK    2  A    between atoms: N_14  and  C_17 
REMARK    3  A    between atoms: C_17  and  C_18 
ROOT
ATOM      1  C   UNK d   1     -23.000  -0.092 -36.080  0.00  0.00     0.189 C 
ATOM      2  O   UNK d   1     -24.130   0.535 -35.813  0.00  0.00    -0.171 OA
ATOM      3  N   UNK d   1     -21.966   0.132 -35.183  0.00  0.00    -0.355 N 
ATOM      4  C   UNK d   1     -22.204   1.031 -34.025  0.00  0.00     0.155 C 
ATOM      5  C   UNK d   1     -21.889   0.279 -32.755  0.00  0.00     0.292 C 
ATOM      6  N   UNK d   1     -20.557  -0.181 -32.793  0.00  0.00     0.095 N 
ATOM      7  C   UNK d   1     -19.902   0.163 -34.009  0.00  0.00     0.292 C 
ATOM      8  C   UNK d   1     -20.663  -0.410 -35.229  0.00  0.00     0.155 C 
ENDROOT
BRANCH   1   9
ATOM      9  C   UNK d   1     -23.093  -0.897 -37.283  0.00  0.00     0.042 A 
ATOM     10  C   UNK d   1     -22.644  -0.485 -38.508  0.00  0.00     0.043 A 
ATOM     11  C   UNK d   1     -22.778  -1.335 -39.611  0.00  0.00     0.087 A 
ATOM     12 Br   UNK d   1     -22.181  -0.830 -41.325  0.00  0.00    -0.045 Br
ATOM     13  C   UNK d   1     -23.359  -2.566 -39.430  0.00  0.00     0.305 A 
ATOM     14  O   UNK d   1     -23.769  -2.921 -38.264  0.00  0.00    -0.286 OA
ATOM     15  O   UNK d   1     -23.501  -3.368 -40.390  0.00  0.00    -0.258 OA
ATOM     16  C   UNK d   1     -23.668  -2.170 -37.214  0.00  0.00     0.162 A 
ENDBRANCH   1   9
BRANCH   6  17
ATOM     17  C   UNK d   1     -19.758   0.098 -31.643  0.00  0.00     0.311 C 
BRANCH  17  18
ATOM     18  C   UNK d   1     -19.837  -0.894 -30.556  0.00  0.00    -0.027 A 
ATOM     19  C   UNK d   1     -19.857  -2.239 -30.733  0.00  0.00     0.048 A 
ATOM     20  C   UNK d   1     -19.936  -3.085 -29.655  0.00  0.00     0.105 A 
ATOM     21  C   UNK d   1     -19.998  -2.566 -28.391  0.00  0.00     0.105 A 
ATOM     22  O   UNK d   1     -19.975  -4.481 -29.516  0.00  0.00    -0.323 OA
ATOM     23  C   UNK d   1     -19.979  -1.204 -28.186  0.00  0.00     0.040 A 
ATOM     24  O   UNK d   1     -20.073  -3.597 -27.470  0.00  0.00    -0.323 OA
ATOM     25  C   UNK d   1     -19.900  -0.391 -29.269  0.00  0.00     0.012 A 
ATOM     26  C   UNK d   1     -20.430  -4.758 -28.206  0.00  0.00     0.352 C 
ENDBRANCH  17  18
ENDBRANCH   6  17
TORSDOF 3
ENDMDL
