/Users/jonathanwahrer/Desktop/Msc/3_Semester/Drug_Design_Praktikum/waehrer_HTS_screening/HTS_experiment/out/docking_results/vina_output/5l4q/0776_docked.pdbqt
 OpenBabel03212218163D

 38 41  0  0  1  0  0  0  0  0999 V2000
  -18.5260    1.7060  -35.1490 C   0  0  2  0  0  3  0  0  0  0  0  0
  -19.6030    0.8750  -35.8580 C   0  0  1  0  0  0  0  0  0  0  0  0
  -20.7270    0.6230  -34.9120 C   0  0  0  0  0  2  0  0  0  0  0  0
  -20.2070   -0.1990  -33.7540 C   0  0  1  0  0  0  0  0  0  0  0  0
  -18.8320   -0.1370  -33.6310 O   0  0  0  0  0  0  0  0  0  0  0  0
  -18.3160    1.1420  -33.7830 C   0  0  0  0  0  2  0  0  0  0  0  0
  -20.9440    0.2210  -32.5340 C   0  0  0  0  0  2  0  0  0  0  0  0
  -20.4540   -0.6330  -31.3550 C   0  0  0  0  0  2  0  0  0  0  0  0
  -20.8720   -1.9760  -31.5890 N   0  0  0  0  0  0  0  0  0  0  0  0
  -21.4460   -2.2200  -32.9550 C   0  0  0  0  0  2  0  0  0  0  0  0
  -20.5730   -1.6440  -34.0200 C   0  0  0  0  0  2  0  0  0  0  0  0
  -20.7910   -3.0280  -30.6980 C   0  0  0  0  0  0  0  0  0  0  0  0
  -21.2650   -4.1760  -31.1380 O   0  0  0  0  0  0  0  0  0  0  0  0
  -20.0190    1.5110  -37.1450 C   0  0  0  0  0  1  0  0  0  0  0  0
  -19.0140   -0.3550  -36.1590 O   0  0  0  0  0  0  0  0  0  0  0  0
  -19.6750   -1.0870  -36.2490 H   0  0  0  0  0  0  0  0  0  0  0  0
  -18.7880    3.1080  -35.2100 N   0  0  0  0  0  0  0  0  0  0  0  0
  -19.6380    3.7560  -34.3930 C   0  0  0  0  0  3  0  0  0  0  0  0
  -19.8690    5.1060  -34.4770 C   0  0  0  0  0  0  0  0  0  0  0  0
  -21.0990    5.8910  -33.2540 Br  0  0  0  0  0  0  0  0  0  0  0  0
  -19.2160    5.8480  -35.4290 C   0  0  0  0  0  0  0  0  0  0  0  0
  -18.3670    5.2000  -36.2450 N   0  0  0  0  0  0  0  0  0  0  0  0
  -19.4340    7.0820  -35.4990 O   0  0  0  0  0  0  0  0  0  0  0  0
  -18.1670    3.8960  -36.1380 C   0  0  0  0  0  0  0  0  0  0  0  0
  -17.8790    5.7760  -36.9630 H   0  0  0  0  0  0  0  0  0  0  0  0
  -17.3520    3.3590  -36.9440 O   0  0  0  0  0  0  0  0  0  0  0  0
  -20.2790   -3.0910  -29.3750 C   0  0  0  0  0  0  0  0  0  0  0  0
  -19.5860   -1.9930  -28.8330 C   0  0  0  0  0  3  0  0  0  0  0  0
  -19.0660   -1.9240  -27.5800 C   0  0  0  0  0  0  0  0  0  0  0  0
  -19.2470   -3.0580  -26.7610 C   0  0  0  0  0  3  0  0  0  0  0  0
  -19.9110   -4.1260  -27.2600 C   0  0  0  0  0  3  0  0  0  0  0  0
  -20.4360   -4.1670  -28.5630 C   0  0  0  0  0  3  0  0  0  0  0  0
  -18.3960   -0.8420  -27.0920 O   0  0  0  0  0  0  0  0  0  0  0  0
  -18.7920    0.4330  -26.8190 C   0  0  0  0  0  2  0  0  0  0  0  0
  -18.1490    0.9940  -25.5960 C   0  0  0  0  0  2  0  0  0  0  0  0
  -17.8660   -0.0880  -24.6520 N   0  0  0  0  0  0  0  0  0  0  0  0
  -17.5250   -0.9380  -25.1250 H   0  0  0  0  0  0  0  0  0  0  0  0
  -18.6220   -0.2360  -23.9760 H   0  0  0  0  0  0  0  0  0  0  0  0
  1 17  1  1  0  0  0
  1  6  1  0  0  0  0
  2 14  1  6  0  0  0
  2  1  1  0  0  0  0
  2  3  1  0  0  0  0
  4  3  1  6  0  0  0
  4  5  1  0  0  0  0
  4  7  1  0  0  0  0
  6  5  1  0  0  0  0
  7  8  1  0  0  0  0
  9  8  1  0  0  0  0
  9 12  1  0  0  0  0
 10  9  1  0  0  0  0
 11  4  1  0  0  0  0
 11 10  1  0  0  0  0
 12 27  1  0  0  0  0
 13 12  2  0  0  0  0
 15  2  1  0  0  0  0
 16 15  1  0  0  0  0
 17 18  1  0  0  0  0
 19 18  2  0  0  0  0
 19 20  1  0  0  0  0
 21 19  1  0  0  0  0
 22 24  1  0  0  0  0
 22 21  1  0  0  0  0
 23 21  2  0  0  0  0
 24 17  1  0  0  0  0
 25 22  1  0  0  0  0
 26 24  2  0  0  0  0
 27 28  2  0  0  0  0
 27 32  1  0  0  0  0
 28 29  1  0  0  0  0
 29 33  1  0  0  0  0
 29 30  2  0  0  0  0
 31 30  1  0  0  0  0
 32 31  2  0  0  0  0
 33 34  1  0  0  0  0
 34 35  1  0  0  0  0
 35 36  1  0  0  0  0
 36 38  1  0  0  0  0
 37 36  1  0  0  0  0
M  END
>  <Pose>
1

>  <Score>
-8.769

$$$$
