MODEL 1
REMARK VINA RESULT:    -8.769      0.000      0.000
REMARK INTER + INTRA:         -11.680
REMARK INTER:                 -11.845
REMARK INTRA:                   0.165
REMARK UNBOUND:                 0.165
REMARK  7 active torsions:
REMARK  status: ('A' for Active; 'I' for Inactive)
REMARK    1  A    between atoms: N_4  and  C_10 
REMARK    2  A    between atoms: C_11  and  O_33 
REMARK       I    between atoms: N_18  and  C_21 
REMARK    3  A    between atoms: C_21  and  C_23 
REMARK    4  A    between atoms: C_25  and  O_29 
REMARK    5  A    between atoms: O_29  and  C_30 
REMARK    6  A    between atoms: C_30  and  C_31 
REMARK    7  A    between atoms: C_31  and  N_32 
ROOT
ATOM      1  C   UNK d   1     -18.526   1.706 -35.149  0.00  0.00     0.152 C 
ATOM      2  C   UNK d   1     -19.603   0.875 -35.858  0.00  0.00     0.080 C 
ATOM      3  C   UNK d   1     -20.727   0.623 -34.912  0.00  0.00     0.077 C 
ATOM      4  C   UNK d   1     -20.207  -0.199 -33.754  0.00  0.00     0.067 C 
ATOM      5  O   UNK d   1     -18.832  -0.137 -33.631  0.00  0.00    -0.378 OA
ATOM      6  C   UNK d   1     -18.316   1.142 -33.783  0.00  0.00     0.197 C 
ATOM      7  C   UNK d   1     -20.944   0.221 -32.534  0.00  0.00     0.058 C 
ATOM      8  C   UNK d   1     -20.454  -0.633 -31.355  0.00  0.00     0.128 C 
ATOM      9  N   UNK d   1     -20.872  -1.976 -31.589  0.00  0.00    -0.359 N 
ATOM     10  C   UNK d   1     -21.446  -2.220 -32.955  0.00  0.00     0.128 C 
ATOM     11  C   UNK d   1     -20.573  -1.644 -34.020  0.00  0.00     0.058 C 
ATOM     12  C   UNK d   1     -20.791  -3.028 -30.698  0.00  0.00     0.187 C 
ATOM     13  O   UNK d   1     -21.265  -4.176 -31.138  0.00  0.00    -0.171 OA
ATOM     14  C   UNK d   1     -20.019   1.511 -37.145  0.00  0.00     0.048 C 
ENDROOT
BRANCH   2  15
ATOM     15  O   UNK d   1     -19.014  -0.355 -36.159  0.00  0.00    -0.388 OA
ATOM     16  H   UNK d   1     -19.675  -1.087 -36.249  0.00  0.00     0.210 HD
ENDBRANCH   2  15
BRANCH   1  17
ATOM     17  N   UNK d   1     -18.788   3.108 -35.210  0.00  0.00    -0.298 N 
ATOM     18  C   UNK d   1     -19.638   3.756 -34.393  0.00  0.00     0.121 A 
ATOM     19  C   UNK d   1     -19.869   5.106 -34.477  0.00  0.00     0.094 A 
ATOM     20 Br   UNK d   1     -21.099   5.891 -33.254  0.00  0.00    -0.044 Br
ATOM     21  C   UNK d   1     -19.216   5.848 -35.429  0.00  0.00     0.268 A 
ATOM     22  N   UNK d   1     -18.367   5.200 -36.245  0.00  0.00    -0.274 N 
ATOM     23  O   UNK d   1     -19.434   7.082 -35.499  0.00  0.00    -0.267 OA
ATOM     24  C   UNK d   1     -18.167   3.896 -36.138  0.00  0.00     0.329 A 
ATOM     25  H   UNK d   1     -17.879   5.776 -36.963  0.00  0.00     0.173 HD
ATOM     26  O   UNK d   1     -17.352   3.359 -36.944  0.00  0.00    -0.246 OA
ENDBRANCH   1  17
BRANCH  12  27
ATOM     27  C   UNK d   1     -20.279  -3.091 -29.375  0.00  0.00     0.020 A 
ATOM     28  C   UNK d   1     -19.586  -1.993 -28.833  0.00  0.00     0.052 A 
ATOM     29  C   UNK d   1     -19.066  -1.924 -27.580  0.00  0.00     0.069 A 
ATOM     30  C   UNK d   1     -19.247  -3.058 -26.761  0.00  0.00     0.037 A 
ATOM     31  C   UNK d   1     -19.911  -4.126 -27.260  0.00  0.00     0.004 A 
ATOM     32  C   UNK d   1     -20.436  -4.167 -28.563  0.00  0.00     0.016 A 
BRANCH  29  33
ATOM     33  O   UNK d   1     -18.396  -0.842 -27.092  0.00  0.00    -0.349 OA
BRANCH  33  34
ATOM     34  C   UNK d   1     -18.792   0.433 -26.819  0.00  0.00     0.205 C 
BRANCH  34  35
ATOM     35  C   UNK d   1     -18.149   0.994 -25.596  0.00  0.00     0.293 C 
BRANCH  35  36
ATOM     36  N   UNK d   1     -17.866  -0.088 -24.652  0.00  0.00     0.080 N 
ATOM     37  H   UNK d   1     -17.525  -0.938 -25.125  0.00  0.00     0.312 HD
ATOM     38  H   UNK d   1     -18.622  -0.236 -23.976  0.00  0.00     0.312 HD
ENDBRANCH  35  36
ENDBRANCH  34  35
ENDBRANCH  33  34
ENDBRANCH  29  33
ENDBRANCH  12  27
TORSDOF 7
ENDMDL
