MODEL 1
REMARK VINA RESULT:    -9.174      0.000      0.000
REMARK INTER + INTRA:         -12.233
REMARK INTER:                 -12.123
REMARK INTRA:                  -0.110
REMARK UNBOUND:                -0.110
REMARK  7 active torsions:
REMARK  status: ('A' for Active; 'I' for Inactive)
REMARK    1  A    between atoms: N_4  and  C_10 
REMARK    2  A    between atoms: C_11  and  O_33 
REMARK       I    between atoms: N_18  and  C_21 
REMARK    3  A    between atoms: C_21  and  C_23 
REMARK    4  A    between atoms: C_23  and  N_24 
REMARK    5  A    between atoms: C_23  and  C_25 
REMARK    6  A    between atoms: C_25  and  C_26 
REMARK    7  A    between atoms: C_29  and  O_32 
ROOT
ATOM      1  C   UNK d   1     -21.645   1.352 -38.844  0.00  0.00     0.152 C 
ATOM      2  C   UNK d   1     -20.912   0.391 -37.997  0.00  0.00     0.080 C 
ATOM      3  C   UNK d   1     -21.715  -0.124 -36.796  0.00  0.00     0.077 C 
ATOM      4  C   UNK d   1     -22.240   1.028 -35.976  0.00  0.00     0.067 C 
ATOM      5  O   UNK d   1     -22.310   2.194 -36.714  0.00  0.00    -0.378 OA
ATOM      6  C   UNK d   1     -22.688   2.048 -38.013  0.00  0.00     0.197 C 
ATOM      7  C   UNK d   1     -21.330   1.181 -34.771  0.00  0.00     0.058 C 
ATOM      8  C   UNK d   1     -21.903   0.458 -33.582  0.00  0.00     0.129 C 
ATOM      9  N   UNK d   1     -22.471  -0.789 -34.028  0.00  0.00    -0.350 N 
ATOM     10  C   UNK d   1     -23.665  -0.681 -34.853  0.00  0.00     0.129 C 
ATOM     11  C   UNK d   1     -23.635   0.677 -35.517  0.00  0.00     0.058 C 
ATOM     12  C   UNK d   1     -21.905  -2.013 -33.663  0.00  0.00     0.253 C 
ATOM     13  O   UNK d   1     -22.499  -3.053 -34.127  0.00  0.00    -0.271 OA
ATOM     14  C   UNK d   1     -19.556   0.829 -37.547  0.00  0.00     0.048 C 
ENDROOT
BRANCH   2  15
ATOM     15  O   UNK d   1     -20.699  -0.773 -38.779  0.00  0.00    -0.388 OA
ATOM     16  H   UNK d   1     -20.605  -1.577 -38.216  0.00  0.00     0.210 HD
ENDBRANCH   2  15
BRANCH   1  17
ATOM     17  N   UNK d   1     -20.807   2.305 -39.542  0.00  0.00    -0.298 N 
ATOM     18  C   UNK d   1     -20.539   3.480 -38.981  0.00  0.00     0.121 A 
ATOM     19  C   UNK d   1     -19.752   4.408 -39.622  0.00  0.00     0.094 A 
ATOM     20 Br   UNK d   1     -19.378   6.099 -38.791  0.00  0.00    -0.044 Br
ATOM     21  C   UNK d   1     -19.242   4.099 -40.865  0.00  0.00     0.268 A 
ATOM     22  N   UNK d   1     -19.547   2.894 -41.382  0.00  0.00    -0.274 N 
ATOM     23  O   UNK d   1     -18.512   4.919 -41.495  0.00  0.00    -0.267 OA
ATOM     24  C   UNK d   1     -20.318   2.002 -40.742  0.00  0.00     0.329 A 
ATOM     25  H   UNK d   1     -19.156   2.651 -42.342  0.00  0.00     0.173 HD
ATOM     26  O   UNK d   1     -20.552   0.886 -41.313  0.00  0.00    -0.246 OA
ENDBRANCH   1  17
BRANCH  12  27
ATOM     27  C   UNK d   1     -20.740  -2.282 -32.828  0.00  0.00     0.313 C 
BRANCH  27  28
ATOM     28  N   UNK d   1     -19.487  -1.989 -33.525  0.00  0.00     0.092 N 
ATOM     29  H   UNK d   1     -19.438  -2.492 -34.437  0.00  0.00     0.313 HD
ATOM     30  H   UNK d   1     -18.691  -2.356 -32.946  0.00  0.00     0.313 HD
ENDBRANCH  27  28
BRANCH  27  31
ATOM     31  C   UNK d   1     -20.682  -1.507 -31.530  0.00  0.00     0.083 C 
BRANCH  31  32
ATOM     32  C   UNK d   1     -20.541  -2.540 -30.437  0.00  0.00    -0.056 A 
ATOM     33  C   UNK d   1     -20.669  -3.873 -30.727  0.00  0.00     0.010 A 
ATOM     34  C   UNK d   1     -20.532  -4.791 -29.690  0.00  0.00     0.037 A 
ATOM     35  C   UNK d   1     -20.274  -4.392 -28.398  0.00  0.00     0.065 A 
ATOM     36  C   UNK d   1     -20.152  -3.041 -28.146  0.00  0.00     0.037 A 
ATOM     37  C   UNK d   1     -20.283  -2.106 -29.153  0.00  0.00     0.010 A 
BRANCH  35  38
ATOM     38  O   UNK d   1     -20.148  -5.348 -27.408  0.00  0.00    -0.361 OA
ATOM     39  H   UNK d   1     -19.256  -5.735 -27.099  0.00  0.00     0.217 HD
ENDBRANCH  35  38
ENDBRANCH  31  32
ENDBRANCH  27  31
ENDBRANCH  12  27
TORSDOF 7
ENDMDL
