MODEL 1
REMARK VINA RESULT:    -7.405      0.000      0.000
REMARK INTER + INTRA:         -11.257
REMARK INTER:                  -9.786
REMARK INTRA:                  -1.471
REMARK UNBOUND:                -1.471
REMARK  6 active torsions:
REMARK  status: ('A' for Active; 'I' for Inactive)
REMARK    1  A    between atoms: N_4  and  C_10 
REMARK    2  A    between atoms: C_11  and  O_34 
REMARK       I    between atoms: N_18  and  C_21 
REMARK    3  A    between atoms: C_21  and  C_23 
REMARK    4  A    between atoms: C_23  and  N_24 
REMARK    5  A    between atoms: C_23  and  C_28 
REMARK       I    between atoms: N_24  and  C_25 
REMARK    6  A    between atoms: C_28  and  C_29 
ROOT
ATOM      1  C   UNK d   1     -19.465  -0.868 -32.391  0.00  0.00     0.152 C 
ATOM      2  C   UNK d   1     -20.421   0.336 -32.402  0.00  0.00     0.080 C 
ATOM      3  C   UNK d   1     -20.321   0.873 -33.837  0.00  0.00     0.077 C 
ATOM      4  C   UNK d   1     -18.885   1.105 -34.217  0.00  0.00     0.067 C 
ATOM      5  O   UNK d   1     -18.092   0.945 -33.107  0.00  0.00    -0.378 OA
ATOM      6  C   UNK d   1     -18.102  -0.334 -32.558  0.00  0.00     0.197 C 
ATOM      7  C   UNK d   1     -18.785   2.569 -34.622  0.00  0.00     0.058 C 
ATOM      8  C   UNK d   1     -19.176   2.725 -36.070  0.00  0.00     0.129 C 
ATOM      9  N   UNK d   1     -20.011   1.591 -36.499  0.00  0.00    -0.350 N 
ATOM     10  C   UNK d   1     -19.341   0.326 -36.562  0.00  0.00     0.129 C 
ATOM     11  C   UNK d   1     -18.401   0.285 -35.360  0.00  0.00     0.058 C 
ATOM     12  C   UNK d   1     -21.368   1.729 -36.788  0.00  0.00     0.243 C 
ATOM     13  O   UNK d   1     -21.966   2.865 -36.639  0.00  0.00    -0.271 OA
ATOM     14  C   UNK d   1     -20.018   1.360 -31.389  0.00  0.00     0.048 C 
ENDROOT
BRANCH   2  15
ATOM     15  O   UNK d   1     -21.726  -0.035 -32.161  0.00  0.00    -0.388 OA
ATOM     16  H   UNK d   1     -21.788  -0.435 -31.256  0.00  0.00     0.210 HD
ENDBRANCH   2  15
BRANCH   1  17
ATOM     17  N   UNK d   1     -19.741  -1.776 -31.353  0.00  0.00    -0.298 N 
ATOM     18  C   UNK d   1     -19.399  -1.621 -30.072  0.00  0.00     0.121 A 
ATOM     19  C   UNK d   1     -19.712  -2.571 -29.100  0.00  0.00     0.094 A 
ATOM     20 Br   UNK d   1     -19.179  -2.251 -27.311  0.00  0.00    -0.044 Br
ATOM     21  C   UNK d   1     -20.396  -3.712 -29.456  0.00  0.00     0.268 A 
ATOM     22  N   UNK d   1     -20.733  -3.856 -30.750  0.00  0.00    -0.274 N 
ATOM     23  O   UNK d   1     -20.693  -4.596 -28.588  0.00  0.00    -0.267 OA
ATOM     24  C   UNK d   1     -20.418  -2.923 -31.664  0.00  0.00     0.329 A 
ATOM     25  H   UNK d   1     -21.257  -4.712 -31.073  0.00  0.00     0.173 HD
ATOM     26  O   UNK d   1     -20.764  -3.117 -32.861  0.00  0.00    -0.246 OA
ENDBRANCH   1  17
BRANCH  12  27
ATOM     27  C   UNK d   1     -22.198   0.635 -37.268  0.00  0.00     0.182 C 
BRANCH  27  28
ATOM     28  N   UNK d   1     -23.244   0.326 -36.323  0.00  0.00    -0.348 N 
ATOM     29  C   UNK d   1     -23.252  -0.633 -35.317  0.00  0.00     0.214 C 
ATOM     30  O   UNK d   1     -22.323  -1.427 -35.063  0.00  0.00    -0.274 OA
ATOM     31  C   UNK d   1     -24.458  -0.790 -34.408  0.00  0.00     0.117 C 
ATOM     32  H   UNK d   1     -24.122   0.923 -36.430  0.00  0.00     0.163 HD
ENDBRANCH  27  28
BRANCH  27  33
ATOM     33  C   UNK d   1     -22.851   0.969 -38.645  0.00  0.00     0.095 C 
BRANCH  33  34
ATOM     34  C   UNK d   1     -22.066   0.361 -39.734  0.00  0.00     0.053 A 
ATOM     35  N   UNK d   1     -21.389   0.936 -40.715  0.00  0.00    -0.247 NA
ATOM     36  C   UNK d   1     -20.795   0.012 -41.520  0.00  0.00     0.207 A 
ATOM     37  N   UNK d   1     -21.121  -1.191 -41.012  0.00  0.00    -0.359 N 
ATOM     38  C   UNK d   1     -21.896  -1.001 -39.923  0.00  0.00     0.116 A 
ATOM     39  H   UNK d   1     -20.801  -2.097 -41.432  0.00  0.00     0.166 HD
ENDBRANCH  33  34
ENDBRANCH  27  33
ENDBRANCH  12  27
TORSDOF 6
ENDMDL
