/Users/jonathanwahrer/Desktop/Msc/3_Semester/Drug_Design_Praktikum/waehrer_HTS_screening/HTS_experiment/out/docking_results/vina_output/5l4q/0786_docked.pdbqt
 OpenBabel03212218173D

 25 28  0  0  1  0  0  0  0  0999 V2000
  -21.1230   -0.3460  -33.3290 N   0  0  0  0  0  0  0  0  0  0  0  0
  -21.1720    0.3880  -34.5240 C   0  0  0  0  0  0  0  0  0  0  0  0
  -20.2660    0.2570  -35.3740 O   0  0  0  0  0  0  0  0  0  0  0  0
  -21.8810   -0.2290  -32.6300 H   0  0  0  0  0  0  0  0  0  0  0  0
  -20.0210   -1.2510  -33.0890 C   0  0  0  0  0  2  0  0  0  0  0  0
  -19.8990   -1.5780  -31.6460 C   0  0  0  0  0  0  0  0  0  0  0  0
  -20.4370   -2.6230  -30.9910 N   0  0  0  0  0  0  0  0  0  0  0  0
  -20.0940   -2.5630  -29.6920 C   0  0  0  0  0  0  0  0  0  0  0  0
  -19.3290   -1.4720  -29.5050 N   0  0  0  0  0  0  0  0  0  0  0  0
  -20.4000   -3.4030  -28.6260 C   0  0  0  0  0  3  0  0  0  0  0  0
  -18.8620   -1.2090  -28.2510 C   0  0  0  0  0  3  0  0  0  0  0  0
  -19.2020   -0.8600  -30.6960 C   0  0  0  0  0  3  0  0  0  0  0  0
  -19.1480   -2.0210  -27.1760 C   0  0  0  0  0  0  0  0  0  0  0  0
  -18.4890   -1.6480  -25.4160 Br  0  0  0  0  0  0  0  0  0  0  0  0
  -19.9320   -3.1400  -27.3630 C   0  0  0  0  0  3  0  0  0  0  0  0
  -22.2870    1.3160  -34.7900 C   0  0  1  0  0  3  0  0  0  0  0  0
  -22.5960    1.3620  -36.2650 C   0  0  0  0  0  2  0  0  0  0  0  0
  -22.9670    0.0180  -36.6620 N   0  0  0  0  0  0  0  0  0  0  0  0
  -23.6710   -0.7610  -35.8240 C   0  0  0  0  0  0  0  0  0  0  0  0
  -22.7500   -0.6890  -37.7710 C   0  0  0  0  0  0  0  0  0  0  0  0
  -23.8660   -1.9370  -36.4550 N   0  0  0  0  0  0  0  0  0  0  0  0
  -24.1210   -0.3580  -34.4830 C   0  0  0  0  0  2  0  0  0  0  0  0
  -23.3110   -1.8970  -37.6300 N   0  0  0  0  0  0  0  0  0  0  0  0
  -23.4920    0.8960  -33.9900 C   0  0  0  0  0  2  0  0  0  0  0  0
  -22.0150   -0.2810  -39.0090 C   0  0  0  0  0  1  0  0  0  0  0  0
  1  5  1  0  0  0  0
  1  4  1  0  0  0  0
  2  1  1  0  0  0  0
  3  2  2  0  0  0  0
  5  6  1  0  0  0  0
  6  7  1  0  0  0  0
  6 12  2  0  0  0  0
  7  8  2  0  0  0  0
  8  9  1  0  0  0  0
  8 10  1  0  0  0  0
  9 11  1  0  0  0  0
 10 15  2  0  0  0  0
 11 13  2  0  0  0  0
 12  9  1  0  0  0  0
 13 14  1  0  0  0  0
 15 13  1  0  0  0  0
 16  2  1  6  0  0  0
 16 24  1  0  0  0  0
 17 16  1  0  0  0  0
 18 17  1  0  0  0  0
 18 19  1  0  0  0  0
 19 22  1  0  0  0  0
 20 23  2  0  0  0  0
 20 18  1  0  0  0  0
 21 19  2  0  0  0  0
 22 24  1  0  0  0  0
 23 21  1  0  0  0  0
 25 20  1  0  0  0  0
M  END
>  <Pose>
1

>  <Score>
-8.324

$$$$
