MODEL 1
REMARK VINA RESULT:    -8.324      0.000      0.000
REMARK INTER + INTRA:          -9.919
REMARK INTER:                  -9.784
REMARK INTRA:                  -0.135
REMARK UNBOUND:                -0.135
REMARK  3 active torsions:
REMARK  status: ('A' for Active; 'I' for Inactive)
REMARK    1  A    between atoms: C_7  and  C_9 
REMARK    2  A    between atoms: C_9  and  N_10 
REMARK       I    between atoms: N_10  and  C_11 
REMARK    3  A    between atoms: C_11  and  C_13 
ROOT
ATOM      1  N   UNK d   1     -21.123  -0.346 -33.329  0.00  0.00    -0.355 N 
ATOM      2  C   UNK d   1     -21.172   0.388 -34.524  0.00  0.00     0.223 C 
ATOM      3  O   UNK d   1     -20.266   0.257 -35.374  0.00  0.00    -0.273 OA
ATOM      4  H   UNK d   1     -21.881  -0.229 -32.630  0.00  0.00     0.162 HD
ENDROOT
BRANCH   1   5
ATOM      5  C   UNK d   1     -20.021  -1.251 -33.089  0.00  0.00     0.183 C 
BRANCH   5   6
ATOM      6  C   UNK d   1     -19.899  -1.578 -31.646  0.00  0.00     0.070 A 
ATOM      7  N   UNK d   1     -20.437  -2.623 -30.991  0.00  0.00    -0.232 NA
ATOM      8  C   UNK d   1     -20.094  -2.563 -29.692  0.00  0.00     0.134 A 
ATOM      9  N   UNK d   1     -19.329  -1.472 -29.505  0.00  0.00    -0.314 N 
ATOM     10  C   UNK d   1     -20.400  -3.403 -28.626  0.00  0.00     0.052 A 
ATOM     11  C   UNK d   1     -18.862  -1.209 -28.251  0.00  0.00     0.117 A 
ATOM     12  C   UNK d   1     -19.202  -0.860 -30.696  0.00  0.00     0.127 A 
ATOM     13  C   UNK d   1     -19.148  -2.021 -27.176  0.00  0.00     0.027 A 
ATOM     14 Br   UNK d   1     -18.489  -1.648 -25.416  0.00  0.00    -0.050 Br
ATOM     15  C   UNK d   1     -19.932  -3.140 -27.363  0.00  0.00     0.024 A 
ENDBRANCH   5   6
ENDBRANCH   1   5
BRANCH   2  16
ATOM     16  C   UNK d   1     -22.287   1.316 -34.790  0.00  0.00     0.096 C 
ATOM     17  C   UNK d   1     -22.596   1.362 -36.265  0.00  0.00     0.145 C 
ATOM     18  N   UNK d   1     -22.967   0.018 -36.662  0.00  0.00    -0.320 N 
ATOM     19  C   UNK d   1     -23.671  -0.761 -35.824  0.00  0.00     0.130 A 
ATOM     20  C   UNK d   1     -22.750  -0.689 -37.771  0.00  0.00     0.126 A 
ATOM     21  N   UNK d   1     -23.866  -1.937 -36.455  0.00  0.00    -0.135 NA
ATOM     22  C   UNK d   1     -24.121  -0.358 -34.483  0.00  0.00     0.081 C 
ATOM     23  N   UNK d   1     -23.311  -1.897 -37.630  0.00  0.00    -0.135 NA
ATOM     24  C   UNK d   1     -23.492   0.896 -33.990  0.00  0.00     0.023 C 
ATOM     25  C   UNK d   1     -22.015  -0.281 -39.009  0.00  0.00     0.093 C 
ENDBRANCH   2  16
TORSDOF 3
ENDMDL
