/Users/jonathanwahrer/Desktop/Msc/3_Semester/Drug_Design_Praktikum/waehrer_HTS_screening/HTS_experiment/out/docking_results/vina_output/5l4q/0789_docked.pdbqt
 OpenBabel03212218173D

 21 24  0  0  1  0  0  0  0  0999 V2000
  -20.0170   -2.6420  -29.7810 C   0  0  0  0  0  0  0  0  0  0  0  0
  -19.9330   -3.8930  -29.6500 O   0  0  0  0  0  0  0  0  0  0  0  0
  -20.5710   -2.1320  -30.9830 N   0  0  0  0  0  0  0  0  0  0  0  0
  -21.0190   -3.0200  -31.9920 C   0  0  0  0  0  2  0  0  0  0  0  0
  -20.9710   -2.4500  -33.3600 C   0  0  2  0  0  3  0  0  0  0  0  0
  -20.5110   -1.0940  -33.4600 N   0  0  2  0  0  0  0  0  0  0  0  0
  -21.1510   -0.2420  -32.4750 C   0  0  0  0  0  2  0  0  0  0  0  0
  -20.6530   -0.7030  -31.1190 C   0  0  0  0  0  2  0  0  0  0  0  0
  -20.7910   -0.7420  -34.8190 C   0  0  0  0  0  2  0  0  0  0  0  0
  -22.1030   -1.4090  -35.1450 C   0  0  0  0  0  2  0  0  0  0  0  0
  -22.3420   -2.3790  -34.0100 C   0  0  0  0  0  2  0  0  0  0  0  0
  -19.5430   -1.7740  -28.6940 C   0  0  0  0  0  0  0  0  0  0  0  0
  -19.2600   -0.4640  -28.6980 N   0  0  0  0  0  0  0  0  0  0  0  0
  -18.8560   -0.0450  -27.5090 N   0  0  0  0  0  0  0  0  0  0  0  0
  -18.4650    1.1610  -27.0190 C   0  0  0  0  0  3  0  0  0  0  0  0
  -18.8540   -1.0820  -26.6520 C   0  0  0  0  0  0  0  0  0  0  0  0
  -18.0830    1.3310  -25.7070 C   0  0  0  0  0  0  0  0  0  0  0  0
  -17.5340    3.0450  -25.0340 Br  0  0  0  0  0  0  0  0  0  0  0  0
  -18.0880    0.2540  -24.8480 C   0  0  0  0  0  3  0  0  0  0  0  0
  -18.4770   -0.9260  -25.3550 N   0  0  0  0  0  0  0  0  0  0  0  0
  -19.2820   -2.1710  -27.3830 C   0  0  0  0  0  3  0  0  0  0  0  0
  1  2  2  0  0  0  0
  1 12  1  0  0  0  0
  3  1  1  0  0  0  0
  4  3  1  0  0  0  0
  5 11  1  1  0  0  0
  5  4  1  0  0  0  0
  6  9  1  6  0  0  0
  6  5  1  0  0  0  0
  6  7  1  0  0  0  0
  7  8  1  0  0  0  0
  8  3  1  0  0  0  0
 10  9  1  0  0  0  0
 10 11  1  0  0  0  0
 12 21  1  0  0  0  0
 13 12  2  0  0  0  0
 13 14  1  0  0  0  0
 14 15  1  0  0  0  0
 14 16  1  0  0  0  0
 15 17  2  0  0  0  0
 16 20  1  0  0  0  0
 17 18  1  0  0  0  0
 17 19  1  0  0  0  0
 20 19  2  0  0  0  0
 21 16  2  0  0  0  0
M  END
>  <Pose>
1

>  <Score>
-7.972

$$$$
