MODEL 1
REMARK VINA RESULT:    -7.972      0.000      0.000
REMARK INTER + INTRA:          -8.021
REMARK INTER:                  -8.438
REMARK INTRA:                   0.417
REMARK UNBOUND:                 0.417
REMARK  1 active torsions:
REMARK  status: ('A' for Active; 'I' for Inactive)
REMARK    1  A    between atoms: C_6  and  C_11 
REMARK       I    between atoms: C_11  and  N_13 
ROOT
ATOM      1  C   UNK d   1     -20.017  -2.642 -29.781  0.00  0.00     0.274 C 
ATOM      2  O   UNK d   1     -19.933  -3.893 -29.650  0.00  0.00    -0.266 OA
ATOM      3  N   UNK d   1     -20.571  -2.132 -30.983  0.00  0.00    -0.343 N 
ATOM      4  C   UNK d   1     -21.019  -3.020 -31.992  0.00  0.00     0.161 C 
ATOM      5  C   UNK d   1     -20.971  -2.450 -33.360  0.00  0.00     0.241 C 
ATOM      6  N   UNK d   1     -20.511  -1.094 -33.460  0.00  0.00     0.096 N 
ATOM      7  C   UNK d   1     -21.151  -0.242 -32.475  0.00  0.00     0.292 C 
ATOM      8  C   UNK d   1     -20.653  -0.703 -31.119  0.00  0.00     0.156 C 
ATOM      9  C   UNK d   1     -20.791  -0.742 -34.819  0.00  0.00     0.273 C 
ATOM     10  C   UNK d   1     -22.103  -1.409 -35.145  0.00  0.00     0.032 C 
ATOM     11  C   UNK d   1     -22.342  -2.379 -34.010  0.00  0.00     0.039 C 
ENDROOT
BRANCH   1  12
ATOM     12  C   UNK d   1     -19.543  -1.774 -28.694  0.00  0.00     0.148 A 
ATOM     13  N   UNK d   1     -19.260  -0.464 -28.698  0.00  0.00    -0.161 NA
ATOM     14  N   UNK d   1     -18.856  -0.045 -27.509  0.00  0.00    -0.225 N 
ATOM     15  C   UNK d   1     -18.465   1.161 -27.019  0.00  0.00     0.141 A 
ATOM     16  C   UNK d   1     -18.854  -1.082 -26.652  0.00  0.00     0.152 A 
ATOM     17  C   UNK d   1     -18.083   1.331 -25.707  0.00  0.00     0.046 A 
ATOM     18 Br   UNK d   1     -17.534   3.045 -25.034  0.00  0.00    -0.048 Br
ATOM     19  C   UNK d   1     -18.088   0.254 -24.848  0.00  0.00     0.139 A 
ATOM     20  N   UNK d   1     -18.477  -0.926 -25.355  0.00  0.00    -0.240 NA
ATOM     21  C   UNK d   1     -19.282  -2.171 -27.383  0.00  0.00     0.091 A 
ENDBRANCH   1  12
TORSDOF 1
ENDMDL
