MODEL 1
REMARK VINA RESULT:    -7.968      0.000      0.000
REMARK INTER + INTRA:          -9.192
REMARK INTER:                  -8.900
REMARK INTRA:                  -0.293
REMARK UNBOUND:                -0.293
REMARK  2 active torsions:
REMARK  status: ('A' for Active; 'I' for Inactive)
REMARK    1  A    between atoms: C_7  and  C_11 
REMARK       I    between atoms: C_11  and  N_13 
REMARK       I    between atoms: N_16  and  C_19 
REMARK    2  A    between atoms: C_19  and  C_21 
ROOT
ATOM      1  C   UNK d   1     -20.681  -2.059 -32.633  0.00  0.00     0.259 C 
ATOM      2  O   UNK d   1     -20.565  -3.270 -32.978  0.00  0.00    -0.267 OA
ATOM      3  N   UNK d   1     -21.576  -1.190 -33.308  0.00  0.00    -0.345 N 
ATOM      4  C   UNK d   1     -21.649   0.203 -32.841  0.00  0.00     0.146 C 
ATOM      5  C   UNK d   1     -22.110   0.981 -34.074  0.00  0.00     0.145 C 
ATOM      6  N   UNK d   1     -21.438   0.382 -35.188  0.00  0.00    -0.354 N 
ATOM      7  C   UNK d   1     -22.150  -0.829 -35.693  0.00  0.00     0.145 C 
ATOM      8  C   UNK d   1     -22.397  -1.645 -34.421  0.00  0.00     0.146 C 
ATOM      9  C   UNK d   1     -20.245   0.758 -35.783  0.00  0.00     0.211 C 
ATOM     10  O   UNK d   1     -19.861   0.073 -36.820  0.00  0.00    -0.169 OA
ENDROOT
BRANCH   1  11
ATOM     11  C   UNK d   1     -19.876  -1.590 -31.531  0.00  0.00     0.099 A 
ATOM     12  C   UNK d   1     -18.912  -0.610 -31.515  0.00  0.00     0.160 A 
ATOM     13  N   UNK d   1     -18.413  -0.498 -30.273  0.00  0.00    -0.178 NA
ATOM     14  N   UNK d   1     -19.036  -1.384 -29.495  0.00  0.00    -0.225 N 
ATOM     15  C   UNK d   1     -18.911  -1.669 -28.205  0.00  0.00     0.141 A 
ATOM     16  C   UNK d   1     -19.934  -2.067 -30.226  0.00  0.00     0.167 A 
ATOM     17  C   UNK d   1     -19.671  -2.633 -27.621  0.00  0.00     0.046 A 
ATOM     18 Br   UNK d   1     -19.484  -3.035 -25.769  0.00  0.00    -0.048 Br
ATOM     19  C   UNK d   1     -20.583  -3.325 -28.369  0.00  0.00     0.139 A 
ATOM     20  N   UNK d   1     -20.692  -3.022 -29.665  0.00  0.00    -0.239 NA
ENDBRANCH   1  11
BRANCH   9  21
ATOM     21  C   UNK d   1     -19.324   1.824 -35.426  0.00  0.00     0.128 A 
ATOM     22  O   UNK d   1     -18.780   1.983 -34.212  0.00  0.00    -0.318 OA
ATOM     23  C   UNK d   1     -18.000   3.007 -34.161  0.00  0.00     0.142 A 
ATOM     24  C   UNK d   1     -17.972   3.621 -35.388  0.00  0.00     0.027 A 
ATOM     25  C   UNK d   1     -18.818   2.857 -36.177  0.00  0.00     0.043 A 
ENDBRANCH   9  21
TORSDOF 2
ENDMDL
