/Users/jonathanwahrer/Desktop/Msc/3_Semester/Drug_Design_Praktikum/waehrer_HTS_screening/HTS_experiment/out/docking_results/vina_output/5l4q/0797_docked.pdbqt
 OpenBabel03212218183D

 28 31  0  0  0  0  0  0  0  0999 V2000
  -21.5960   -0.9660  -34.1930 O   0  0  0  0  0  0  0  0  0  0  0  0
  -20.2870   -1.3890  -33.9170 C   0  0  0  0  0  2  0  0  0  0  0  0
  -20.0030   -1.5430  -32.4660 C   0  0  0  0  0  0  0  0  0  0  0  0
  -20.5560   -2.5400  -31.7350 N   0  0  0  0  0  0  0  0  0  0  0  0
  -20.3130   -2.7040  -30.4240 C   0  0  0  0  0  0  0  0  0  0  0  0
  -19.4980   -1.8840  -29.7360 N   0  0  0  0  0  0  0  0  0  0  0  0
  -20.9010   -3.7450  -29.7010 C   0  0  0  0  0  3  0  0  0  0  0  0
  -19.2650   -2.0630  -28.4180 C   0  0  0  0  0  3  0  0  0  0  0  0
  -18.9230   -0.8750  -30.4230 C   0  0  0  0  0  0  0  0  0  0  0  0
  -19.8300   -3.0800  -27.6800 C   0  0  0  0  0  0  0  0  0  0  0  0
  -19.4650   -3.2880  -25.8090 Br  0  0  0  0  0  0  0  0  0  0  0  0
  -20.6710   -3.9370  -28.3560 C   0  0  0  0  0  3  0  0  0  0  0  0
  -19.1640   -0.6890  -31.7820 C   0  0  0  0  0  3  0  0  0  0  0  0
  -18.1700   -0.1130  -29.7980 O   0  0  0  0  0  0  0  0  0  0  0  0
  -22.6130   -1.7670  -34.6690 C   0  0  0  0  0  0  0  0  0  0  0  0
  -22.5890   -2.9940  -34.4420 O   0  0  0  0  0  0  0  0  0  0  0  0
  -23.7100   -1.1390  -35.4400 C   0  0  0  0  0  2  0  0  0  0  0  0
  -23.3370   -0.9570  -36.8130 N   0  0  0  0  0  0  0  0  0  0  0  0
  -22.7130    0.1830  -37.3630 C   0  0  0  0  0  0  0  0  0  0  0  0
  -22.3610    1.2500  -36.7970 O   0  0  0  0  0  0  0  0  0  0  0  0
  -22.5110   -0.0530  -38.8090 C   0  0  0  0  0  0  0  0  0  0  0  0
  -23.0010   -1.2980  -39.0970 C   0  0  0  0  0  0  0  0  0  0  0  0
  -21.9490    0.7370  -39.7970 C   0  0  0  0  0  3  0  0  0  0  0  0
  -22.9580   -1.8100  -40.3620 C   0  0  0  0  0  3  0  0  0  0  0  0
  -23.5230   -1.8820  -37.8600 C   0  0  0  0  0  0  0  0  0  0  0  0
  -22.4060   -1.0440  -41.3610 C   0  0  0  0  0  3  0  0  0  0  0  0
  -21.9100    0.2120  -41.0700 C   0  0  0  0  0  3  0  0  0  0  0  0
  -24.0510   -3.0340  -37.7790 O   0  0  0  0  0  0  0  0  0  0  0  0
  1  2  1  0  0  0  0
  2  3  1  0  0  0  0
  3 13  2  0  0  0  0
  3  4  1  0  0  0  0
  4  5  2  0  0  0  0
  5  6  1  0  0  0  0
  5  7  1  0  0  0  0
  6  8  1  0  0  0  0
  7 12  2  0  0  0  0
  8 10  2  0  0  0  0
  9 14  2  0  0  0  0
  9  6  1  0  0  0  0
 10 11  1  0  0  0  0
 12 10  1  0  0  0  0
 13  9  1  0  0  0  0
 15 16  2  0  0  0  0
 15  1  1  0  0  0  0
 17 15  1  0  0  0  0
 18 17  1  0  0  0  0
 19 18  1  0  0  0  0
 19 20  2  0  0  0  0
 21 19  1  0  0  0  0
 22 21  1  0  0  0  0
 22 25  1  0  0  0  0
 23 21  2  0  0  0  0
 24 22  2  0  0  0  0
 25 28  2  0  0  0  0
 25 18  1  0  0  0  0
 26 27  2  0  0  0  0
 26 24  1  0  0  0  0
 27 23  1  0  0  0  0
M  END
>  <Pose>
1

>  <Score>
-9.307

$$$$
