MODEL 1
REMARK VINA RESULT:    -9.307      0.000      0.000
REMARK INTER + INTRA:         -12.743
REMARK INTER:                 -12.028
REMARK INTRA:                  -0.715
REMARK UNBOUND:                -0.715
REMARK  5 active torsions:
REMARK  status: ('A' for Active; 'I' for Inactive)
REMARK    1  A    between atoms: C_7  and  C_11 
REMARK    2  A    between atoms: C_11  and  O_12 
REMARK    3  A    between atoms: O_12  and  C_13 
REMARK    4  A    between atoms: C_13  and  C_15 
REMARK    5  A    between atoms: C_15  and  N_16 
ROOT
ATOM      1  O   UNK d   1     -21.596  -0.966 -34.193  0.00  0.00    -0.314 OA
ENDROOT
BRANCH   1   2
ATOM      2  C   UNK d   1     -20.287  -1.389 -33.917  0.00  0.00     0.238 C 
BRANCH   2   3
ATOM      3  C   UNK d   1     -20.003  -1.543 -32.466  0.00  0.00     0.066 A 
ATOM      4  N   UNK d   1     -20.556  -2.540 -31.735  0.00  0.00    -0.233 NA
ATOM      5  C   UNK d   1     -20.313  -2.704 -30.424  0.00  0.00     0.137 A 
ATOM      6  N   UNK d   1     -19.498  -1.884 -29.736  0.00  0.00    -0.272 N 
ATOM      7  C   UNK d   1     -20.901  -3.745 -29.701  0.00  0.00     0.052 A 
ATOM      8  C   UNK d   1     -19.265  -2.063 -28.418  0.00  0.00     0.121 A 
ATOM      9  C   UNK d   1     -18.923  -0.875 -30.423  0.00  0.00     0.255 A 
ATOM     10  C   UNK d   1     -19.830  -3.080 -27.680  0.00  0.00     0.027 A 
ATOM     11 Br   UNK d   1     -19.465  -3.288 -25.809  0.00  0.00    -0.050 Br
ATOM     12  C   UNK d   1     -20.671  -3.937 -28.356  0.00  0.00     0.024 A 
ATOM     13  C   UNK d   1     -19.164  -0.689 -31.782  0.00  0.00     0.104 A 
ATOM     14  O   UNK d   1     -18.170  -0.113 -29.798  0.00  0.00    -0.268 OA
ENDBRANCH   2   3
ENDBRANCH   1   2
BRANCH   1  15
ATOM     15  C   UNK d   1     -22.613  -1.767 -34.669  0.00  0.00     0.277 C 
ATOM     16  O   UNK d   1     -22.589  -2.994 -34.442  0.00  0.00    -0.263 OA
BRANCH  15  17
ATOM     17  C   UNK d   1     -23.710  -1.139 -35.440  0.00  0.00     0.246 C 
BRANCH  17  18
ATOM     18  N   UNK d   1     -23.337  -0.957 -36.813  0.00  0.00    -0.271 N 
ATOM     19  C   UNK d   1     -22.713   0.183 -37.363  0.00  0.00     0.262 A 
ATOM     20  O   UNK d   1     -22.361   1.250 -36.797  0.00  0.00    -0.267 OA
ATOM     21  C   UNK d   1     -22.511  -0.053 -38.809  0.00  0.00     0.048 A 
ATOM     22  C   UNK d   1     -23.001  -1.298 -39.097  0.00  0.00     0.048 A 
ATOM     23  C   UNK d   1     -21.949   0.737 -39.797  0.00  0.00     0.018 A 
ATOM     24  C   UNK d   1     -22.958  -1.810 -40.362  0.00  0.00     0.018 A 
ATOM     25  C   UNK d   1     -23.523  -1.882 -37.860  0.00  0.00     0.262 A 
ATOM     26  C   UNK d   1     -22.406  -1.044 -41.361  0.00  0.00     0.001 A 
ATOM     27  C   UNK d   1     -21.910   0.212 -41.070  0.00  0.00     0.001 A 
ATOM     28  O   UNK d   1     -24.051  -3.034 -37.779  0.00  0.00    -0.267 OA
ENDBRANCH  17  18
ENDBRANCH  15  17
ENDBRANCH   1  15
TORSDOF 5
ENDMDL
