MODEL 1
REMARK VINA RESULT:    -8.783      0.000      0.000
REMARK INTER + INTRA:         -12.683
REMARK INTER:                 -11.864
REMARK INTRA:                  -0.819
REMARK UNBOUND:                -0.819
REMARK  6 active torsions:
REMARK  status: ('A' for Active; 'I' for Inactive)
REMARK    1  A    between atoms: C_16  and  N_17 
REMARK    2  A    between atoms: N_17  and  C_18 
REMARK    3  A    between atoms: C_19  and  C_24 
REMARK    4  A    between atoms: C_24  and  O_26 
REMARK    5  A    between atoms: O_26  and  C_27 
REMARK    6  A    between atoms: C_27  and  C_28 
ROOT
ATOM      1 Br   UNK d   1     -20.059  -4.136 -27.946  0.00  0.00    -0.046 Br
ATOM      2  C   UNK d   1     -19.664  -2.277 -27.962  0.00  0.00     0.072 A 
ATOM      3  C   UNK d   1     -19.239  -1.598 -26.874  0.00  0.00     0.141 A 
ATOM      4  N   UNK d   1     -18.877  -0.312 -26.898  0.00  0.00    -0.118 N 
ATOM      5  C   UNK d   1     -18.936   0.341 -28.059  0.00  0.00     0.716 A 
ATOM      6  N   UNK d   1     -18.580   1.655 -28.106  0.00  0.00    -0.063 NA
ATOM      7  C   UNK d   1     -18.171   2.333 -27.043  0.00  0.00     0.091 A 
ATOM      8  C   UNK d   1     -18.101   1.682 -25.832  0.00  0.00     0.062 A 
ATOM      9  C   UNK d   1     -17.690   2.336 -24.688  0.00  0.00     0.019 A 
ATOM     10  C   UNK d   1     -17.324   3.683 -24.692  0.00  0.00     0.001 A 
ATOM     11  C   UNK d   1     -17.399   4.325 -25.909  0.00  0.00     0.002 A 
ATOM     12  C   UNK d   1     -17.810   3.673 -27.059  0.00  0.00     0.033 A 
ATOM     13  C   UNK d   1     -18.468   0.342 -25.805  0.00  0.00     0.278 A 
ATOM     14  O   UNK d   1     -18.410  -0.262 -24.711  0.00  0.00    -0.266 OA
ATOM     15  N   UNK d   1     -19.359  -0.317 -29.163  0.00  0.00    -0.173 N 
ATOM     16  C   UNK d   1     -19.736  -1.588 -29.218  0.00  0.00     0.140 A 
ATOM     17  H   UNK d   1     -19.360   0.317 -30.027  0.00  0.00     0.186 HD
ENDROOT
BRANCH  16  18
ATOM     18  N   UNK d   1     -20.267  -2.281 -30.259  0.00  0.00    -0.340 N 
ATOM     19  H   UNK d   1     -19.029  -2.572 -30.759  0.00  0.00     0.167 HD
BRANCH  18  20
ATOM     20  C   UNK d   1     -20.791  -2.965 -31.284  0.00  0.00     0.050 A 
ATOM     21  C   UNK d   1     -21.171  -2.281 -32.447  0.00  0.00     0.066 A 
ATOM     22  C   UNK d   1     -21.914  -2.895 -33.401  0.00  0.00     0.020 A 
ATOM     23  C   UNK d   1     -22.303  -4.203 -33.247  0.00  0.00     0.001 A 
ATOM     24  C   UNK d   1     -21.956  -4.933 -32.131  0.00  0.00     0.002 A 
ATOM     25  C   UNK d   1     -21.205  -4.287 -31.177  0.00  0.00     0.030 A 
BRANCH  21  26
ATOM     26  C   UNK d   1     -20.666  -0.937 -32.754  0.00  0.00     0.295 C 
ATOM     27  O   UNK d   1     -19.480  -0.838 -33.159  0.00  0.00    -0.259 OA
BRANCH  26  28
ATOM     28  O   UNK d   1     -21.373   0.224 -32.632  0.00  0.00    -0.317 OA
BRANCH  28  29
ATOM     29  C   UNK d   1     -21.971   0.878 -33.735  0.00  0.00     0.178 C 
BRANCH  29  30
ATOM     30  C   UNK d   1     -23.456   1.131 -33.460  0.00  0.00     0.022 C 
ATOM     31  C   UNK d   1     -24.267   0.090 -34.195  0.00  0.00     0.007 C 
ENDBRANCH  29  30
ENDBRANCH  28  29
ENDBRANCH  26  28
ENDBRANCH  21  26
ENDBRANCH  18  20
ENDBRANCH  16  18
TORSDOF 6
ENDMDL
