/Users/jonathanwahrer/Desktop/Msc/3_Semester/Drug_Design_Praktikum/waehrer_HTS_screening/HTS_experiment/out/docking_results/vina_output/5l4q/0803_docked.pdbqt
 OpenBabel03212218183D

 31 34  0  0  0  0  0  0  0  0999 V2000
  -20.0590   -4.1360  -27.9460 Br  0  0  0  0  0  0  0  0  0  0  0  0
  -19.6640   -2.2770  -27.9620 C   0  0  0  0  0  0  0  0  0  0  0  0
  -19.2390   -1.5980  -26.8740 C   0  0  0  0  0  2  0  0  0  0  0  0
  -18.8770   -0.3120  -26.8980 N   0  0  0  0  0  0  0  0  0  0  0  0
  -18.9360    0.3410  -28.0590 C   0  0  0  0  0  0  0  0  0  0  0  0
  -18.5800    1.6550  -28.1060 N   0  0  0  0  0  0  0  0  0  0  0  0
  -18.1710    2.3330  -27.0430 C   0  0  0  0  0  0  0  0  0  0  0  0
  -18.1010    1.6820  -25.8320 C   0  0  0  0  0  0  0  0  0  0  0  0
  -17.6900    2.3360  -24.6880 C   0  0  0  0  0  3  0  0  0  0  0  0
  -17.3240    3.6830  -24.6920 C   0  0  0  0  0  3  0  0  0  0  0  0
  -17.3990    4.3250  -25.9090 C   0  0  0  0  0  3  0  0  0  0  0  0
  -17.8100    3.6730  -27.0590 C   0  0  0  0  0  3  0  0  0  0  0  0
  -18.4680    0.3420  -25.8050 C   0  0  0  0  0  0  0  0  0  0  0  0
  -18.4100   -0.2620  -24.7110 O   0  0  0  0  0  0  0  0  0  0  0  0
  -19.3590   -0.3170  -29.1630 N   0  0  0  0  0  0  0  0  0  0  0  0
  -19.7360   -1.5880  -29.2180 C   0  0  0  0  0  0  0  0  0  0  0  0
  -19.3600    0.3170  -30.0270 H   0  0  0  0  0  0  0  0  0  0  0  0
  -20.2670   -2.2810  -30.2590 N   0  0  0  0  0  0  0  0  0  0  0  0
  -19.0290   -2.5720  -30.7590 H   0  0  0  0  0  0  0  0  0  0  0  0
  -20.7910   -2.9650  -31.2840 C   0  0  0  0  0  0  0  0  0  0  0  0
  -21.1710   -2.2810  -32.4470 C   0  0  0  0  0  0  0  0  0  0  0  0
  -21.9140   -2.8950  -33.4010 C   0  0  0  0  0  3  0  0  0  0  0  0
  -22.3030   -4.2030  -33.2470 C   0  0  0  0  0  3  0  0  0  0  0  0
  -21.9560   -4.9330  -32.1310 C   0  0  0  0  0  3  0  0  0  0  0  0
  -21.2050   -4.2870  -31.1770 C   0  0  0  0  0  3  0  0  0  0  0  0
  -20.6660   -0.9370  -32.7540 C   0  0  0  0  0  0  0  0  0  0  0  0
  -19.4800   -0.8380  -33.1590 O   0  0  0  0  0  0  0  0  0  0  0  0
  -21.3730    0.2240  -32.6320 O   0  0  0  0  0  0  0  0  0  0  0  0
  -21.9710    0.8780  -33.7350 C   0  0  0  0  0  2  0  0  0  0  0  0
  -23.4560    1.1310  -33.4600 C   0  0  0  0  0  2  0  0  0  0  0  0
  -24.2670    0.0900  -34.1950 C   0  0  0  0  0  1  0  0  0  0  0  0
  2  1  1  0  0  0  0
  2  3  1  0  0  0  0
  4  3  1  0  0  0  0
  4 13  1  0  0  0  0
  5  4  1  0  0  0  0
  6  5  2  0  0  0  0
  6  7  1  0  0  0  0
  7  8  1  0  0  0  0
  8 13  1  0  0  0  0
  8  9  2  0  0  0  0
 10  9  1  0  0  0  0
 11 10  2  0  0  0  0
 12  7  2  0  0  0  0
 12 11  1  0  0  0  0
 13 14  2  0  0  0  0
 15  5  1  0  0  0  0
 16 15  1  0  0  0  0
 16  2  2  0  0  0  0
 17 15  1  0  0  0  0
 18 16  1  0  0  0  0
 19 18  1  0  0  0  0
 20 25  1  0  0  0  0
 20 18  1  0  0  0  0
 21 20  2  0  0  0  0
 22 23  2  0  0  0  0
 22 21  1  0  0  0  0
 23 24  1  0  0  0  0
 24 25  2  0  0  0  0
 26 28  1  0  0  0  0
 26 21  1  0  0  0  0
 27 26  2  0  0  0  0
 29 30  1  0  0  0  0
 29 28  1  0  0  0  0
 31 30  1  0  0  0  0
M  END
>  <Pose>
1

>  <Score>
-8.783

$$$$
