/Users/jonathanwahrer/Desktop/Msc/3_Semester/Drug_Design_Praktikum/waehrer_HTS_screening/HTS_experiment/out/docking_results/vina_output/5l4q/0833_docked.pdbqt
 OpenBabel03212218193D

 28 31  0  0  1  0  0  0  0  0999 V2000
  -19.7250    0.6000  -35.7810 C   0  0  1  0  0  0  0  0  0  0  0  0
  -21.1650    0.6770  -35.5790 N   0  0  0  0  0  0  0  0  0  0  0  0
  -21.7760    1.5820  -34.6120 C   0  0  0  0  0  2  0  0  0  0  0  0
  -23.2070    1.2850  -34.3540 C   0  0  0  0  0  2  0  0  0  0  0  0
  -23.4830   -0.1540  -34.0030 C   0  0  0  0  0  2  0  0  0  0  0  0
  -23.9150   -0.8240  -35.2940 C   0  0  0  0  0  2  0  0  0  0  0  0
  -22.9230   -0.8870  -36.3270 C   0  0  0  0  0  3  0  0  0  0  0  0
  -21.7400   -0.2430  -36.4530 C   0  0  0  0  0  0  0  0  0  0  0  0
  -20.9220   -0.4530  -37.5800 N   0  0  0  0  0  4  0  0  0  0  0  0
  -19.6850    0.1690  -37.2050 C   0  0  0  0  0  2  0  0  0  0  0  0
  -20.7370   -1.4580  -37.8010 H   0  0  0  0  0  0  0  0  0  0  0  0
  -19.0950    1.9130  -35.5360 C   0  0  0  0  0  0  0  0  0  0  0  0
  -19.0170    2.8170  -36.5990 C   0  0  0  0  0  3  0  0  0  0  0  0
  -18.3840    4.0350  -36.3480 C   0  0  0  0  0  3  0  0  0  0  0  0
  -17.8630    4.3140  -35.1060 C   0  0  0  0  0  0  0  0  0  0  0  0
  -17.0030    5.9980  -34.8050 Br  0  0  0  0  0  0  0  0  0  0  0  0
  -17.9610    3.3930  -34.0760 C   0  0  0  0  0  3  0  0  0  0  0  0
  -18.5860    2.1790  -34.3050 C   0  0  0  0  0  3  0  0  0  0  0  0
  -19.2370   -0.3290  -34.8980 O   0  0  0  0  0  0  0  0  0  0  0  0
  -19.5280   -0.1950  -33.9710 H   0  0  0  0  0  0  0  0  0  0  0  0
  -21.5630    0.2190  -38.6650 C   0  0  0  0  0  0  0  0  0  0  0  0
  -22.0250   -0.4880  -39.7620 C   0  0  0  0  0  0  0  0  0  0  0  0
  -22.5630    0.2660  -40.7970 C   0  0  0  0  0  3  0  0  0  0  0  0
  -22.6560    1.6450  -40.7870 C   0  0  0  0  0  3  0  0  0  0  0  0
  -22.1720    2.3210  -39.6470 C   0  0  0  0  0  3  0  0  0  0  0  0
  -21.6540    1.5780  -38.6490 C   0  0  0  0  0  3  0  0  0  0  0  0
  -21.9420   -1.8470  -39.7840 O   0  0  0  0  0  0  0  0  0  0  0  0
  -23.0690   -2.6570  -39.5800 C   0  0  0  0  0  1  0  0  0  0  0  0
  1  2  1  0  0  0  0
  1 12  1  0  0  0  0
  1 19  1  1  0  0  0
  2  3  1  0  0  0  0
  3  4  1  0  0  0  0
  4  5  1  0  0  0  0
  6  5  1  0  0  0  0
  7  6  1  0  0  0  0
  8  7  2  0  0  0  0
  8  2  1  0  0  0  0
  9 10  1  0  0  0  0
  9  8  1  0  0  0  0
 10  1  1  0  0  0  0
 11  9  1  0  0  0  0
 12 18  1  0  0  0  0
 13 14  1  0  0  0  0
 13 12  2  0  0  0  0
 14 15  2  0  0  0  0
 15 16  1  0  0  0  0
 15 17  1  0  0  0  0
 18 17  2  0  0  0  0
 19 20  1  0  0  0  0
 21 26  1  0  0  0  0
 21  9  1  0  0  0  0
 22 21  2  0  0  0  0
 23 24  2  0  0  0  0
 23 22  1  0  0  0  0
 24 25  1  0  0  0  0
 25 26  2  0  0  0  0
 27 22  1  0  0  0  0
 27 28  1  0  0  0  0
M  END
>  <Pose>
1

>  <Score>
-7.264

$$$$
