MODEL 1
REMARK VINA RESULT:    -7.264      0.000      0.000
REMARK INTER + INTRA:          -9.602
REMARK INTER:                  -8.751
REMARK INTRA:                  -0.851
REMARK UNBOUND:                -0.851
REMARK  4 active torsions:
REMARK  status: ('A' for Active; 'I' for Inactive)
REMARK    1  A    between atoms: C_5  and  C_8 
REMARK    2  A    between atoms: C_8  and  O_26 
REMARK    3  A    between atoms: N_16  and  C_18 
REMARK    4  A    between atoms: C_19  and  O_24 
ROOT
ATOM      1  C   UNK d   1     -19.725   0.600 -35.781  0.00  0.00     0.189 C 
ATOM      2  N   UNK d   1     -21.165   0.677 -35.579  0.00  0.00    -0.324 N 
ATOM      3  C   UNK d   1     -21.776   1.582 -34.612  0.00  0.00     0.128 C 
ATOM      4  C   UNK d   1     -23.207   1.285 -34.354  0.00  0.00     0.020 C 
ATOM      5  C   UNK d   1     -23.483  -0.154 -34.003  0.00  0.00     0.005 C 
ATOM      6  C   UNK d   1     -23.915  -0.824 -35.294  0.00  0.00     0.031 C 
ATOM      7  C   UNK d   1     -22.923  -0.887 -36.327  0.00  0.00     0.030 C 
ATOM      8  C   UNK d   1     -21.740  -0.243 -36.453  0.00  0.00     0.208 C 
ATOM      9  N   UNK d   1     -20.922  -0.453 -37.580  0.00  0.00     0.011 N 
ATOM     10  C   UNK d   1     -19.685   0.169 -37.205  0.00  0.00     0.316 C 
ATOM     11  H   UNK d   1     -20.737  -1.458 -37.801  0.00  0.00     0.295 HD
ENDROOT
BRANCH   1  12
ATOM     12  C   UNK d   1     -19.095   1.913 -35.536  0.00  0.00    -0.001 A 
ATOM     13  C   UNK d   1     -19.017   2.817 -36.599  0.00  0.00     0.013 A 
ATOM     14  C   UNK d   1     -18.384   4.035 -36.348  0.00  0.00     0.020 A 
ATOM     15  C   UNK d   1     -17.863   4.314 -35.106  0.00  0.00     0.011 A 
ATOM     16 Br   UNK d   1     -17.003   5.998 -34.805  0.00  0.00    -0.051 Br
ATOM     17  C   UNK d   1     -17.961   3.393 -34.076  0.00  0.00     0.020 A 
ATOM     18  C   UNK d   1     -18.586   2.179 -34.305  0.00  0.00     0.013 A 
ENDBRANCH   1  12
BRANCH   1  19
ATOM     19  O   UNK d   1     -19.237  -0.329 -34.898  0.00  0.00    -0.365 OA
ATOM     20  H   UNK d   1     -19.528  -0.195 -33.971  0.00  0.00     0.213 HD
ENDBRANCH   1  19
BRANCH   9  21
ATOM     21  C   UNK d   1     -21.563   0.219 -38.665  0.00  0.00     0.175 A 
ATOM     22  C   UNK d   1     -22.025  -0.488 -39.762  0.00  0.00     0.103 A 
ATOM     23  C   UNK d   1     -22.563   0.266 -40.797  0.00  0.00     0.039 A 
ATOM     24  C   UNK d   1     -22.656   1.645 -40.787  0.00  0.00     0.003 A 
ATOM     25  C   UNK d   1     -22.172   2.321 -39.647  0.00  0.00     0.002 A 
ATOM     26  C   UNK d   1     -21.654   1.578 -38.649  0.00  0.00     0.041 A 
BRANCH  22  27
ATOM     27  O   UNK d   1     -21.942  -1.847 -39.784  0.00  0.00    -0.354 OA
ATOM     28  C   UNK d   1     -23.069  -2.657 -39.580  0.00  0.00     0.210 C 
ENDBRANCH  22  27
ENDBRANCH   9  21
TORSDOF 4
ENDMDL
