MODEL 1
REMARK VINA RESULT:    -8.215      0.000      0.000
REMARK INTER + INTRA:         -10.494
REMARK INTER:                  -9.896
REMARK INTRA:                  -0.598
REMARK UNBOUND:                -0.598
REMARK  4 active torsions:
REMARK  status: ('A' for Active; 'I' for Inactive)
REMARK    1  A    between atoms: C_5  and  C_8 
REMARK    2  A    between atoms: C_8  and  O_26 
REMARK    3  A    between atoms: N_16  and  C_18 
REMARK    4  A    between atoms: C_21  and  O_24 
ROOT
ATOM      1  C   UNK d   1     -21.339  -0.624 -34.035  0.00  0.00     0.189 C 
ATOM      2  N   UNK d   1     -20.702   0.503 -34.637  0.00  0.00    -0.324 N 
ATOM      3  C   UNK d   1     -19.303   0.714 -34.848  0.00  0.00     0.128 C 
ATOM      4  C   UNK d   1     -18.752   2.040 -34.489  0.00  0.00     0.020 C 
ATOM      5  C   UNK d   1     -19.706   3.060 -33.984  0.00  0.00     0.005 C 
ATOM      6  C   UNK d   1     -20.604   3.611 -35.092  0.00  0.00     0.031 C 
ATOM      7  C   UNK d   1     -21.768   2.678 -35.200  0.00  0.00     0.030 C 
ATOM      8  C   UNK d   1     -21.807   1.371 -35.007  0.00  0.00     0.208 C 
ATOM      9  N   UNK d   1     -22.985   0.582 -35.122  0.00  0.00     0.009 N 
ATOM     10  C   UNK d   1     -22.831  -0.279 -33.988  0.00  0.00     0.316 C 
ATOM     11  H   UNK d   1     -23.811   1.225 -35.031  0.00  0.00     0.295 HD
ENDROOT
BRANCH   1  12
ATOM     12  C   UNK d   1     -20.990  -0.951 -32.654  0.00  0.00    -0.001 A 
ATOM     13  C   UNK d   1     -20.690  -0.101 -31.643  0.00  0.00     0.013 A 
ATOM     14  C   UNK d   1     -20.376  -0.549 -30.366  0.00  0.00     0.020 A 
ATOM     15  C   UNK d   1     -20.363  -1.900 -30.088  0.00  0.00     0.011 A 
ATOM     16 Br   UNK d   1     -19.939  -2.545 -28.338  0.00  0.00    -0.051 Br
ATOM     17  C   UNK d   1     -20.667  -2.765 -31.112  0.00  0.00     0.020 A 
ATOM     18  C   UNK d   1     -20.979  -2.334 -32.375  0.00  0.00     0.013 A 
ENDBRANCH   1  12
BRANCH   1  19
ATOM     19  O   UNK d   1     -21.142  -1.808 -34.772  0.00  0.00    -0.365 OA
ATOM     20  H   UNK d   1     -21.943  -2.362 -34.584  0.00  0.00     0.213 HD
ENDBRANCH   1  19
BRANCH   9  21
ATOM     21  C   UNK d   1     -22.967  -0.096 -36.351  0.00  0.00     0.142 A 
ATOM     22  C   UNK d   1     -23.778  -1.227 -36.562  0.00  0.00     0.040 A 
ATOM     23  C   UNK d   1     -23.780  -1.912 -37.747  0.00  0.00     0.039 A 
ATOM     24  C   UNK d   1     -22.978  -1.515 -38.796  0.00  0.00     0.068 A 
ATOM     25  C   UNK d   1     -22.180  -0.415 -38.615  0.00  0.00     0.039 A 
ATOM     26  C   UNK d   1     -22.177   0.275 -37.420  0.00  0.00     0.040 A 
BRANCH  24  27
ATOM     27  O   UNK d   1     -22.988  -2.225 -40.011  0.00  0.00    -0.356 OA
ATOM     28  C   UNK d   1     -23.813  -3.350 -40.160  0.00  0.00     0.210 C 
ENDBRANCH  24  27
ENDBRANCH   9  21
TORSDOF 4
ENDMDL
