MODEL 1
REMARK VINA RESULT:    -7.759      0.000      0.000
REMARK INTER + INTRA:          -9.042
REMARK INTER:                  -9.346
REMARK INTRA:                   0.305
REMARK UNBOUND:                 0.305
REMARK  4 active torsions:
REMARK  status: ('A' for Active; 'I' for Inactive)
REMARK    1  A    between atoms: C_5  and  C_8 
REMARK    2  A    between atoms: C_8  and  O_25 
REMARK    3  A    between atoms: N_15  and  C_17 
REMARK    4  A    between atoms: C_18  and  O_23 
ROOT
ATOM      1  C   UNK d   1     -20.215  -1.052 -30.819  0.00  0.00     0.189 C 
ATOM      2  N   UNK d   1     -20.754  -2.381 -31.014  0.00  0.00    -0.324 N 
ATOM      3  C   UNK d   1     -21.378  -3.413 -30.212  0.00  0.00     0.128 C 
ATOM      4  C   UNK d   1     -22.436  -4.175 -30.983  0.00  0.00     0.024 C 
ATOM      5  C   UNK d   1     -21.794  -4.774 -32.190  0.00  0.00     0.032 C 
ATOM      6  C   UNK d   1     -21.033  -3.767 -32.959  0.00  0.00     0.030 C 
ATOM      7  C   UNK d   1     -20.552  -2.654 -32.399  0.00  0.00     0.208 C 
ATOM      8  N   UNK d   1     -19.794  -1.635 -33.013  0.00  0.00     0.011 N 
ATOM      9  C   UNK d   1     -19.132  -0.994 -31.858  0.00  0.00     0.316 C 
ATOM     10  H   UNK d   1     -18.959  -2.048 -33.546  0.00  0.00     0.295 HD
ENDROOT
BRANCH   1  11
ATOM     11  C   UNK d   1     -19.691  -0.830 -29.449  0.00  0.00    -0.001 A 
ATOM     12  C   UNK d   1     -19.730   0.431 -28.894  0.00  0.00     0.013 A 
ATOM     13  C   UNK d   1     -19.262   0.702 -27.609  0.00  0.00     0.020 A 
ATOM     14  C   UNK d   1     -18.739  -0.331 -26.863  0.00  0.00     0.011 A 
ATOM     15 Br   UNK d   1     -18.083   0.028 -25.094  0.00  0.00    -0.051 Br
ATOM     16  C   UNK d   1     -18.692  -1.597 -27.405  0.00  0.00     0.020 A 
ATOM     17  C   UNK d   1     -19.161  -1.849 -28.681  0.00  0.00     0.013 A 
ENDBRANCH   1  11
BRANCH   1  18
ATOM     18  O   UNK d   1     -21.138  -0.051 -31.102  0.00  0.00    -0.365 OA
ATOM     19  H   UNK d   1     -22.021  -0.394 -30.825  0.00  0.00     0.213 HD
ENDBRANCH   1  18
BRANCH   8  20
ATOM     20  C   UNK d   1     -20.484  -0.702 -33.779  0.00  0.00     0.175 A 
ATOM     21  C   UNK d   1     -19.914   0.440 -34.284  0.00  0.00     0.103 A 
ATOM     22  C   UNK d   1     -20.673   1.344 -35.030  0.00  0.00     0.039 A 
ATOM     23  C   UNK d   1     -22.002   1.114 -35.274  0.00  0.00     0.003 A 
ATOM     24  C   UNK d   1     -22.583  -0.031 -34.773  0.00  0.00     0.002 A 
ATOM     25  C   UNK d   1     -21.832  -0.916 -34.041  0.00  0.00     0.041 A 
BRANCH  21  26
ATOM     26  O   UNK d   1     -18.583   0.750 -34.088  0.00  0.00    -0.354 OA
ATOM     27  C   UNK d   1     -18.150   2.068 -34.034  0.00  0.00     0.210 C 
ENDBRANCH  21  26
ENDBRANCH   8  20
TORSDOF 4
ENDMDL
