/Users/jonathanwahrer/Desktop/Msc/3_Semester/Drug_Design_Praktikum/waehrer_HTS_screening/HTS_experiment/out/docking_results/vina_output/5l4q/0836_docked.pdbqt
 OpenBabel03212218193D

 27 30  0  0  1  0  0  0  0  0999 V2000
  -22.0120    0.8500  -35.9300 C   0  0  2  0  0  0  0  0  0  0  0  0
  -20.6080    0.7940  -35.6050 N   0  0  0  0  0  0  0  0  0  0  0  0
  -19.3870    0.4310  -36.3110 C   0  0  0  0  0  2  0  0  0  0  0  0
  -18.1710    1.1410  -35.8590 C   0  0  0  0  0  2  0  0  0  0  0  0
  -18.3860    2.2160  -34.8230 C   0  0  0  0  0  2  0  0  0  0  0  0
  -19.4440    1.8940  -33.8700 C   0  0  0  0  0  3  0  0  0  0  0  0
  -20.5070    1.2110  -34.2520 C   0  0  0  0  0  0  0  0  0  0  0  0
  -21.6700    0.7590  -33.5650 N   0  0  0  0  0  4  0  0  0  0  0  0
  -22.6690    0.6550  -34.5830 C   0  0  0  0  0  2  0  0  0  0  0  0
  -21.9240    1.5140  -32.8730 H   0  0  0  0  0  0  0  0  0  0  0  0
  -22.4510   -0.1230  -36.9280 C   0  0  0  0  0  0  0  0  0  0  0  0
  -23.2190   -1.2060  -36.5560 C   0  0  0  0  0  3  0  0  0  0  0  0
  -23.6610   -2.1550  -37.4540 C   0  0  0  0  0  3  0  0  0  0  0  0
  -23.3470   -2.0620  -38.7970 C   0  0  0  0  0  0  0  0  0  0  0  0
  -23.9430   -3.3640  -40.0580 Br  0  0  0  0  0  0  0  0  0  0  0  0
  -22.5800   -0.9860  -39.1870 C   0  0  0  0  0  3  0  0  0  0  0  0
  -22.1410   -0.0390  -38.2800 C   0  0  0  0  0  3  0  0  0  0  0  0
  -22.2670    2.1420  -36.4320 O   0  0  0  0  0  0  0  0  0  0  0  0
  -21.3800    2.5470  -36.5950 H   0  0  0  0  0  0  0  0  0  0  0  0
  -21.3710   -0.4200  -32.8940 C   0  0  0  0  0  0  0  0  0  0  0  0
  -20.7660   -0.3920  -31.6600 C   0  0  0  0  0  3  0  0  0  0  0  0
  -20.4640   -1.5850  -30.9840 C   0  0  0  0  0  3  0  0  0  0  0  0
  -20.7570   -2.8080  -31.5200 C   0  0  0  0  0  0  0  0  0  0  0  0
  -21.3760   -2.8330  -32.7840 C   0  0  0  0  0  3  0  0  0  0  0  0
  -21.6600   -1.6430  -33.4220 C   0  0  0  0  0  3  0  0  0  0  0  0
  -20.4860   -4.0290  -30.9060 O   0  0  0  0  0  0  0  0  0  0  0  0
  -20.4010   -4.2650  -29.5380 C   0  0  0  0  0  1  0  0  0  0  0  0
  1 18  1  6  0  0  0
  1  2  1  0  0  0  0
  1  9  1  0  0  0  0
  2  7  1  0  0  0  0
  3  4  1  0  0  0  0
  3  2  1  0  0  0  0
  4  5  1  0  0  0  0
  5  6  1  0  0  0  0
  7  6  2  0  0  0  0
  7  8  1  0  0  0  0
  8 20  1  0  0  0  0
  8 10  1  0  0  0  0
  9  8  1  0  0  0  0
 11 12  1  0  0  0  0
 11  1  1  0  0  0  0
 13 12  2  0  0  0  0
 14 13  1  0  0  0  0
 15 14  1  0  0  0  0
 16 14  2  0  0  0  0
 16 17  1  0  0  0  0
 17 11  2  0  0  0  0
 19 18  1  0  0  0  0
 20 21  1  0  0  0  0
 21 22  2  0  0  0  0
 23 22  1  0  0  0  0
 23 26  1  0  0  0  0
 24 23  2  0  0  0  0
 25 20  2  0  0  0  0
 25 24  1  0  0  0  0
 26 27  1  0  0  0  0
M  END
>  <Pose>
1

>  <Score>
-7.621

$$$$
