MODEL 1
REMARK VINA RESULT:    -7.621      0.000      0.000
REMARK INTER + INTRA:          -9.940
REMARK INTER:                  -9.180
REMARK INTRA:                  -0.759
REMARK UNBOUND:                -0.759
REMARK  4 active torsions:
REMARK  status: ('A' for Active; 'I' for Inactive)
REMARK    1  A    between atoms: C_5  and  C_8 
REMARK    2  A    between atoms: C_8  and  O_25 
REMARK    3  A    between atoms: N_15  and  C_17 
REMARK    4  A    between atoms: C_20  and  O_23 
ROOT
ATOM      1  C   UNK d   1     -22.012   0.850 -35.930  0.00  0.00     0.189 C 
ATOM      2  N   UNK d   1     -20.608   0.794 -35.605  0.00  0.00    -0.324 N 
ATOM      3  C   UNK d   1     -19.387   0.431 -36.311  0.00  0.00     0.128 C 
ATOM      4  C   UNK d   1     -18.171   1.141 -35.859  0.00  0.00     0.024 C 
ATOM      5  C   UNK d   1     -18.386   2.216 -34.823  0.00  0.00     0.032 C 
ATOM      6  C   UNK d   1     -19.444   1.894 -33.870  0.00  0.00     0.030 C 
ATOM      7  C   UNK d   1     -20.507   1.211 -34.252  0.00  0.00     0.208 C 
ATOM      8  N   UNK d   1     -21.670   0.759 -33.565  0.00  0.00     0.009 N 
ATOM      9  C   UNK d   1     -22.669   0.655 -34.583  0.00  0.00     0.316 C 
ATOM     10  H   UNK d   1     -21.924   1.514 -32.873  0.00  0.00     0.295 HD
ENDROOT
BRANCH   1  11
ATOM     11  C   UNK d   1     -22.451  -0.123 -36.928  0.00  0.00    -0.001 A 
ATOM     12  C   UNK d   1     -23.219  -1.206 -36.556  0.00  0.00     0.013 A 
ATOM     13  C   UNK d   1     -23.661  -2.155 -37.454  0.00  0.00     0.020 A 
ATOM     14  C   UNK d   1     -23.347  -2.062 -38.797  0.00  0.00     0.011 A 
ATOM     15 Br   UNK d   1     -23.943  -3.364 -40.058  0.00  0.00    -0.051 Br
ATOM     16  C   UNK d   1     -22.580  -0.986 -39.187  0.00  0.00     0.020 A 
ATOM     17  C   UNK d   1     -22.141  -0.039 -38.280  0.00  0.00     0.013 A 
ENDBRANCH   1  11
BRANCH   1  18
ATOM     18  O   UNK d   1     -22.267   2.142 -36.432  0.00  0.00    -0.365 OA
ATOM     19  H   UNK d   1     -21.380   2.547 -36.595  0.00  0.00     0.213 HD
ENDBRANCH   1  18
BRANCH   8  20
ATOM     20  C   UNK d   1     -21.371  -0.420 -32.894  0.00  0.00     0.142 A 
ATOM     21  C   UNK d   1     -20.766  -0.392 -31.660  0.00  0.00     0.040 A 
ATOM     22  C   UNK d   1     -20.464  -1.585 -30.984  0.00  0.00     0.039 A 
ATOM     23  C   UNK d   1     -20.757  -2.808 -31.520  0.00  0.00     0.068 A 
ATOM     24  C   UNK d   1     -21.376  -2.833 -32.784  0.00  0.00     0.039 A 
ATOM     25  C   UNK d   1     -21.660  -1.643 -33.422  0.00  0.00     0.040 A 
BRANCH  23  26
ATOM     26  O   UNK d   1     -20.486  -4.029 -30.906  0.00  0.00    -0.356 OA
ATOM     27  C   UNK d   1     -20.401  -4.265 -29.538  0.00  0.00     0.210 C 
ENDBRANCH  23  26
ENDBRANCH   8  20
TORSDOF 4
ENDMDL
