MODEL 1
REMARK VINA RESULT:    -7.812      0.000      0.000
REMARK INTER + INTRA:          -9.968
REMARK INTER:                  -9.867
REMARK INTRA:                  -0.100
REMARK UNBOUND:                -0.100
REMARK  5 active torsions:
REMARK  status: ('A' for Active; 'I' for Inactive)
REMARK    1  A    between atoms: C_5  and  N_8 
REMARK    2  A    between atoms: C_9  and  O_18 
REMARK    3  A    between atoms: C_9  and  C_19 
REMARK    4  A    between atoms: C_22  and  O_25 
REMARK    5  A    between atoms: O_25  and  C_26 
ROOT
ATOM      1  N   UNK d   1     -20.294   1.187 -33.532  0.00  0.00     0.042 N 
ATOM      2  C   UNK d   1     -19.521  -0.010 -33.675  0.00  0.00     0.283 C 
ATOM      3  C   UNK d   1     -19.988  -0.459 -35.059  0.00  0.00     0.200 C 
ATOM      4  N   UNK d   1     -21.426  -0.148 -35.037  0.00  0.00    -0.356 N 
ATOM      5  C   UNK d   1     -22.319  -0.760 -35.956  0.00  0.00     0.124 C 
ATOM      6  C   UNK d   1     -23.761  -0.394 -35.776  0.00  0.00     0.020 C 
ATOM      7  C   UNK d   1     -24.142  -0.563 -34.331  0.00  0.00     0.005 C 
ATOM      8  C   UNK d   1     -24.100   0.853 -33.738  0.00  0.00     0.031 C 
ATOM      9  C   UNK d   1     -22.700   1.181 -33.405  0.00  0.00     0.030 C 
ATOM     10  C   UNK d   1     -21.581   0.780 -33.964  0.00  0.00     0.210 C 
ATOM     11  H   UNK d   1     -20.270   1.447 -32.496  0.00  0.00     0.299 HD
ENDROOT
BRANCH   2  12
ATOM     12  O   UNK d   1     -18.175   0.085 -33.515  0.00  0.00    -0.359 OA
ATOM     13  H   UNK d   1     -17.884   0.938 -33.144  0.00  0.00     0.213 HD
ENDBRANCH   2  12
BRANCH   2  14
ATOM     14  C   UNK d   1     -19.979  -1.083 -32.746  0.00  0.00     0.007 A 
ATOM     15  C   UNK d   1     -20.366  -2.334 -33.123  0.00  0.00     0.015 A 
ATOM     16  C   UNK d   1     -20.783  -3.308 -32.191  0.00  0.00     0.037 A 
ATOM     17  C   UNK d   1     -20.815  -3.026 -30.846  0.00  0.00     0.068 A 
ATOM     18  C   UNK d   1     -20.427  -1.767 -30.454  0.00  0.00     0.037 A 
ATOM     19  C   UNK d   1     -20.022  -0.821 -31.367  0.00  0.00     0.015 A 
BRANCH  17  20
ATOM     20  O   UNK d   1     -21.224  -3.989 -29.909  0.00  0.00    -0.352 OA
BRANCH  20  21
ATOM     21  C   UNK d   1     -20.362  -5.019 -29.486  0.00  0.00     0.171 C 
ATOM     22  C   UNK d   1     -20.359  -5.191 -28.000  0.00  0.00     0.034 C 
ENDBRANCH  20  21
ENDBRANCH  17  20
ENDBRANCH   2  14
BRANCH   1  23
ATOM     23  C   UNK d   1     -19.867   2.317 -34.197  0.00  0.00     0.146 A 
ATOM     24  C   UNK d   1     -18.823   3.070 -33.665  0.00  0.00     0.039 A 
ATOM     25  C   UNK d   1     -18.330   4.202 -34.297  0.00  0.00     0.021 A 
ATOM     26  C   UNK d   1     -18.862   4.629 -35.493  0.00  0.00     0.011 A 
ATOM     27 Br   UNK d   1     -18.180   6.178 -36.393  0.00  0.00    -0.051 Br
ATOM     28  C   UNK d   1     -19.883   3.914 -36.038  0.00  0.00     0.021 A 
ATOM     29  C   UNK d   1     -20.359   2.782 -35.381  0.00  0.00     0.039 A 
ENDBRANCH   1  23
TORSDOF 5
ENDMDL
