/Users/jonathanwahrer/Desktop/Msc/3_Semester/Drug_Design_Praktikum/waehrer_HTS_screening/HTS_experiment/out/docking_results/vina_output/5l4q/0865_docked.pdbqt
 OpenBabel03212218213D

 30 33  0  0  0  0  0  0  0  0999 V2000
  -22.2690   -2.1050  -34.3390 C   0  0  0  0  0  0  0  0  0  0  0  0
  -22.7040   -2.2800  -35.6060 N   0  0  0  0  0  4  0  0  0  0  0  0
  -22.7110   -1.2830  -36.5250 C   0  0  0  0  0  0  0  0  0  0  0  0
  -22.2630   -0.0950  -36.1170 N   0  0  0  0  0  0  0  0  0  0  0  0
  -21.8160    0.1530  -34.8740 C   0  0  0  0  0  0  0  0  0  0  0  0
  -21.8330   -0.8760  -34.0090 N   0  0  0  0  0  2  0  0  0  0  0  0
  -22.2890   -3.1890  -33.4330 N   0  0  0  0  0  0  0  0  0  0  0  0
  -22.6370   -4.1080  -33.7520 H   0  0  0  0  0  0  0  0  0  0  0  0
  -21.8490   -3.0300  -32.1260 N   0  0  0  0  0  0  0  0  0  0  0  0
  -21.1070   -3.8800  -31.5120 C   0  0  0  0  0  3  0  0  0  0  0  0
  -20.6830   -3.6440  -30.1380 C   0  0  0  0  0  0  0  0  0  0  0  0
  -20.3460   -2.3820  -29.6770 C   0  0  0  0  0  3  0  0  0  0  0  0
  -19.9460   -2.1640  -28.3750 C   0  0  0  0  0  0  0  0  0  0  0  0
  -19.8660   -3.2060  -27.4750 C   0  0  0  0  0  0  0  0  0  0  0  0
  -19.4860   -0.4130  -27.7660 Br  0  0  0  0  0  0  0  0  0  0  0  0
  -19.4740   -3.0120  -26.1860 F   0  0  0  0  0  0  0  0  0  0  0  0
  -20.1980   -4.4640  -27.9210 C   0  0  0  0  0  3  0  0  0  0  0  0
  -20.6000   -4.6800  -29.2320 C   0  0  0  0  0  3  0  0  0  0  0  0
  -23.1800   -1.5250  -37.8470 N   0  0  0  0  0  0  0  0  0  0  0  0
  -24.2720   -2.4140  -38.1700 C   0  0  0  0  0  2  0  0  0  0  0  0
  -23.6740   -3.3670  -39.2040 C   0  0  0  0  0  2  0  0  0  0  0  0
  -23.4170   -2.6830  -40.3340 O   0  0  0  0  0  0  0  0  0  0  0  0
  -22.7960   -1.4980  -40.2810 C   0  0  0  0  0  3  0  0  0  0  0  0
  -22.5580   -0.8620  -38.9690 C   0  0  0  0  0  3  0  0  0  0  0  0
  -21.3530    1.4470  -34.5110 N   0  0  0  0  0  0  0  0  0  0  0  0
  -19.9440    1.6320  -34.2180 C   0  0  0  0  0  2  0  0  0  0  0  0
  -19.6970    3.0690  -33.8180 C   0  0  0  0  0  2  0  0  0  0  0  0
  -20.2390    3.9920  -34.6650 O   0  0  0  0  0  0  0  0  0  0  0  0
  -21.4970    3.7320  -35.1390 C   0  0  0  0  0  2  0  0  0  0  0  0
  -22.1990    2.5990  -34.4110 C   0  0  0  0  0  2  0  0  0  0  0  0
  1  6  1  0  0  0  0
  1  7  1  0  0  0  0
  2  1  2  0  0  0  0
  3  4  1  0  0  0  0
  3  2  2  0  0  0  0
  4  5  2  0  0  0  0
  5 25  1  0  0  0  0
  5  6  1  0  0  0  0
  7  9  1  0  0  0  0
  8  7  1  0  0  0  0
  9 10  2  0  0  0  0
 10 11  1  0  0  0  0
 11 12  2  0  0  0  0
 11 18  1  0  0  0  0
 12 13  1  0  0  0  0
 13 15  1  0  0  0  0
 13 14  2  0  0  0  0
 14 16  1  0  0  0  0
 17 14  1  0  0  0  0
 18 17  2  0  0  0  0
 19  3  1  0  0  0  0
 20 19  1  0  0  0  0
 21 20  1  0  0  0  0
 22 23  1  0  0  0  0
 22 21  1  0  0  0  0
 23 24  2  0  0  0  0
 24 19  1  0  0  0  0
 25 30  1  0  0  0  0
 25 26  1  0  0  0  0
 26 27  1  0  0  0  0
 28 27  1  0  0  0  0
 29 28  1  0  0  0  0
 29 30  1  0  0  0  0
M  END
>  <Pose>
1

>  <Score>
-8.849

$$$$
