MODEL 1
REMARK VINA RESULT:    -8.849      0.000      0.000
REMARK INTER + INTRA:         -12.201
REMARK INTER:                 -11.436
REMARK INTRA:                  -0.764
REMARK UNBOUND:                -0.764
REMARK  5 active torsions:
REMARK  status: ('A' for Active; 'I' for Inactive)
REMARK    1  A    between atoms: C_5  and  C_8 
REMARK    2  A    between atoms: N_9  and  N_10 
REMARK    3  A    between atoms: N_10  and  C_11 
REMARK    4  A    between atoms: C_13  and  N_23 
REMARK    5  A    between atoms: C_15  and  N_17 
ROOT
ATOM      1  C   UNK d   1     -22.269  -2.105 -34.339  0.00  0.00     0.774 A 
ATOM      2  N   UNK d   1     -22.704  -2.280 -35.606  0.00  0.00     0.133 NA
ATOM      3  C   UNK d   1     -22.711  -1.283 -36.525  0.00  0.00     0.756 A 
ATOM      4  N   UNK d   1     -22.263  -0.095 -36.117  0.00  0.00     0.131 NA
ATOM      5  C   UNK d   1     -21.816   0.153 -34.874  0.00  0.00     0.756 A 
ATOM      6  N   UNK d   1     -21.833  -0.876 -34.009  0.00  0.00     0.133 NA
ENDROOT
BRANCH   1   7
ATOM      7  N   UNK d   1     -22.289  -3.189 -33.433  0.00  0.00    -0.105 N 
ATOM      8  H   UNK d   1     -22.637  -4.108 -33.752  0.00  0.00     0.208 HD
BRANCH   7   9
ATOM      9  N   UNK d   1     -21.849  -3.030 -32.126  0.00  0.00    -0.172 NA
ATOM     10  C   UNK d   1     -21.107  -3.880 -31.512  0.00  0.00     0.150 C 
BRANCH  10  11
ATOM     11  C   UNK d   1     -20.683  -3.644 -30.138  0.00  0.00    -0.016 A 
ATOM     12  C   UNK d   1     -20.346  -2.382 -29.677  0.00  0.00     0.035 A 
ATOM     13  C   UNK d   1     -19.946  -2.164 -28.375  0.00  0.00     0.050 A 
ATOM     14  C   UNK d   1     -19.866  -3.206 -27.475  0.00  0.00     0.133 A 
ATOM     15 Br   UNK d   1     -19.486  -0.413 -27.766  0.00  0.00    -0.048 Br
ATOM     16  F   UNK d   1     -19.474  -3.012 -26.186  0.00  0.00    -0.205 F 
ATOM     17  C   UNK d   1     -20.198  -4.464 -27.921  0.00  0.00     0.044 A 
ATOM     18  C   UNK d   1     -20.600  -4.680 -29.232  0.00  0.00     0.016 A 
ENDBRANCH  10  11
ENDBRANCH   7   9
ENDBRANCH   1   7
BRANCH   3  19
ATOM     19  N   UNK d   1     -23.180  -1.525 -37.847  0.00  0.00    -0.209 N 
ATOM     20  C   UNK d   1     -24.272  -2.414 -38.170  0.00  0.00     0.167 C 
ATOM     21  C   UNK d   1     -23.674  -3.367 -39.204  0.00  0.00     0.188 C 
ATOM     22  O   UNK d   1     -23.417  -2.683 -40.334  0.00  0.00    -0.388 OA
ATOM     23  C   UNK d   1     -22.796  -1.498 -40.281  0.00  0.00     0.188 C 
ATOM     24  C   UNK d   1     -22.558  -0.862 -38.969  0.00  0.00     0.167 C 
ENDBRANCH   3  19
BRANCH   5  25
ATOM     25  N   UNK d   1     -21.353   1.447 -34.511  0.00  0.00    -0.209 N 
ATOM     26  C   UNK d   1     -19.944   1.632 -34.218  0.00  0.00     0.167 C 
ATOM     27  C   UNK d   1     -19.697   3.069 -33.818  0.00  0.00     0.188 C 
ATOM     28  O   UNK d   1     -20.239   3.992 -34.665  0.00  0.00    -0.388 OA
ATOM     29  C   UNK d   1     -21.497   3.732 -35.139  0.00  0.00     0.188 C 
ATOM     30  C   UNK d   1     -22.199   2.599 -34.411  0.00  0.00     0.167 C 
ENDBRANCH   5  25
TORSDOF 5
ENDMDL
