/Users/jonathanwahrer/Desktop/Msc/3_Semester/Drug_Design_Praktikum/waehrer_HTS_screening/HTS_experiment/out/docking_results/vina_output/5l4q/0872_docked.pdbqt
 OpenBabel03212218213D

 32 35  0  0  0  0  0  0  0  0999 V2000
  -20.4080   -2.2700  -32.7510 N   0  0  0  0  0  0  0  0  0  0  0  0
  -21.1270   -3.3720  -32.8650 N   0  0  0  0  0  0  0  0  0  0  0  0
  -21.3260   -3.8030  -31.6310 N   0  0  0  0  0  0  0  0  0  0  0  0
  -20.7400   -2.9880  -30.7310 C   0  0  0  0  0  0  0  0  0  0  0  0
  -20.1600   -2.0170  -31.4550 C   0  0  0  0  0  0  0  0  0  0  0  0
  -19.5670   -1.1960  -30.5240 C   0  0  0  0  0  0  0  0  0  0  0  0
  -18.9120   -0.1560  -30.8000 O   0  0  0  0  0  0  0  0  0  0  0  0
  -19.7690   -1.6380  -29.2660 N   0  0  0  0  0  0  0  0  0  0  0  0
  -20.5020   -2.7570  -29.3870 C   0  0  0  0  0  0  0  0  0  0  0  0
  -20.9010   -3.4710  -28.4300 O   0  0  0  0  0  0  0  0  0  0  0  0
  -21.4810   -3.8290  -33.7540 H   0  0  0  0  0  0  0  0  0  0  0  0
  -21.8770   -4.6770  -31.4190 H   0  0  0  0  0  0  0  0  0  0  0  0
  -19.9780   -1.4810  -33.8850 C   0  0  0  0  0  2  0  0  0  0  0  0
  -21.1950   -0.8710  -34.5510 C   0  0  0  0  0  0  0  0  0  0  0  0
  -21.2320   -0.7690  -35.9390 N   0  0  0  0  0  0  0  0  0  0  0  0
  -20.3670   -1.1460  -36.4590 H   0  0  0  0  0  0  0  0  0  0  0  0
  -22.1030   -0.4910  -33.8050 O   0  0  0  0  0  0  0  0  0  0  0  0
  -22.2920   -0.2260  -36.6820 C   0  0  0  0  0  0  0  0  0  0  0  0
  -23.3730   -1.0600  -37.0130 C   0  0  0  0  0  0  0  0  0  0  0  0
  -23.3240   -2.3530  -36.5880 F   0  0  0  0  0  0  0  0  0  0  0  0
  -24.4280   -0.5680  -37.7370 C   0  0  0  0  0  3  0  0  0  0  0  0
  -24.4500    0.7460  -38.1540 C   0  0  0  0  0  0  0  0  0  0  0  0
  -23.4100    1.5950  -37.8510 C   0  0  0  0  0  3  0  0  0  0  0  0
  -25.5100    1.1920  -38.8680 F   0  0  0  0  0  0  0  0  0  0  0  0
  -22.3360    1.0660  -37.1040 C   0  0  0  0  0  3  0  0  0  0  0  0
  -19.2830   -1.0080  -28.0680 C   0  0  0  0  0  0  0  0  0  0  0  0
  -19.3310    0.3650  -27.9230 C   0  0  0  0  0  3  0  0  0  0  0  0
  -18.8760    1.0120  -26.7930 C   0  0  0  0  0  3  0  0  0  0  0  0
  -18.3570    0.2260  -25.7830 C   0  0  0  0  0  0  0  0  0  0  0  0
  -18.2840   -1.1550  -25.8720 C   0  0  0  0  0  3  0  0  0  0  0  0
  -17.7290    1.1480  -24.2190 Br  0  0  0  0  0  0  0  0  0  0  0  0
  -18.7560   -1.7390  -27.0300 C   0  0  0  0  0  3  0  0  0  0  0  0
  1  5  1  0  0  0  0
  2  1  1  0  0  0  0
  2  3  1  0  0  0  0
  3 12  1  0  0  0  0
  3  4  1  0  0  0  0
  4  9  1  0  0  0  0
  5  4  2  0  0  0  0
  5  6  1  0  0  0  0
  6  8  1  0  0  0  0
  7  6  2  0  0  0  0
  8 26  1  0  0  0  0
  9  8  1  0  0  0  0
  9 10  2  0  0  0  0
 11  2  1  0  0  0  0
 13  1  1  0  0  0  0
 14 13  1  0  0  0  0
 14 17  2  0  0  0  0
 15 14  1  0  0  0  0
 16 15  1  0  0  0  0
 18 15  1  0  0  0  0
 19 18  1  0  0  0  0
 19 20  1  0  0  0  0
 21 19  2  0  0  0  0
 22 23  2  0  0  0  0
 22 21  1  0  0  0  0
 23 25  1  0  0  0  0
 24 22  1  0  0  0  0
 25 18  2  0  0  0  0
 26 27  2  0  0  0  0
 26 32  1  0  0  0  0
 27 28  1  0  0  0  0
 28 29  2  0  0  0  0
 29 31  1  0  0  0  0
 30 29  1  0  0  0  0
 32 30  2  0  0  0  0
M  END
>  <Pose>
1

>  <Score>
-9.809

$$$$
