MODEL 1
REMARK VINA RESULT:    -9.809      0.000      0.000
REMARK INTER + INTRA:         -12.515
REMARK INTER:                 -12.103
REMARK INTRA:                  -0.412
REMARK UNBOUND:                -0.412
REMARK  4 active torsions:
REMARK  status: ('A' for Active; 'I' for Inactive)
REMARK    1  A    between atoms: C_3  and  N_9 
REMARK       I    between atoms: N_9  and  C_10 
REMARK    2  A    between atoms: C_10  and  C_12 
REMARK    3  A    between atoms: C_12  and  N_13 
REMARK    4  A    between atoms: N_20  and  C_23 
ROOT
ATOM      1  N   UNK d   1     -20.408  -2.270 -32.751  0.00  0.00    -0.261 N 
ATOM      2  N   UNK d   1     -21.127  -3.372 -32.865  0.00  0.00    -0.239 N 
ATOM      3  N   UNK d   1     -21.326  -3.803 -31.631  0.00  0.00    -0.279 N 
ATOM      4  C   UNK d   1     -20.740  -2.988 -30.731  0.00  0.00     0.152 A 
ATOM      5  C   UNK d   1     -20.160  -2.017 -31.455  0.00  0.00     0.155 A 
ATOM      6  C   UNK d   1     -19.567  -1.196 -30.524  0.00  0.00     0.286 A 
ATOM      7  O   UNK d   1     -18.912  -0.156 -30.800  0.00  0.00    -0.265 OA
ATOM      8  N   UNK d   1     -19.769  -1.638 -29.266  0.00  0.00    -0.241 N 
ATOM      9  C   UNK d   1     -20.502  -2.757 -29.387  0.00  0.00     0.286 A 
ATOM     10  O   UNK d   1     -20.901  -3.471 -28.430  0.00  0.00    -0.265 OA
ATOM     11  H   UNK d   1     -21.481  -3.829 -33.754  0.00  0.00     0.208 HD
ATOM     12  H   UNK d   1     -21.877  -4.677 -31.419  0.00  0.00     0.189 HD
ENDROOT
BRANCH   1  13
ATOM     13  C   UNK d   1     -19.978  -1.481 -33.885  0.00  0.00     0.254 C 
BRANCH  13  14
ATOM     14  C   UNK d   1     -21.195  -0.871 -34.551  0.00  0.00     0.242 C 
ATOM     15  N   UNK d   1     -21.232  -0.769 -35.939  0.00  0.00    -0.323 N 
ATOM     16  H   UNK d   1     -20.367  -1.146 -36.459  0.00  0.00     0.169 HD
ATOM     17  O   UNK d   1     -22.103  -0.491 -33.805  0.00  0.00    -0.271 OA
BRANCH  15  18
ATOM     18  C   UNK d   1     -22.292  -0.226 -36.682  0.00  0.00     0.073 A 
ATOM     19  C   UNK d   1     -23.373  -1.060 -37.013  0.00  0.00     0.145 A 
ATOM     20  F   UNK d   1     -23.324  -2.353 -36.588  0.00  0.00    -0.204 F 
ATOM     21  C   UNK d   1     -24.428  -0.568 -37.737  0.00  0.00     0.086 A 
ATOM     22  C   UNK d   1     -24.450   0.746 -38.154  0.00  0.00     0.119 A 
ATOM     23  C   UNK d   1     -23.410   1.595 -37.851  0.00  0.00     0.044 A 
ATOM     24  F   UNK d   1     -25.510   1.192 -38.868  0.00  0.00    -0.206 F 
ATOM     25  C   UNK d   1     -22.336   1.066 -37.104  0.00  0.00     0.036 A 
ENDBRANCH  15  18
ENDBRANCH  13  14
ENDBRANCH   1  13
BRANCH   8  26
ATOM     26  C   UNK d   1     -19.283  -1.008 -28.068  0.00  0.00     0.046 A 
ATOM     27  C   UNK d   1     -19.331   0.365 -27.923  0.00  0.00     0.031 A 
ATOM     28  C   UNK d   1     -18.876   1.012 -26.793  0.00  0.00     0.021 A 
ATOM     29  C   UNK d   1     -18.357   0.226 -25.783  0.00  0.00     0.011 A 
ATOM     30  C   UNK d   1     -18.284  -1.155 -25.872  0.00  0.00     0.021 A 
ATOM     31 Br   UNK d   1     -17.729   1.148 -24.219  0.00  0.00    -0.051 Br
ATOM     32  C   UNK d   1     -18.756  -1.739 -27.030  0.00  0.00     0.031 A 
ENDBRANCH   8  26
TORSDOF 4
ENDMDL
