MODEL 1
REMARK VINA RESULT:    -7.680      0.000      0.000
REMARK INTER + INTRA:         -10.797
REMARK INTER:                  -9.925
REMARK INTRA:                  -0.872
REMARK UNBOUND:                -0.872
REMARK  5 active torsions:
REMARK  status: ('A' for Active; 'I' for Inactive)
REMARK    1  A    between atoms: C_3  and  C_8 
REMARK    2  A    between atoms: N_9  and  C_24 
REMARK    3  A    between atoms: C_15  and  C_17 
REMARK    4  A    between atoms: C_24  and  C_25 
REMARK    5  A    between atoms: C_25  and  N_26 
ROOT
ATOM      1  C   UNK d   1     -21.894   0.136 -36.206  0.00  0.00     0.164 C 
ATOM      2  N   UNK d   1     -22.524  -0.200 -34.939  0.00  0.00    -0.330 N 
ATOM      3  C   UNK d   1     -22.890   1.105 -34.445  0.00  0.00     0.295 C 
ATOM      4  O   UNK d   1     -23.868   1.426 -33.720  0.00  0.00    -0.264 OA
ATOM      5  C   UNK d   1     -21.892   2.097 -34.937  0.00  0.00     0.250 C 
ATOM      6  O   UNK d   1     -21.785   3.312 -34.781  0.00  0.00    -0.282 OA
ATOM      7  C   UNK d   1     -20.967   1.233 -35.729  0.00  0.00     0.062 C 
ATOM      8  C   UNK d   1     -19.687   1.428 -35.933  0.00  0.00     0.130 C 
ATOM      9  O   UNK d   1     -18.969   0.507 -36.722  0.00  0.00    -0.190 OA
ENDROOT
BRANCH   2  10
ATOM     10  C   UNK d   1     -22.779  -1.394 -34.254  0.00  0.00     0.155 C 
BRANCH  10  11
ATOM     11  C   UNK d   1     -21.660  -2.210 -33.715  0.00  0.00     0.255 C 
BRANCH  11  12
ATOM     12  N   UNK d   1     -20.960  -1.601 -32.620  0.00  0.00    -0.066 N 
ATOM     13  C   UNK d   1     -19.632  -1.228 -33.062  0.00  0.00     0.261 C 
ATOM     14  C   UNK d   1     -18.894  -0.473 -31.972  0.00  0.00     0.195 C 
ATOM     15  O   UNK d   1     -18.801  -1.276 -30.851  0.00  0.00    -0.388 OA
ATOM     16  C   UNK d   1     -20.065  -1.680 -30.432  0.00  0.00     0.195 C 
ATOM     17  C   UNK d   1     -20.724  -2.549 -31.512  0.00  0.00     0.261 C 
ATOM     18  H   UNK d   1     -21.478  -0.825 -32.160  0.00  0.00     0.280 HD
ENDBRANCH  11  12
ENDBRANCH  10  11
ENDBRANCH   2  10
BRANCH   1  19
ATOM     19  C   UNK d   1     -22.802   0.712 -37.211  0.00  0.00     0.008 A 
ATOM     20  C   UNK d   1     -24.013   0.142 -37.545  0.00  0.00     0.125 A 
ATOM     21  F   UNK d   1     -24.456  -0.959 -36.956  0.00  0.00    -0.205 F 
ATOM     22  C   UNK d   1     -24.835   0.704 -38.526  0.00  0.00     0.043 A 
ATOM     23  C   UNK d   1     -24.472   1.832 -39.186  0.00  0.00     0.003 A 
ATOM     24  C   UNK d   1     -23.280   2.425 -38.884  0.00  0.00     0.001 A 
ATOM     25  C   UNK d   1     -22.481   1.850 -37.908  0.00  0.00     0.012 A 
ENDBRANCH   1  19
BRANCH   8  26
ATOM     26  C   UNK d   1     -18.981   2.567 -35.365  0.00  0.00     0.001 A 
ATOM     27  C   UNK d   1     -18.749   3.671 -36.157  0.00  0.00     0.015 A 
ATOM     28  C   UNK d   1     -18.061   4.778 -35.690  0.00  0.00     0.020 A 
ATOM     29  C   UNK d   1     -17.586   4.794 -34.396  0.00  0.00     0.011 A 
ATOM     30  C   UNK d   1     -17.804   3.714 -33.596  0.00  0.00     0.020 A 
ATOM     31 Br   UNK d   1     -16.624   6.322 -33.718  0.00  0.00    -0.051 Br
ATOM     32  C   UNK d   1     -18.504   2.596 -34.082  0.00  0.00     0.015 A 
ENDBRANCH   8  26
TORSDOF 5
ENDMDL
