/Users/jonathanwahrer/Desktop/Msc/3_Semester/Drug_Design_Praktikum/waehrer_HTS_screening/HTS_experiment/out/docking_results/vina_output/5l4q/0873_docked.pdbqt
 OpenBabel03212218213D

 32 35  0  0  1  0  0  0  0  0999 V2000
  -21.8940    0.1360  -36.2060 C   0  0  2  0  0  3  0  0  0  0  0  0
  -22.5240   -0.2000  -34.9390 N   0  0  0  0  0  0  0  0  0  0  0  0
  -22.8900    1.1050  -34.4450 C   0  0  0  0  0  0  0  0  0  0  0  0
  -23.8680    1.4260  -33.7200 O   0  0  0  0  0  0  0  0  0  0  0  0
  -21.8920    2.0970  -34.9370 C   0  0  0  0  0  0  0  0  0  0  0  0
  -21.7850    3.3120  -34.7810 O   0  0  0  0  0  0  0  0  0  0  0  0
  -20.9670    1.2330  -35.7290 C   0  0  0  0  0  0  0  0  0  0  0  0
  -19.6870    1.4280  -35.9330 C   0  0  0  0  0  0  0  0  0  0  0  0
  -18.9690    0.5070  -36.7220 O   0  0  0  0  0  1  0  0  0  0  0  0
  -22.7790   -1.3940  -34.2540 C   0  0  0  0  0  2  0  0  0  0  0  0
  -21.6600   -2.2100  -33.7150 C   0  0  0  0  0  2  0  0  0  0  0  0
  -20.9600   -1.6010  -32.6200 N   0  0  0  0  0  4  0  0  0  0  0  0
  -19.6320   -1.2280  -33.0620 C   0  0  0  0  0  2  0  0  0  0  0  0
  -18.8940   -0.4730  -31.9720 C   0  0  0  0  0  2  0  0  0  0  0  0
  -18.8010   -1.2760  -30.8510 O   0  0  0  0  0  0  0  0  0  0  0  0
  -20.0650   -1.6800  -30.4320 C   0  0  0  0  0  2  0  0  0  0  0  0
  -20.7240   -2.5490  -31.5120 C   0  0  0  0  0  2  0  0  0  0  0  0
  -21.4780   -0.8250  -32.1600 H   0  0  0  0  0  0  0  0  0  0  0  0
  -22.8020    0.7120  -37.2110 C   0  0  0  0  0  0  0  0  0  0  0  0
  -24.0130    0.1420  -37.5450 C   0  0  0  0  0  0  0  0  0  0  0  0
  -24.4560   -0.9590  -36.9560 F   0  0  0  0  0  0  0  0  0  0  0  0
  -24.8350    0.7040  -38.5260 C   0  0  0  0  0  3  0  0  0  0  0  0
  -24.4720    1.8320  -39.1860 C   0  0  0  0  0  3  0  0  0  0  0  0
  -23.2800    2.4250  -38.8840 C   0  0  0  0  0  3  0  0  0  0  0  0
  -22.4810    1.8500  -37.9080 C   0  0  0  0  0  3  0  0  0  0  0  0
  -18.9810    2.5670  -35.3650 C   0  0  0  0  0  0  0  0  0  0  0  0
  -18.7490    3.6710  -36.1570 C   0  0  0  0  0  3  0  0  0  0  0  0
  -18.0610    4.7780  -35.6900 C   0  0  0  0  0  3  0  0  0  0  0  0
  -17.5860    4.7940  -34.3960 C   0  0  0  0  0  0  0  0  0  0  0  0
  -17.8040    3.7140  -33.5960 C   0  0  0  0  0  3  0  0  0  0  0  0
  -16.6240    6.3220  -33.7180 Br  0  0  0  0  0  0  0  0  0  0  0  0
  -18.5040    2.5960  -34.0820 C   0  0  0  0  0  3  0  0  0  0  0  0
  1 19  1  6  0  0  0
  1  7  1  0  0  0  0
  1  2  1  0  0  0  0
  2  3  1  0  0  0  0
  2 10  1  0  0  0  0
  3  4  2  0  0  0  0
  5  6  2  0  0  0  0
  5  3  1  0  0  0  0
  7  5  1  0  0  0  0
  8  7  2  0  0  0  0
  8 26  1  0  0  0  0
  9  8  1  0  0  0  0
 10 11  1  0  0  0  0
 11 12  1  0  0  0  0
 12 18  1  0  0  0  0
 12 17  1  0  0  0  0
 13 12  1  0  0  0  0
 13 14  1  0  0  0  0
 14 15  1  0  0  0  0
 15 16  1  0  0  0  0
 17 16  1  0  0  0  0
 20 19  1  0  0  0  0
 20 21  1  0  0  0  0
 22 20  2  0  0  0  0
 23 24  2  0  0  0  0
 23 22  1  0  0  0  0
 24 25  1  0  0  0  0
 25 19  2  0  0  0  0
 26 32  1  0  0  0  0
 27 28  1  0  0  0  0
 27 26  2  0  0  0  0
 28 29  2  0  0  0  0
 29 31  1  0  0  0  0
 29 30  1  0  0  0  0
 32 30  2  0  0  0  0
M  END
>  <Pose>
1

>  <Score>
-7.680

$$$$
