MODEL 1
REMARK VINA RESULT:    -9.545      0.000      0.000
REMARK INTER + INTRA:         -12.163
REMARK INTER:                 -11.777
REMARK INTRA:                  -0.386
REMARK UNBOUND:                -0.386
REMARK  4 active torsions:
REMARK  status: ('A' for Active; 'I' for Inactive)
REMARK    1  A    between atoms: C_3  and  N_8 
REMARK       I    between atoms: N_8  and  C_9 
REMARK    2  A    between atoms: C_9  and  C_11 
REMARK    3  A    between atoms: C_11  and  N_12 
REMARK    4  A    between atoms: N_19  and  C_22 
ROOT
ATOM      1  N   UNK d   1     -20.424  -2.282 -32.727  0.00  0.00    -0.261 N 
ATOM      2  N   UNK d   1     -21.104  -3.408 -32.772  0.00  0.00    -0.239 N 
ATOM      3  N   UNK d   1     -21.294  -3.880 -31.548  0.00  0.00    -0.279 N 
ATOM      4  C   UNK d   1     -20.714  -3.027 -30.676  0.00  0.00     0.152 A 
ATOM      5  C   UNK d   1     -20.191  -2.063 -31.405  0.00  0.00     0.155 A 
ATOM      6  C   UNK d   1     -19.595  -1.187 -30.511  0.00  0.00     0.286 A 
ATOM      7  O   UNK d   1     -18.993  -0.143 -30.845  0.00  0.00    -0.265 OA
ATOM      8  N   UNK d   1     -19.753  -1.610 -29.244  0.00  0.00    -0.241 N 
ATOM      9  C   UNK d   1     -20.451  -2.757 -29.346  0.00  0.00     0.286 A 
ATOM     10  O   UNK d   1     -20.812  -3.478 -28.390  0.00  0.00    -0.265 OA
ATOM     11  H   UNK d   1     -21.436  -3.845 -33.670  0.00  0.00     0.208 HD
ATOM     12  H   UNK d   1     -21.805  -4.761 -31.298  0.00  0.00     0.189 HD
ENDROOT
BRANCH   1  13
ATOM     13  C   UNK d   1     -19.997  -1.434 -33.824  0.00  0.00     0.254 C 
BRANCH  13  14
ATOM     14  C   UNK d   1     -21.191  -0.894 -34.532  0.00  0.00     0.242 C 
ATOM     15  N   UNK d   1     -21.202  -0.735 -35.915  0.00  0.00    -0.323 N 
ATOM     16  H   UNK d   1     -20.302  -1.026 -36.420  0.00  0.00     0.169 HD
ATOM     17  O   UNK d   1     -22.164  -0.599 -33.819  0.00  0.00    -0.271 OA
BRANCH  15  18
ATOM     18  C   UNK d   1     -22.258  -0.238 -36.731  0.00  0.00     0.073 A 
ATOM     19  C   UNK d   1     -23.326  -1.084 -37.067  0.00  0.00     0.143 A 
ATOM     20  F   UNK d   1     -23.311  -2.363 -36.590  0.00  0.00    -0.204 F 
ATOM     21  C   UNK d   1     -24.373  -0.668 -37.849  0.00  0.00     0.044 A 
ATOM     22  C   UNK d   1     -24.419   0.614 -38.346  0.00  0.00     0.003 A 
ATOM     23  C   UNK d   1     -23.383   1.440 -38.023  0.00  0.00     0.002 A 
ATOM     24  C   UNK d   1     -22.318   1.036 -37.233  0.00  0.00     0.033 A 
ENDBRANCH  15  18
ENDBRANCH  13  14
ENDBRANCH   1  13
BRANCH   8  25
ATOM     25  C   UNK d   1     -19.276  -0.966 -28.063  0.00  0.00     0.046 A 
ATOM     26  C   UNK d   1     -18.767  -1.696 -27.007  0.00  0.00     0.031 A 
ATOM     27  C   UNK d   1     -18.300  -1.089 -25.857  0.00  0.00     0.021 A 
ATOM     28  C   UNK d   1     -18.326   0.283 -25.717  0.00  0.00     0.011 A 
ATOM     29  C   UNK d   1     -18.830   1.031 -26.759  0.00  0.00     0.021 A 
ATOM     30 Br   UNK d   1     -17.687   1.150 -24.137  0.00  0.00    -0.051 Br
ATOM     31  C   UNK d   1     -19.292   0.405 -27.900  0.00  0.00     0.031 A 
ENDBRANCH   8  25
TORSDOF 4
ENDMDL
