MODEL 1
REMARK VINA RESULT:    -9.024      0.000      0.000
REMARK INTER + INTRA:         -11.596
REMARK INTER:                 -11.134
REMARK INTRA:                  -0.462
REMARK UNBOUND:                -0.462
REMARK  4 active torsions:
REMARK  status: ('A' for Active; 'I' for Inactive)
REMARK    1  A    between atoms: C_5  and  N_8 
REMARK    2  A    between atoms: N_15  and  C_16 
REMARK    3  A    between atoms: C_16  and  C_17 
REMARK       I    between atoms: C_17  and  N_19 
REMARK    4  A    between atoms: N_19  and  C_20 
ROOT
ATOM      1  N   UNK d   1     -19.670  -1.842 -28.998  0.00  0.00    -0.241 N 
ATOM      2  C   UNK d   1     -19.488  -1.490 -30.282  0.00  0.00     0.286 A 
ATOM      3  O   UNK d   1     -18.760  -0.511 -30.600  0.00  0.00    -0.265 OA
ATOM      4  C   UNK d   1     -20.178  -2.314 -31.152  0.00  0.00     0.155 A 
ATOM      5  C   UNK d   1     -20.799  -3.192 -30.369  0.00  0.00     0.152 A 
ATOM      6  N   UNK d   1     -21.484  -4.010 -31.172  0.00  0.00    -0.279 N 
ATOM      7  N   UNK d   1     -21.284  -3.634 -32.421  0.00  0.00    -0.239 N 
ATOM      8  N   UNK d   1     -20.475  -2.580 -32.448  0.00  0.00    -0.261 N 
ATOM      9  C   UNK d   1     -20.498  -2.916 -29.052  0.00  0.00     0.286 A 
ATOM     10  O   UNK d   1     -20.883  -3.513 -28.007  0.00  0.00    -0.265 OA
ATOM     11  H   UNK d   1     -22.077  -4.814 -30.824  0.00  0.00     0.189 HD
ATOM     12  H   UNK d   1     -21.683  -4.076 -33.262  0.00  0.00     0.208 HD
ENDROOT
BRANCH   8  13
ATOM     13  C   UNK d   1     -19.983  -1.842 -33.575  0.00  0.00     0.254 C 
BRANCH  13  14
ATOM     14  C   UNK d   1     -21.000  -1.150 -34.374  0.00  0.00     0.242 C 
ATOM     15  O   UNK d   1     -22.119  -0.992 -33.861  0.00  0.00    -0.271 OA
ATOM     16  N   UNK d   1     -20.706  -0.690 -35.660  0.00  0.00    -0.326 N 
ATOM     17  H   UNK d   1     -19.706  -0.861 -36.042  0.00  0.00     0.169 HD
BRANCH  16  18
ATOM     18  C   UNK d   1     -21.540  -0.009 -36.578  0.00  0.00     0.034 A 
ATOM     19  C   UNK d   1     -22.520  -0.655 -37.292  0.00  0.00     0.031 A 
ATOM     20  C   UNK d   1     -23.361  -0.017 -38.208  0.00  0.00     0.021 A 
ATOM     21  C   UNK d   1     -23.170   1.331 -38.378  0.00  0.00     0.011 A 
ATOM     22  C   UNK d   1     -22.199   2.001 -37.677  0.00  0.00     0.021 A 
ATOM     23 Br   UNK d   1     -24.296   2.277 -39.625  0.00  0.00    -0.051 Br
ATOM     24  C   UNK d   1     -21.386   1.351 -36.785  0.00  0.00     0.031 A 
ENDBRANCH  16  18
ENDBRANCH  13  14
ENDBRANCH   8  13
BRANCH   1  25
ATOM     25  C   UNK d   1     -19.134  -1.234 -27.824  0.00  0.00     0.046 A 
ATOM     26  C   UNK d   1     -18.462  -1.918 -26.837  0.00  0.00     0.033 A 
ATOM     27  C   UNK d   1     -17.964  -1.272 -25.703  0.00  0.00     0.044 A 
ATOM     28  C   UNK d   1     -18.135   0.074 -25.546  0.00  0.00     0.116 A 
ATOM     29  F   UNK d   1     -17.644   0.697 -24.433  0.00  0.00    -0.206 F 
ATOM     30  C   UNK d   1     -18.803   0.778 -26.521  0.00  0.00     0.044 A 
ATOM     31  C   UNK d   1     -19.290   0.130 -27.634  0.00  0.00     0.033 A 
ENDBRANCH   1  25
TORSDOF 4
ENDMDL
