/Users/jonathanwahrer/Desktop/Msc/3_Semester/Drug_Design_Praktikum/waehrer_HTS_screening/HTS_experiment/out/docking_results/vina_output/5l4q/0886_docked.pdbqt
 OpenBabel03212218223D

 31 34  0  0  0  0  0  0  0  0999 V2000
  -19.6700   -1.8420  -28.9980 N   0  0  0  0  0  0  0  0  0  0  0  0
  -19.4880   -1.4900  -30.2820 C   0  0  0  0  0  0  0  0  0  0  0  0
  -18.7600   -0.5110  -30.6000 O   0  0  0  0  0  0  0  0  0  0  0  0
  -20.1780   -2.3140  -31.1520 C   0  0  0  0  0  0  0  0  0  0  0  0
  -20.7990   -3.1920  -30.3690 C   0  0  0  0  0  0  0  0  0  0  0  0
  -21.4840   -4.0100  -31.1720 N   0  0  0  0  0  0  0  0  0  0  0  0
  -21.2840   -3.6340  -32.4210 N   0  0  0  0  0  0  0  0  0  0  0  0
  -20.4750   -2.5800  -32.4480 N   0  0  0  0  0  0  0  0  0  0  0  0
  -20.4980   -2.9160  -29.0520 C   0  0  0  0  0  0  0  0  0  0  0  0
  -20.8830   -3.5130  -28.0070 O   0  0  0  0  0  0  0  0  0  0  0  0
  -22.0770   -4.8140  -30.8240 H   0  0  0  0  0  0  0  0  0  0  0  0
  -21.6830   -4.0760  -33.2620 H   0  0  0  0  0  0  0  0  0  0  0  0
  -19.9830   -1.8420  -33.5750 C   0  0  0  0  0  2  0  0  0  0  0  0
  -21.0000   -1.1500  -34.3740 C   0  0  0  0  0  0  0  0  0  0  0  0
  -22.1190   -0.9920  -33.8610 O   0  0  0  0  0  0  0  0  0  0  0  0
  -20.7060   -0.6900  -35.6600 N   0  0  0  0  0  0  0  0  0  0  0  0
  -19.7060   -0.8610  -36.0420 H   0  0  0  0  0  0  0  0  0  0  0  0
  -21.5400   -0.0090  -36.5780 C   0  0  0  0  0  0  0  0  0  0  0  0
  -22.5200   -0.6550  -37.2920 C   0  0  0  0  0  3  0  0  0  0  0  0
  -23.3610   -0.0170  -38.2080 C   0  0  0  0  0  3  0  0  0  0  0  0
  -23.1700    1.3310  -38.3780 C   0  0  0  0  0  0  0  0  0  0  0  0
  -22.1990    2.0010  -37.6770 C   0  0  0  0  0  3  0  0  0  0  0  0
  -24.2960    2.2770  -39.6250 Br  0  0  0  0  0  0  0  0  0  0  0  0
  -21.3860    1.3510  -36.7850 C   0  0  0  0  0  3  0  0  0  0  0  0
  -19.1340   -1.2340  -27.8240 C   0  0  0  0  0  0  0  0  0  0  0  0
  -18.4620   -1.9180  -26.8370 C   0  0  0  0  0  3  0  0  0  0  0  0
  -17.9640   -1.2720  -25.7030 C   0  0  0  0  0  3  0  0  0  0  0  0
  -18.1350    0.0740  -25.5460 C   0  0  0  0  0  0  0  0  0  0  0  0
  -17.6440    0.6970  -24.4330 F   0  0  0  0  0  0  0  0  0  0  0  0
  -18.8030    0.7780  -26.5210 C   0  0  0  0  0  3  0  0  0  0  0  0
  -19.2900    0.1300  -27.6340 C   0  0  0  0  0  3  0  0  0  0  0  0
  1 25  1  0  0  0  0
  2  1  1  0  0  0  0
  3  2  2  0  0  0  0
  4  5  2  0  0  0  0
  4  2  1  0  0  0  0
  5  9  1  0  0  0  0
  6 11  1  0  0  0  0
  6  5  1  0  0  0  0
  7  6  1  0  0  0  0
  8  7  1  0  0  0  0
  8  4  1  0  0  0  0
  9  1  1  0  0  0  0
  9 10  2  0  0  0  0
 12  7  1  0  0  0  0
 13  8  1  0  0  0  0
 14 15  2  0  0  0  0
 14 13  1  0  0  0  0
 16 14  1  0  0  0  0
 17 16  1  0  0  0  0
 18 16  1  0  0  0  0
 19 18  2  0  0  0  0
 20 19  1  0  0  0  0
 21 20  2  0  0  0  0
 21 22  1  0  0  0  0
 22 24  2  0  0  0  0
 23 21  1  0  0  0  0
 24 18  1  0  0  0  0
 25 31  2  0  0  0  0
 25 26  1  0  0  0  0
 26 27  2  0  0  0  0
 27 28  1  0  0  0  0
 28 29  1  0  0  0  0
 30 28  2  0  0  0  0
 31 30  1  0  0  0  0
M  END
>  <Pose>
1

>  <Score>
-9.024

$$$$
