MODEL 1
REMARK VINA RESULT:    -6.482      0.000      0.000
REMARK INTER + INTRA:          -7.128
REMARK INTER:                  -6.861
REMARK INTRA:                  -0.267
REMARK UNBOUND:                -0.267
REMARK  1 active torsions:
REMARK  status: ('A' for Active; 'I' for Inactive)
REMARK    1  A    between atoms: C_4  and  C_9 
ROOT
ATOM      1  C   UNK d   1     -23.972   1.483 -37.391  0.00  0.00     0.222 C 
ATOM      2  N   UNK d   1     -22.942   2.286 -36.771  0.00  0.00    -0.358 N 
ATOM      3  C   UNK d   1     -22.052   1.685 -35.825  0.00  0.00     0.088 A 
ATOM      4  S   UNK d   1     -20.440   2.067 -35.299  0.00  0.00    -0.074 SA
ATOM      5  C   UNK d   1     -20.214   0.819 -34.167  0.00  0.00     0.018 A 
ATOM      6  C   UNK d   1     -21.383   0.143 -34.227  0.00  0.00    -0.023 A 
ATOM      7  C   UNK d   1     -22.330   0.580 -35.074  0.00  0.00     0.073 A 
ATOM      8  C   UNK d   1     -23.698   0.061 -35.360  0.00  0.00     0.256 C 
ATOM      9  O   UNK d   1     -24.145  -0.949 -34.767  0.00  0.00    -0.267 OA
ATOM     10  N   UNK d   1     -24.532   0.694 -36.308  0.00  0.00    -0.331 N 
ATOM     11  C   UNK d   1     -21.465  -1.058 -33.293  0.00  0.00     0.068 C 
ATOM     12  C   UNK d   1     -20.480  -0.859 -32.187  0.00  0.00     0.239 C 
ATOM     13  N   UNK d   1     -19.159  -0.833 -32.835  0.00  0.00    -0.070 N 
ATOM     14  C   UNK d   1     -19.037   0.526 -33.317  0.00  0.00     0.281 C 
ATOM     15  C   UNK d   1     -18.112  -1.187 -31.906  0.00  0.00     0.270 C 
ATOM     16  H   UNK d   1     -22.808   3.301 -36.976  0.00  0.00     0.162 HD
ATOM     17  H   UNK d   1     -25.579   0.606 -36.248  0.00  0.00     0.165 HD
ATOM     18  H   UNK d   1     -19.183  -1.458 -33.668  0.00  0.00     0.279 HD
ENDROOT
BRANCH   1  19
ATOM     19  C   UNK d   1     -23.288   0.605 -38.376  0.00  0.00     0.023 A 
ATOM     20  C   UNK d   1     -22.337   1.041 -39.267  0.00  0.00     0.134 A 
ATOM     21  C   UNK d   1     -21.733   0.177 -40.181  0.00  0.00     0.044 A 
ATOM     22  O   UNK d   1     -21.966   2.367 -39.263  0.00  0.00    -0.190 OA
ATOM     23  I   UNK d   1     -20.285   0.908 -41.520  0.00  0.00    -0.042 I 
ATOM     24  C   UNK d   1     -22.063  -1.143 -40.225  0.00  0.00     0.040 A 
ATOM     25  C   UNK d   1     -23.011  -1.600 -39.341  0.00  0.00     0.013 A 
ATOM     26  C   UNK d   1     -23.611  -0.758 -38.441  0.00  0.00     0.033 A 
ATOM     27 Br   UNK d   1     -23.476  -3.446 -39.399  0.00  0.00    -0.051 Br
ENDBRANCH   1  19
TORSDOF 1
ENDMDL
