MODEL 1
REMARK VINA RESULT:    -8.563      0.000      0.000
REMARK INTER + INTRA:         -10.060
REMARK INTER:                  -9.564
REMARK INTRA:                  -0.496
REMARK UNBOUND:                -0.496
REMARK  2 active torsions:
REMARK  status: ('A' for Active; 'I' for Inactive)
REMARK    1  A    between atoms: C_4  and  O_23 
REMARK    2  A    between atoms: C_6  and  C_8 
ROOT
ATOM      1  C   UNK d   1     -20.927  -0.101 -33.045  0.00  0.00     0.219 C 
ATOM      2  N   UNK d   1     -22.241  -0.351 -33.639  0.00  0.00    -0.358 N 
ATOM      3  C   UNK d   1     -22.467  -0.154 -35.057  0.00  0.00     0.088 A 
ATOM      4  S   UNK d   1     -23.895  -0.050 -36.008  0.00  0.00    -0.074 SA
ATOM      5  C   UNK d   1     -23.186   0.183 -37.531  0.00  0.00     0.018 A 
ATOM      6  C   UNK d   1     -21.844   0.173 -37.263  0.00  0.00    -0.023 A 
ATOM      7  C   UNK d   1     -21.478  -0.002 -35.975  0.00  0.00     0.073 A 
ATOM      8  C   UNK d   1     -20.091  -0.050 -35.427  0.00  0.00     0.256 C 
ATOM      9  O   UNK d   1     -19.077   0.078 -36.177  0.00  0.00    -0.267 OA
ATOM     10  N   UNK d   1     -19.904  -0.244 -34.044  0.00  0.00    -0.332 N 
ATOM     11  C   UNK d   1     -21.013   0.371 -38.526  0.00  0.00     0.068 C 
ATOM     12  C   UNK d   1     -21.483  -0.590 -39.586  0.00  0.00     0.239 C 
ATOM     13  N   UNK d   1     -22.900  -0.675 -39.706  0.00  0.00    -0.070 N 
ATOM     14  C   UNK d   1     -23.590   0.379 -38.971  0.00  0.00     0.281 C 
ATOM     15  C   UNK d   1     -23.315  -1.932 -39.064  0.00  0.00     0.270 C 
ATOM     16  H   UNK d   1     -23.045  -0.674 -33.071  0.00  0.00     0.162 HD
ATOM     17  H   UNK d   1     -18.947  -0.514 -33.696  0.00  0.00     0.165 HD
ATOM     18  H   UNK d   1     -23.242  -0.691 -40.703  0.00  0.00     0.279 HD
ENDROOT
BRANCH   1  19
ATOM     19  C   UNK d   1     -20.723  -1.183 -32.043  0.00  0.00    -0.012 A 
ATOM     20  C   UNK d   1     -20.929  -2.496 -32.446  0.00  0.00     0.050 A 
ATOM     21  C   UNK d   1     -20.773  -3.566 -31.617  0.00  0.00     0.106 A 
ATOM     22  C   UNK d   1     -20.385  -3.313 -30.302  0.00  0.00     0.157 A 
ATOM     23  C   UNK d   1     -20.173  -2.018 -29.876  0.00  0.00     0.046 A 
ATOM     24  O   UNK d   1     -20.216  -4.373 -29.432  0.00  0.00    -0.188 OA
ATOM     25  I   UNK d   1     -19.587  -1.658 -27.882  0.00  0.00    -0.041 I 
ATOM     26  C   UNK d   1     -20.343  -0.955 -30.749  0.00  0.00     0.032 A 
BRANCH  21  27
ATOM     27  O   UNK d   1     -20.972  -4.888 -31.990  0.00  0.00    -0.353 OA
ATOM     28  C   UNK d   1     -22.246  -5.269 -32.474  0.00  0.00     0.210 C 
ENDBRANCH  21  27
ENDBRANCH   1  19
TORSDOF 2
ENDMDL
