/Users/jonathanwahrer/Desktop/Msc/3_Semester/Drug_Design_Praktikum/waehrer_HTS_screening/HTS_experiment/out/docking_results/vina_output/5l4q/0906_docked.pdbqt
 OpenBabel03212218223D

 27 30  0  0  1  0  0  0  0  0999 V2000
  -22.1470   -1.8500  -33.9150 C   0  0  2  0  0  3  0  0  0  0  0  0
  -22.4710   -3.1270  -34.0790 N   0  0  0  0  0  0  0  0  0  0  0  0
  -22.0810   -4.1430  -33.2910 C   0  0  0  0  0  0  0  0  0  0  0  0
  -22.2430   -5.4700  -33.2190 N   0  0  0  0  0  2  0  0  0  0  0  0
  -21.5990   -5.9510  -32.1950 O   0  0  0  0  0  0  0  0  0  0  0  0
  -20.9980   -4.9830  -31.5650 N   0  0  0  0  0  0  0  0  0  0  0  0
  -21.2620   -3.8310  -32.2010 C   0  0  0  0  0  0  0  0  0  0  0  0
  -20.9070   -2.5770  -31.9890 N   0  0  0  0  0  0  0  0  0  0  0  0
  -21.3210   -1.6010  -32.8010 C   0  0  0  0  0  0  0  0  0  0  0  0
  -20.8060   -0.4760  -32.3300 N   0  0  0  0  0  0  0  0  0  0  0  0
  -20.0780   -0.7450  -31.2320 N   0  0  0  0  0  0  0  0  0  0  0  0
  -20.1250   -2.0640  -30.9970 C   0  0  0  0  0  0  0  0  0  0  0  0
  -22.5500   -0.7750  -34.7350 N   0  0  0  0  0  0  0  0  0  0  0  0
  -22.6940    0.1840  -34.2590 H   0  0  0  0  0  0  0  0  0  0  0  0
  -22.7950   -0.7840  -36.1230 C   0  0  0  0  0  0  0  0  0  0  0  0
  -21.8620   -0.1590  -36.9810 C   0  0  0  0  0  0  0  0  0  0  0  0
  -20.1380    0.7430  -36.1610 I   0  0  0  0  0  0  0  0  0  0  0  0
  -22.0720   -0.1410  -38.3380 C   0  0  0  0  0  3  0  0  0  0  0  0
  -23.2100   -0.7400  -38.8730 C   0  0  0  0  0  3  0  0  0  0  0  0
  -24.0950   -1.3360  -38.0190 C   0  0  0  0  0  3  0  0  0  0  0  0
  -23.9140   -1.3760  -36.6340 C   0  0  0  0  0  3  0  0  0  0  0  0
  -19.4920   -2.8520  -29.9060 C   0  0  0  0  0  2  0  0  0  0  0  0
  -20.2920   -2.8680  -28.6580 C   0  0  0  0  0  0  0  0  0  0  0  0
  -21.1250   -3.7590  -28.3930 O   0  0  0  0  0  0  0  0  0  0  0  0
  -20.1130   -1.8590  -27.7520 O   0  0  0  0  0  0  0  0  0  0  0  0
  -18.9550   -1.6250  -27.0330 C   0  0  0  0  0  2  0  0  0  0  0  0
  -18.8180   -2.3520  -25.7500 C   0  0  0  0  0  1  0  0  0  0  0  0
  1 13  1  1  0  0  0
  1  9  1  0  0  0  0
  2  1  1  0  0  0  0
  2  3  2  0  0  0  0
  3  4  1  0  0  0  0
  3  7  1  0  0  0  0
  4  5  1  0  0  0  0
  5  6  1  0  0  0  0
  7  8  1  0  0  0  0
  7  6  2  0  0  0  0
  8 12  1  0  0  0  0
  9 10  2  0  0  0  0
  9  8  1  0  0  0  0
 10 11  1  0  0  0  0
 11 12  2  0  0  0  0
 12 22  1  0  0  0  0
 13 14  1  0  0  0  0
 15 13  1  0  0  0  0
 16 17  1  0  0  0  0
 16 15  2  0  0  0  0
 18 16  1  0  0  0  0
 19 18  2  0  0  0  0
 19 20  1  0  0  0  0
 20 21  2  0  0  0  0
 21 15  1  0  0  0  0
 22 23  1  0  0  0  0
 23 24  2  0  0  0  0
 23 25  1  0  0  0  0
 25 26  1  0  0  0  0
 26 27  1  0  0  0  0
M  END
>  <Pose>
1

>  <Score>
-8.234

$$$$
