MODEL 1
REMARK VINA RESULT:    -8.234      0.000      0.000
REMARK INTER + INTRA:         -11.971
REMARK INTER:                 -11.122
REMARK INTRA:                  -0.849
REMARK UNBOUND:                -0.849
REMARK  6 active torsions:
REMARK  status: ('A' for Active; 'I' for Inactive)
REMARK    1  A    between atoms: C_3  and  N_8 
REMARK    2  A    between atoms: N_8  and  C_9 
REMARK    3  A    between atoms: C_20  and  C_21 
REMARK    4  A    between atoms: C_21  and  C_22 
REMARK    5  A    between atoms: C_22  and  O_24 
REMARK    6  A    between atoms: O_24  and  C_25 
ROOT
ATOM      1  C   UNK d   1     -22.147  -1.850 -33.915  0.00  0.00     0.179 A 
ATOM      2  N   UNK d   1     -22.471  -3.127 -34.079  0.00  0.00    -0.202 NA
ATOM      3  C   UNK d   1     -22.081  -4.143 -33.291  0.00  0.00     0.230 A 
ATOM      4  N   UNK d   1     -22.243  -5.470 -33.219  0.00  0.00    -0.081 NA
ATOM      5  O   UNK d   1     -21.599  -5.951 -32.195  0.00  0.00    -0.103 OA
ATOM      6  N   UNK d   1     -20.998  -4.983 -31.565  0.00  0.00    -0.082 NA
ATOM      7  C   UNK d   1     -21.262  -3.831 -32.201  0.00  0.00     0.217 A 
ATOM      8  N   UNK d   1     -20.907  -2.577 -31.989  0.00  0.00    -0.256 N 
ATOM      9  C   UNK d   1     -21.321  -1.601 -32.801  0.00  0.00     0.206 A 
ATOM     10  N   UNK d   1     -20.806  -0.476 -32.330  0.00  0.00    -0.126 NA
ATOM     11  N   UNK d   1     -20.078  -0.745 -31.232  0.00  0.00    -0.133 NA
ATOM     12  C   UNK d   1     -20.125  -2.064 -30.997  0.00  0.00     0.145 A 
ENDROOT
BRANCH   1  13
ATOM     13  N   UNK d   1     -22.550  -0.775 -34.735  0.00  0.00    -0.337 N 
ATOM     14  H   UNK d   1     -22.694   0.184 -34.259  0.00  0.00     0.167 HD
BRANCH  13  15
ATOM     15  C   UNK d   1     -22.795  -0.784 -36.123  0.00  0.00     0.050 A 
ATOM     16  C   UNK d   1     -21.862  -0.159 -36.981  0.00  0.00     0.033 A 
ATOM     17  I   UNK d   1     -20.138   0.743 -36.161  0.00  0.00    -0.042 I 
ATOM     18  C   UNK d   1     -22.072  -0.141 -38.338  0.00  0.00     0.020 A 
ATOM     19  C   UNK d   1     -23.210  -0.740 -38.873  0.00  0.00     0.001 A 
ATOM     20  C   UNK d   1     -24.095  -1.336 -38.019  0.00  0.00     0.002 A 
ATOM     21  C   UNK d   1     -23.914  -1.376 -36.634  0.00  0.00     0.031 A 
ENDBRANCH  13  15
ENDBRANCH   1  13
BRANCH  12  22
ATOM     22  C   UNK d   1     -19.492  -2.852 -29.906  0.00  0.00     0.192 C 
BRANCH  22  23
ATOM     23  C   UNK d   1     -20.292  -2.868 -28.658  0.00  0.00     0.266 C 
ATOM     24  O   UNK d   1     -21.125  -3.759 -28.393  0.00  0.00    -0.265 OA
BRANCH  23  25
ATOM     25  O   UNK d   1     -20.113  -1.859 -27.752  0.00  0.00    -0.322 OA
BRANCH  25  26
ATOM     26  C   UNK d   1     -18.955  -1.625 -27.033  0.00  0.00     0.174 C 
ATOM     27  C   UNK d   1     -18.818  -2.352 -25.750  0.00  0.00     0.034 C 
ENDBRANCH  25  26
ENDBRANCH  23  25
ENDBRANCH  22  23
ENDBRANCH  12  22
TORSDOF 6
ENDMDL
