MODEL 1
REMARK VINA RESULT:    -8.129      0.000      0.000
REMARK INTER + INTRA:          -9.006
REMARK INTER:                  -9.080
REMARK INTRA:                   0.074
REMARK UNBOUND:                 0.074
REMARK  2 active torsions:
REMARK  status: ('A' for Active; 'I' for Inactive)
REMARK    1  A    between atoms: C_3  and  N_8 
REMARK    2  A    between atoms: N_15  and  C_16 
ROOT
ATOM      1  N   UNK d   1     -21.137  -0.886 -32.299  0.00  0.00    -0.240 N 
ATOM      2  C   UNK d   1     -20.668  -0.950 -31.041  0.00  0.00     0.286 A 
ATOM      3  O   UNK d   1     -20.407   0.050 -30.307  0.00  0.00    -0.265 OA
ATOM      4  C   UNK d   1     -20.499  -2.257 -30.631  0.00  0.00     0.160 A 
ATOM      5  C   UNK d   1     -20.874  -3.001 -31.659  0.00  0.00     0.152 A 
ATOM      6  N   UNK d   1     -20.705  -4.278 -31.242  0.00  0.00    -0.278 N 
ATOM      7  N   UNK d   1     -20.244  -4.306 -30.005  0.00  0.00    -0.234 N 
ATOM      8  N   UNK d   1     -20.109  -3.067 -29.607  0.00  0.00    -0.234 N 
ATOM      9  C   UNK d   1     -21.269  -2.167 -32.692  0.00  0.00     0.286 A 
ATOM     10  O   UNK d   1     -21.686  -2.572 -33.825  0.00  0.00    -0.265 OA
ATOM     11  H   UNK d   1     -20.903  -5.135 -31.801  0.00  0.00     0.189 HD
ATOM     12  H   UNK d   1     -20.025  -5.156 -29.447  0.00  0.00     0.209 HD
ENDROOT
BRANCH   1  13
ATOM     13  C   UNK d   1     -21.443   0.268 -33.083  0.00  0.00     0.062 A 
ATOM     14  C   UNK d   1     -20.452   1.005 -33.699  0.00  0.00     0.034 A 
ATOM     15  I   UNK d   1     -18.454   0.357 -33.440  0.00  0.00    -0.042 I 
ATOM     16  C   UNK d   1     -20.724   2.124 -34.460  0.00  0.00     0.020 A 
ATOM     17  C   UNK d   1     -22.022   2.557 -34.638  0.00  0.00     0.001 A 
ATOM     18  C   UNK d   1     -23.020   1.828 -34.026  0.00  0.00     0.002 A 
ATOM     19  C   UNK d   1     -22.738   0.706 -33.264  0.00  0.00     0.031 A 
ENDBRANCH   1  13
BRANCH   8  20
ATOM     20  C   UNK d   1     -19.648  -2.589 -28.351  0.00  0.00     0.058 A 
ATOM     21  C   UNK d   1     -18.835  -1.482 -28.242  0.00  0.00     0.031 A 
ATOM     22  C   UNK d   1     -18.402  -1.041 -27.002  0.00  0.00     0.002 A 
ATOM     23  C   UNK d   1     -18.760  -1.683 -25.835  0.00  0.00     0.000 A 
ATOM     24  C   UNK d   1     -19.573  -2.792 -25.942  0.00  0.00     0.002 A 
ATOM     25  C   UNK d   1     -20.007  -3.236 -27.167  0.00  0.00     0.031 A 
ENDBRANCH   8  20
TORSDOF 2
ENDMDL
