/Users/jonathanwahrer/Desktop/Msc/3_Semester/Drug_Design_Praktikum/waehrer_HTS_screening/HTS_experiment/out/docking_results/vina_output/5l4q/0920_docked.pdbqt
 OpenBabel03212218223D

 24 27  0  0  1  0  0  0  0  0999 V2000
  -20.5950   -2.5260  -30.9820 N   0  0  0  0  0  0  0  0  0  0  0  0
  -20.3130   -2.6500  -29.7230 C   0  0  1  0  0  3  0  0  0  0  0  0
  -20.3240   -3.8760  -28.4050 S   0  0  0  0  0  0  0  0  0  0  0  0
  -19.7030   -2.7440  -27.1830 C   0  0  0  0  0  3  0  0  0  0  0  0
  -19.5160   -1.5720  -27.7470 C   0  0  0  0  0  0  0  0  0  0  0  0
  -19.8350   -1.4830  -29.1240 N   0  0  0  0  0  0  0  0  0  0  0  0
  -19.8070   -0.4530  -30.1940 C   0  0  0  0  0  3  0  0  0  0  0  0
  -20.3680   -1.1630  -31.3770 C   0  0  0  0  0  3  0  0  0  0  0  0
  -21.0880   -3.5530  -31.8210 C   0  0  0  0  0  2  0  0  0  0  0  0
  -21.7620   -3.2650  -33.0590 C   0  0  1  0  0  3  0  0  0  0  0  0
  -22.4310   -4.2880  -33.5200 O   0  0  0  0  0  1  0  0  0  0  0  0
  -21.8500   -2.0910  -33.8860 C   0  0  0  0  0  0  0  0  0  0  0  0
  -23.0360   -1.5160  -34.2240 C   0  0  0  0  0  3  0  0  0  0  0  0
  -23.0850   -0.4080  -35.0270 C   0  0  0  0  0  3  0  0  0  0  0  0
  -21.9530    0.1930  -35.5430 C   0  0  0  0  0  0  0  0  0  0  0  0
  -21.9740    1.8760  -36.7680 I   0  0  0  0  0  0  0  0  0  0  0  0
  -20.7410   -0.4020  -35.1920 C   0  0  0  0  0  3  0  0  0  0  0  0
  -20.6960   -1.4990  -34.3970 C   0  0  0  0  0  3  0  0  0  0  0  0
  -19.0000   -0.4610  -26.8930 C   0  0  0  0  0  0  0  0  0  0  0  0
  -18.9510    0.8360  -27.3310 C   0  0  0  0  0  3  0  0  0  0  0  0
  -18.4720    1.8820  -26.5180 C   0  0  0  0  0  3  0  0  0  0  0  0
  -18.0330    1.6200  -25.2410 C   0  0  0  0  0  3  0  0  0  0  0  0
  -18.0800    0.3220  -24.7970 C   0  0  0  0  0  3  0  0  0  0  0  0
  -18.5540   -0.7020  -25.6060 C   0  0  0  0  0  3  0  0  0  0  0  0
  1  2  1  0  0  0  0
  2  6  1  0  0  0  0
  2  3  1  6  0  0  0
  3  4  1  0  0  0  0
  5  4  2  0  0  0  0
  5 19  1  0  0  0  0
  6  5  1  0  0  0  0
  7  6  1  0  0  0  0
  8  1  1  0  0  0  0
  8  7  2  0  0  0  0
  9  1  1  0  0  0  0
 10 11  1  1  0  0  0
 10  9  1  0  0  0  0
 12 10  1  0  0  0  0
 13 12  1  0  0  0  0
 14 13  2  0  0  0  0
 15 17  2  0  0  0  0
 15 14  1  0  0  0  0
 16 15  1  0  0  0  0
 17 18  1  0  0  0  0
 18 12  2  0  0  0  0
 19 24  1  0  0  0  0
 20 19  2  0  0  0  0
 20 21  1  0  0  0  0
 21 22  2  0  0  0  0
 22 23  1  0  0  0  0
 24 23  2  0  0  0  0
M  END
>  <Pose>
1

>  <Score>
-9.116

$$$$
