MODEL 1
REMARK VINA RESULT:    -8.376      0.000      0.000
REMARK INTER + INTRA:         -11.662
REMARK INTER:                 -10.825
REMARK INTRA:                  -0.837
REMARK UNBOUND:                -0.837
REMARK  5 active torsions:
REMARK  status: ('A' for Active; 'I' for Inactive)
REMARK    1  A    between atoms: C_5  and  C_8 
REMARK    2  A    between atoms: N_9  and  N_10 
REMARK    3  A    between atoms: N_10  and  C_11 
REMARK    4  A    between atoms: C_13  and  N_23 
REMARK    5  A    between atoms: C_15  and  N_17 
ROOT
ATOM      1  C   UNK d   1     -22.627  -1.668 -34.402  0.00  0.00     0.774 A 
ATOM      2  N   UNK d   1     -22.091  -0.469 -34.118  0.00  0.00     0.133 NA
ATOM      3  C   UNK d   1     -21.800   0.409 -35.086  0.00  0.00     0.756 A 
ATOM      4  N   UNK d   1     -22.070   0.031 -36.347  0.00  0.00     0.131 NA
ATOM      5  C   UNK d   1     -22.607  -1.163 -36.671  0.00  0.00     0.756 A 
ATOM      6  N   UNK d   1     -22.885  -2.016 -35.669  0.00  0.00     0.133 NA
ENDROOT
BRANCH   1   7
ATOM      7  N   UNK d   1     -22.933  -2.600 -33.338  0.00  0.00    -0.105 N 
ATOM      8  H   UNK d   1     -23.580  -2.317 -32.570  0.00  0.00     0.208 HD
BRANCH   7   9
ATOM      9  N   UNK d   1     -22.351  -3.824 -33.340  0.00  0.00    -0.172 NA
ATOM     10  C   UNK d   1     -21.480  -4.197 -32.510  0.00  0.00     0.150 C 
BRANCH  10  11
ATOM     11  C   UNK d   1     -20.921  -3.456 -31.413  0.00  0.00    -0.017 A 
ATOM     12  C   UNK d   1     -20.259  -2.264 -31.467  0.00  0.00     0.014 A 
ATOM     13  C   UNK d   1     -19.749  -1.619 -30.331  0.00  0.00     0.019 A 
ATOM     14  C   UNK d   1     -19.906  -2.181 -29.102  0.00  0.00     0.006 A 
ATOM     15  I   UNK d   1     -19.182  -1.296 -27.350  0.00  0.00    -0.045 I 
ATOM     16  C   UNK d   1     -20.570  -3.385 -29.018  0.00  0.00     0.019 A 
ATOM     17  C   UNK d   1     -21.068  -4.013 -30.134  0.00  0.00     0.014 A 
ENDBRANCH  10  11
ENDBRANCH   7   9
ENDBRANCH   1   7
BRANCH   3  18
ATOM     18  N   UNK d   1     -21.230   1.687 -34.808  0.00  0.00    -0.209 N 
ATOM     19  C   UNK d   1     -21.855   2.923 -35.171  0.00  0.00     0.167 C 
ATOM     20  C   UNK d   1     -20.863   4.049 -34.872  0.00  0.00     0.188 C 
ATOM     21  O   UNK d   1     -19.611   3.777 -35.398  0.00  0.00    -0.388 OA
ATOM     22  C   UNK d   1     -19.000   2.691 -34.823  0.00  0.00     0.188 C 
ATOM     23  C   UNK d   1     -19.949   1.753 -34.122  0.00  0.00     0.167 C 
ENDBRANCH   3  18
BRANCH   5  24
ATOM     24  N   UNK d   1     -22.860  -1.484 -38.032  0.00  0.00    -0.209 N 
ATOM     25  C   UNK d   1     -23.874  -2.460 -38.359  0.00  0.00     0.167 C 
ATOM     26  C   UNK d   1     -23.340  -3.202 -39.593  0.00  0.00     0.188 C 
ATOM     27  O   UNK d   1     -23.298  -2.304 -40.627  0.00  0.00    -0.388 OA
ATOM     28  C   UNK d   1     -22.473  -1.227 -40.464  0.00  0.00     0.188 C 
ATOM     29  C   UNK d   1     -22.122  -0.853 -39.070  0.00  0.00     0.167 C 
ENDBRANCH   5  24
TORSDOF 5
ENDMDL
