/Users/jonathanwahrer/Desktop/Msc/3_Semester/Drug_Design_Praktikum/waehrer_HTS_screening/HTS_experiment/out/docking_results/vina_output/5l4q/0935_docked.pdbqt
 OpenBabel03212218233D

 34 38  0  0  1  0  0  0  0  0999 V2000
  -20.5560   -1.6530  -31.1270 N   0  0  0  0  0  0  0  0  0  0  0  0
  -20.6950   -1.1010  -32.3450 C   0  0  0  0  0  0  0  0  0  0  0  0
  -21.2870   -1.7660  -33.3960 C   0  0  2  0  0  3  0  0  0  0  0  0
  -21.7360   -3.0440  -33.1260 C   0  0  0  0  0  0  0  0  0  0  0  0
  -22.3020   -3.7870  -33.9830 O   0  0  0  0  0  0  0  0  0  0  0  0
  -21.6010   -3.6180  -31.8900 N   0  0  0  0  0  0  0  0  0  0  0  0
  -21.0100   -2.9000  -30.9190 C   0  0  0  0  0  0  0  0  0  0  0  0
  -20.8630   -3.3850  -29.7680 O   0  0  0  0  0  0  0  0  0  0  0  0
  -20.2380    0.1720  -32.5720 O   0  0  0  0  0  0  0  0  0  0  0  0
  -21.9390   -4.5780  -31.6920 H   0  0  0  0  0  0  0  0  0  0  0  0
  -21.4580   -1.2450  -34.7390 C   0  0  1  0  0  3  0  0  0  0  0  0
  -22.6600   -1.5860  -35.4310 N   0  0  0  0  0  4  0  0  0  0  0  0
  -23.8620   -1.0700  -34.8340 C   0  0  0  0  0  2  0  0  0  0  0  0
  -22.5590   -0.8960  -36.7430 C   0  0  0  0  0  1  0  0  0  0  0  0
  -22.7580   -2.5700  -35.7300 H   0  0  0  0  0  0  0  0  0  0  0  0
  -23.6010   -0.0650  -33.7320 C   0  0  0  0  0  2  0  0  0  0  0  0
  -22.5250    0.8860  -34.2010 C   0  0  0  0  0  0  0  0  0  0  0  0
  -21.4290    0.2620  -34.7400 C   0  0  0  0  0  0  0  0  0  0  0  0
  -22.6230    2.2370  -34.1370 C   0  0  0  0  0  3  0  0  0  0  0  0
  -20.3830    1.0000  -35.2400 C   0  0  0  0  0  0  0  0  0  0  0  0
  -20.4890    2.3810  -35.1720 C   0  0  0  0  0  0  0  0  0  0  0  0
  -21.5840    3.0240  -34.6320 C   0  0  0  0  0  0  0  0  0  0  0  0
  -19.6260    3.4100  -35.5810 O   0  0  0  0  0  0  0  0  0  0  0  0
  -21.3770    4.3920  -34.7170 O   0  0  0  0  0  0  0  0  0  0  0  0
  -19.9850    4.6370  -34.9740 C   0  0  0  0  0  2  0  0  0  0  0  0
  -19.2960    0.3700  -35.7770 O   0  0  0  0  0  0  0  0  0  0  0  0
  -18.9740    0.2500  -37.1260 C   0  0  0  0  0  1  0  0  0  0  0  0
  -19.9410   -0.9490  -30.0600 C   0  0  0  0  0  0  0  0  0  0  0  0
  -18.6210   -1.1570  -29.6930 C   0  0  0  0  0  3  0  0  0  0  0  0
  -18.0280   -0.4810  -28.6670 C   0  0  0  0  0  3  0  0  0  0  0  0
  -18.7450    0.4610  -27.9370 C   0  0  0  0  0  0  0  0  0  0  0  0
  -17.8200    1.4940  -26.3620 I   0  0  0  0  0  0  0  0  0  0  0  0
  -20.0550    0.6700  -28.2990 C   0  0  0  0  0  3  0  0  0  0  0  0
  -20.6640   -0.0080  -29.3340 C   0  0  0  0  0  3  0  0  0  0  0  0
  1  7  1  0  0  0  0
  1 28  1  0  0  0  0
  2  1  1  0  0  0  0
  3  4  1  6  0  0  0
  3  2  1  0  0  0  0
  4  6  1  0  0  0  0
  5  4  2  0  0  0  0
  6 10  1  0  0  0  0
  6  7  1  0  0  0  0
  7  8  2  0  0  0  0
  9  2  2  0  0  0  0
 11 18  1  1  0  0  0
 11  3  1  0  0  0  0
 12 13  1  0  0  0  0
 12 11  1  0  0  0  0
 13 16  1  0  0  0  0
 14 12  1  0  0  0  0
 15 12  1  0  0  0  0
 17 19  1  0  0  0  0
 17 16  1  0  0  0  0
 18 17  2  0  0  0  0
 20 21  2  0  0  0  0
 20 18  1  0  0  0  0
 21 22  1  0  0  0  0
 22 19  2  0  0  0  0
 23 21  1  0  0  0  0
 23 25  1  0  0  0  0
 24 22  1  0  0  0  0
 25 24  1  0  0  0  0
 26 20  1  0  0  0  0
 27 26  1  0  0  0  0
 28 29  2  0  0  0  0
 28 34  1  0  0  0  0
 29 30  1  0  0  0  0
 30 31  2  0  0  0  0
 31 32  1  0  0  0  0
 33 31  1  0  0  0  0
 34 33  2  0  0  0  0
M  END
>  <Pose>
1

>  <Score>
-9.399

$$$$
