MODEL 1
REMARK VINA RESULT:    -9.399      0.000      0.000
REMARK INTER + INTRA:          -9.606
REMARK INTER:                 -11.047
REMARK INTRA:                   1.441
REMARK UNBOUND:                 1.441
REMARK  3 active torsions:
REMARK  status: ('A' for Active; 'I' for Inactive)
REMARK    1  A    between atoms: C_5  and  N_8 
REMARK    2  A    between atoms: C_10  and  C_16 
REMARK    3  A    between atoms: C_22  and  O_29 
ROOT
ATOM      1  N   UNK d   1     -20.556  -1.653 -31.127  0.00  0.00    -0.241 N 
ATOM      2  C   UNK d   1     -20.695  -1.101 -32.345  0.00  0.00     0.204 A 
ATOM      3  C   UNK d   1     -21.287  -1.766 -33.396  0.00  0.00     0.100 A 
ATOM      4  C   UNK d   1     -21.736  -3.044 -33.126  0.00  0.00     0.262 A 
ATOM      5  O   UNK d   1     -22.302  -3.787 -33.983  0.00  0.00    -0.267 OA
ATOM      6  N   UNK d   1     -21.601  -3.618 -31.890  0.00  0.00    -0.274 N 
ATOM      7  C   UNK d   1     -21.010  -2.900 -30.919  0.00  0.00     0.336 A 
ATOM      8  O   UNK d   1     -20.863  -3.385 -29.768  0.00  0.00    -0.246 OA
ATOM      9  O   UNK d   1     -20.238   0.172 -32.572  0.00  0.00    -0.171 OA
ATOM     10  H   UNK d   1     -21.939  -4.578 -31.692  0.00  0.00     0.173 HD
ENDROOT
BRANCH   3  11
ATOM     11  C   UNK d   1     -21.458  -1.245 -34.739  0.00  0.00     0.267 C 
ATOM     12  N   UNK d   1     -22.660  -1.586 -35.431  0.00  0.00    -0.062 N 
ATOM     13  C   UNK d   1     -23.862  -1.070 -34.834  0.00  0.00     0.240 C 
ATOM     14  C   UNK d   1     -22.559  -0.896 -36.743  0.00  0.00     0.270 C 
ATOM     15  H   UNK d   1     -22.758  -2.570 -35.730  0.00  0.00     0.280 HD
ATOM     16  C   UNK d   1     -23.601  -0.065 -33.732  0.00  0.00     0.067 C 
ATOM     17  C   UNK d   1     -22.525   0.886 -34.201  0.00  0.00    -0.042 A 
ATOM     18  C   UNK d   1     -21.429   0.262 -34.740  0.00  0.00     0.020 A 
ATOM     19  C   UNK d   1     -22.623   2.237 -34.137  0.00  0.00     0.047 A 
ATOM     20  C   UNK d   1     -20.383   1.000 -35.240  0.00  0.00     0.113 A 
ATOM     21  C   UNK d   1     -20.489   2.381 -35.172  0.00  0.00     0.139 A 
ATOM     22  C   UNK d   1     -21.584   3.024 -34.632  0.00  0.00     0.108 A 
ATOM     23  O   UNK d   1     -19.626   3.410 -35.581  0.00  0.00    -0.320 OA
ATOM     24  O   UNK d   1     -21.377   4.392 -34.717  0.00  0.00    -0.323 OA
ATOM     25  C   UNK d   1     -19.985   4.637 -34.974  0.00  0.00     0.352 C 
BRANCH  20  26
ATOM     26  O   UNK d   1     -19.296   0.370 -35.777  0.00  0.00    -0.352 OA
ATOM     27  C   UNK d   1     -18.974   0.250 -37.126  0.00  0.00     0.210 C 
ENDBRANCH  20  26
ENDBRANCH   3  11
BRANCH   1  28
ATOM     28  C   UNK d   1     -19.941  -0.949 -30.060  0.00  0.00     0.046 A 
ATOM     29  C   UNK d   1     -18.621  -1.157 -29.693  0.00  0.00     0.031 A 
ATOM     30  C   UNK d   1     -18.028  -0.481 -28.667  0.00  0.00     0.020 A 
ATOM     31  C   UNK d   1     -18.745   0.461 -27.937  0.00  0.00     0.006 A 
ATOM     32  I   UNK d   1     -17.820   1.494 -26.362  0.00  0.00    -0.045 I 
ATOM     33  C   UNK d   1     -20.055   0.670 -28.299  0.00  0.00     0.020 A 
ATOM     34  C   UNK d   1     -20.664  -0.008 -29.334  0.00  0.00     0.031 A 
ENDBRANCH   1  28
TORSDOF 3
ENDMDL
