MODEL 1
REMARK VINA RESULT:    -8.134      0.000      0.000
REMARK INTER + INTRA:         -10.084
REMARK INTER:                  -9.561
REMARK INTRA:                  -0.523
REMARK UNBOUND:                -0.523
REMARK  3 active torsions:
REMARK  status: ('A' for Active; 'I' for Inactive)
REMARK    1  A    between atoms: C_5  and  N_8 
REMARK    2  A    between atoms: C_11  and  N_15 
REMARK    3  A    between atoms: N_18  and  C_21 
ROOT
ATOM      1  N   UNK d   1     -20.351  -2.124 -31.328  0.00  0.00    -0.251 N 
ATOM      2  C   UNK d   1     -19.945  -1.787 -32.644  0.00  0.00     0.254 C 
ATOM      3  O   UNK d   1     -18.868  -1.194 -32.912  0.00  0.00    -0.270 OA
ATOM      4  C   UNK d   1     -20.975  -2.244 -33.618  0.00  0.00     0.181 C 
ATOM      5  C   UNK d   1     -21.563  -3.443 -32.894  0.00  0.00     0.138 C 
ATOM      6  C   UNK d   1     -21.294  -3.184 -31.466  0.00  0.00     0.233 C 
ATOM      7  O   UNK d   1     -21.807  -3.793 -30.482  0.00  0.00    -0.273 OA
ENDROOT
BRANCH   4   8
ATOM      8  N   UNK d   1     -21.891  -1.198 -33.817  0.00  0.00    -0.397 N 
ATOM      9  C   UNK d   1     -21.461   0.095 -34.117  0.00  0.00     0.138 C 
ATOM     10  C   UNK d   1     -22.614   0.788 -34.889  0.00  0.00     0.161 C 
ATOM     11  N   UNK d   1     -23.041  -0.107 -35.954  0.00  0.00    -0.211 N 
ATOM     12  C   UNK d   1     -23.540  -1.398 -35.546  0.00  0.00     0.161 C 
ATOM     13  C   UNK d   1     -23.231  -1.552 -34.060  0.00  0.00     0.138 C 
BRANCH  11  14
ATOM     14  C   UNK d   1     -22.961   0.276 -37.308  0.00  0.00     0.724 A 
ATOM     15  N   UNK d   1     -22.797  -0.657 -38.286  0.00  0.00    -0.075 NA
ATOM     16  C   UNK d   1     -22.725  -0.358 -39.581  0.00  0.00     0.138 A 
ATOM     17  C   UNK d   1     -22.815   0.963 -39.998  0.00  0.00     0.040 A 
ATOM     18  C   UNK d   1     -22.981   1.907 -39.000  0.00  0.00     0.138 A 
ATOM     19  N   UNK d   1     -23.050   1.561 -37.707  0.00  0.00    -0.075 NA
ENDBRANCH  11  14
ENDBRANCH   4   8
BRANCH   1  20
ATOM     20  C   UNK d   1     -19.920  -1.538 -30.085  0.00  0.00     0.045 A 
ATOM     21  C   UNK d   1     -19.231  -2.308 -29.171  0.00  0.00     0.031 A 
ATOM     22  C   UNK d   1     -18.800  -1.791 -27.966  0.00  0.00     0.020 A 
ATOM     23  C   UNK d   1     -19.047  -0.476 -27.632  0.00  0.00     0.006 A 
ATOM     24  I   UNK d   1     -18.404   0.355 -25.799  0.00  0.00    -0.045 I 
ATOM     25  C   UNK d   1     -19.734   0.308 -28.532  0.00  0.00     0.020 A 
ATOM     26  C   UNK d   1     -20.156  -0.230 -29.732  0.00  0.00     0.031 A 
ENDBRANCH   1  20
TORSDOF 3
ENDMDL
