/Users/jonathanwahrer/Desktop/Msc/3_Semester/Drug_Design_Praktikum/waehrer_HTS_screening/HTS_experiment/out/docking_results/vina_output/5l4q/0950_docked.pdbqt
 OpenBabel03212218233D

 26 29  0  0  0  0  0  0  0  0999 V2000
  -20.9930   -0.1920  -32.9350 C   0  0  0  0  0  0  0  0  0  0  0  0
  -21.6340   -1.2230  -33.6290 C   0  0  0  0  0  0  0  0  0  0  0  0
  -22.0060   -2.4570  -33.2460 N   0  0  0  0  0  0  0  0  0  0  0  0
  -22.5720   -3.0480  -34.2570 O   0  0  0  0  0  0  0  0  0  0  0  0
  -22.5900   -2.2600  -35.2870 N   0  0  0  0  0  0  0  0  0  0  0  0
  -22.0090   -1.0960  -34.9400 C   0  0  0  0  0  0  0  0  0  0  0  0
  -21.7550    0.0790  -35.6150 C   0  0  0  0  0  0  0  0  0  0  0  0
  -21.1270    1.0840  -34.9240 C   0  0  0  0  0  3  0  0  0  0  0  0
  -20.7390    0.9630  -33.5840 C   0  0  0  0  0  3  0  0  0  0  0  0
  -20.6520   -0.4350  -31.5840 N   0  0  0  0  0  0  0  0  0  0  0  0
  -19.3770   -0.5660  -31.0500 C   0  0  0  0  0  0  0  0  0  0  0  0
  -18.3540   -0.4700  -31.8140 O   0  0  0  0  0  0  0  0  0  0  0  0
  -21.4480   -0.5450  -30.8790 H   0  0  0  0  0  0  0  0  0  0  0  0
  -19.0800   -0.8170  -29.6280 C   0  0  0  0  0  0  0  0  0  0  0  0
  -19.3720   -1.8500  -28.8060 C   0  0  0  0  0  0  0  0  0  0  0  0
  -20.4690   -3.5720  -29.2230 I   0  0  0  0  0  0  0  0  0  0  0  0
  -18.8110   -1.5600  -27.5620 C   0  0  0  0  0  3  0  0  0  0  0  0
  -18.1980   -0.3780  -27.6420 N   0  0  0  0  0  0  0  0  0  0  0  0
  -18.3550    0.0640  -28.8590 N   0  0  0  0  0  0  0  0  0  0  0  0
  -17.4860    0.2740  -26.5340 C   0  0  0  0  0  1  0  0  0  0  0  0
  -22.1510    0.1910  -36.9720 N   0  0  0  0  0  0  0  0  0  0  0  0
  -21.1760    0.0750  -38.0370 C   0  0  0  0  0  2  0  0  0  0  0  0
  -21.8780    0.1500  -39.3480 C   0  0  0  0  0  2  0  0  0  0  0  0
  -22.9790   -0.6780  -39.4510 O   0  0  0  0  0  0  0  0  0  0  0  0
  -23.9330   -0.4930  -38.5010 C   0  0  0  0  0  2  0  0  0  0  0  0
  -23.5230    0.4240  -37.3750 C   0  0  0  0  0  2  0  0  0  0  0  0
  1 10  1  0  0  0  0
  2  3  2  0  0  0  0
  2  1  1  0  0  0  0
  4  3  1  0  0  0  0
  5  6  2  0  0  0  0
  5  4  1  0  0  0  0
  6  2  1  0  0  0  0
  7  6  1  0  0  0  0
  7  8  2  0  0  0  0
  8  9  1  0  0  0  0
  9  1  2  0  0  0  0
 10 11  1  0  0  0  0
 10 13  1  0  0  0  0
 11 14  1  0  0  0  0
 12 11  2  0  0  0  0
 14 19  2  0  0  0  0
 14 15  1  0  0  0  0
 15 17  2  0  0  0  0
 16 15  1  0  0  0  0
 18 17  1  0  0  0  0
 18 20  1  0  0  0  0
 19 18  1  0  0  0  0
 21  7  1  0  0  0  0
 22 21  1  0  0  0  0
 23 22  1  0  0  0  0
 24 23  1  0  0  0  0
 24 25  1  0  0  0  0
 25 26  1  0  0  0  0
 26 21  1  0  0  0  0
M  END
>  <Pose>
1

>  <Score>
-8.119

$$$$
