MODEL 1
REMARK VINA RESULT:    -9.375      0.000      0.000
REMARK INTER + INTRA:         -12.625
REMARK INTER:                 -12.116
REMARK INTRA:                  -0.509
REMARK UNBOUND:                -0.509
REMARK  6 active torsions:
REMARK  status: ('A' for Active; 'I' for Inactive)
REMARK    1  A    between atoms: N_5  and  C_7 
REMARK    2  A    between atoms: C_9  and  C_13 
REMARK    3  A    between atoms: C_10  and  O_12 
REMARK    4  A    between atoms: C_13  and  O_14 
REMARK    5  A    between atoms: C_18  and  N_19 
REMARK       I    between atoms: N_19  and  C_20 
REMARK    6  A    between atoms: C_20  and  C_22 
ROOT
ATOM      1  I   UNK d   1     -21.314  -4.128 -31.405  0.00  0.00    -0.042 I 
ATOM      2  C   UNK d   1     -21.477  -2.591 -32.838  0.00  0.00     0.040 A 
ATOM      3  C   UNK d   1     -20.833  -1.390 -32.812  0.00  0.00     0.074 A 
ATOM      4  C   UNK d   1     -21.267  -0.736 -33.966  0.00  0.00     0.148 A 
ATOM      5  N   UNK d   1     -22.125  -1.481 -34.664  0.00  0.00    -0.312 N 
ATOM      6  C   UNK d   1     -22.258  -2.618 -33.981  0.00  0.00     0.114 A 
ATOM      7  N   UNK d   1     -20.784   0.495 -34.203  0.00  0.00    -0.223 NA
ATOM      8  C   UNK d   1     -19.915   1.074 -33.358  0.00  0.00     0.237 A 
ATOM      9  N   UNK d   1     -19.501   0.444 -32.255  0.00  0.00    -0.223 NA
ATOM     10  C   UNK d   1     -19.943  -0.812 -31.936  0.00  0.00     0.147 A 
ENDROOT
BRANCH   5  11
ATOM     11  C   UNK d   1     -22.790  -1.171 -35.894  0.00  0.00     0.232 C 
ATOM     12  O   UNK d   1     -23.298  -2.286 -36.550  0.00  0.00    -0.356 OA
ATOM     13  C   UNK d   1     -23.757  -1.744 -37.748  0.00  0.00     0.176 C 
ATOM     14  C   UNK d   1     -22.738  -0.719 -38.187  0.00  0.00     0.153 C 
ATOM     15  C   UNK d   1     -21.828  -0.630 -36.955  0.00  0.00     0.088 C 
BRANCH  13  16
ATOM     16  C   UNK d   1     -23.775  -2.826 -38.837  0.00  0.00     0.198 C 
BRANCH  16  17
ATOM     17  O   UNK d   1     -22.465  -3.028 -39.292  0.00  0.00    -0.398 OA
ATOM     18  H   UNK d   1     -22.131  -2.216 -39.789  0.00  0.00     0.209 HD
ENDBRANCH  16  17
ENDBRANCH  13  16
BRANCH  14  19
ATOM     19  O   UNK d   1     -23.309   0.545 -38.339  0.00  0.00    -0.393 OA
ATOM     20  H   UNK d   1     -22.828   1.135 -37.680  0.00  0.00     0.210 HD
ENDBRANCH  14  19
ENDBRANCH   5  11
BRANCH  10  21
ATOM     21  N   UNK d   1     -19.468  -1.434 -30.747  0.00  0.00    -0.306 N 
ATOM     22  C   UNK d   1     -19.960  -0.972 -29.492  0.00  0.00     0.257 C 
ATOM     23  O   UNK d   1     -20.794  -0.032 -29.512  0.00  0.00    -0.267 OA
ATOM     24  H   UNK d   1     -18.791  -2.201 -30.704  0.00  0.00     0.170 HD
BRANCH  22  25
ATOM     25  C   UNK d   1     -19.565  -1.509 -28.219  0.00  0.00     0.032 A 
ATOM     26  C   UNK d   1     -18.745  -0.811 -27.377  0.00  0.00     0.017 A 
ATOM     27  C   UNK d   1     -18.356  -1.317 -26.135  0.00  0.00     0.001 A 
ATOM     28  C   UNK d   1     -18.803  -2.545 -25.742  0.00  0.00     0.000 A 
ATOM     29  C   UNK d   1     -19.626  -3.268 -26.566  0.00  0.00     0.001 A 
ATOM     30  C   UNK d   1     -20.004  -2.741 -27.806  0.00  0.00     0.017 A 
ENDBRANCH  22  25
ENDBRANCH  10  21
TORSDOF 6
ENDMDL
