/Users/jonathanwahrer/Desktop/Msc/3_Semester/Drug_Design_Praktikum/waehrer_HTS_screening/HTS_experiment/out/docking_results/vina_output/5l4q/0961_docked.pdbqt
 OpenBabel03212218243D

 29 33  0  0  1  0  0  0  0  0999 V2000
  -20.4140   -3.1020  -30.6280 C   0  0  1  0  0  3  0  0  0  0  0  0
  -20.7330   -4.3740  -30.6340 N   0  0  0  0  0  0  0  0  0  0  0  0
  -21.4510   -4.8920  -31.6750 C   0  0  0  0  0  3  0  0  0  0  0  0
  -21.8720   -4.1610  -32.7430 C   0  0  0  0  0  3  0  0  0  0  0  0
  -21.5540   -2.8210  -32.7740 C   0  0  0  0  0  0  0  0  0  0  0  0
  -21.7970   -1.7930  -33.6580 N   0  0  0  0  0  0  0  0  0  0  0  0
  -21.2590   -0.6780  -33.1950 C   0  0  0  0  0  0  0  0  0  0  0  0
  -20.6730   -1.0090  -32.0120 N   0  0  0  0  0  0  0  0  0  0  0  0
  -20.8380   -2.3080  -31.7320 C   0  0  0  0  0  0  0  0  0  0  0  0
  -22.5190   -2.0430  -34.8740 C   0  0  0  0  0  1  0  0  0  0  0  0
  -20.2910   -5.2800  -29.6160 C   0  0  0  0  0  1  0  0  0  0  0  0
  -19.7500   -2.3750  -29.5610 C   0  0  0  0  0  3  0  0  0  0  0  0
  -20.1960   -1.7830  -28.5100 C   0  0  0  0  0  3  0  0  0  0  0  0
  -19.5350   -1.0680  -27.4420 C   0  0  0  0  0  0  0  0  0  0  0  0
  -19.0200   -1.5980  -26.3050 C   0  0  0  0  0  0  0  0  0  0  0  0
  -19.2590   -3.4450  -25.9040 Br  0  0  0  0  0  0  0  0  0  0  0  0
  -18.3330   -0.8080  -25.3500 C   0  0  0  0  0  3  0  0  0  0  0  0
  -18.1650    0.5360  -25.5470 C   0  0  0  0  0  0  0  0  0  0  0  0
  -18.6790    1.1030  -26.6920 C   0  0  0  0  0  0  0  0  0  0  0  0
  -17.5570    1.5690  -24.8270 O   0  0  0  0  0  0  0  0  0  0  0  0
  -19.3450    0.3260  -27.6140 C   0  0  0  0  0  3  0  0  0  0  0  0
  -18.3750    2.4730  -26.6470 O   0  0  0  0  0  0  0  0  0  0  0  0
  -17.2730    2.6000  -25.7720 C   0  0  0  0  0  2  0  0  0  0  0  0
  -21.2380    0.6630  -33.7910 C   0  0  0  0  0  0  0  0  0  0  0  0
  -22.3240    1.4500  -33.9840 C   0  0  0  0  0  3  0  0  0  0  0  0
  -22.1850    2.7110  -34.5940 C   0  0  0  0  0  3  0  0  0  0  0  0
  -20.9470    3.1540  -34.9980 C   0  0  0  0  0  3  0  0  0  0  0  0
  -19.8180    2.3670  -34.8110 C   0  0  0  0  0  3  0  0  0  0  0  0
  -19.9970    1.1600  -34.2200 C   0  0  0  0  0  3  0  0  0  0  0  0
  1 12  1  1  0  0  0
  2  1  1  0  0  0  0
  2 11  1  0  0  0  0
  3  2  1  0  0  0  0
  4  3  2  0  0  0  0
  5  4  1  0  0  0  0
  5  9  2  0  0  0  0
  6  7  1  0  0  0  0
  6  5  1  0  0  0  0
  7  8  2  0  0  0  0
  8  9  1  0  0  0  0
  9  1  1  0  0  0  0
 10  6  1  0  0  0  0
 12 13  2  0  0  0  0
 13 14  1  0  0  0  0
 14 15  1  0  0  0  0
 15 16  1  0  0  0  0
 15 17  2  0  0  0  0
 18 17  1  0  0  0  0
 18 20  1  0  0  0  0
 19 22  1  0  0  0  0
 19 18  2  0  0  0  0
 21 14  2  0  0  0  0
 21 19  1  0  0  0  0
 22 23  1  0  0  0  0
 23 20  1  0  0  0  0
 24  7  1  0  0  0  0
 25 24  1  0  0  0  0
 26 25  2  0  0  0  0
 27 28  2  0  0  0  0
 27 26  1  0  0  0  0
 28 29  1  0  0  0  0
 29 24  2  0  0  0  0
M  END
>  <Pose>
1

>  <Score>
-10.230

$$$$
