MODEL 1
REMARK VINA RESULT:   -10.230      0.000      0.000
REMARK INTER + INTRA:         -12.762
REMARK INTER:                 -12.024
REMARK INTRA:                  -0.738
REMARK UNBOUND:                -0.738
REMARK  3 active torsions:
REMARK  status: ('A' for Active; 'I' for Inactive)
REMARK    1  A    between atoms: C_7  and  C_8 
REMARK    2  A    between atoms: C_9  and  C_10 
REMARK    3  A    between atoms: C_16  and  C_19 
ROOT
ATOM      1  C   UNK d   1     -20.414  -3.102 -30.628  0.00  0.00     0.065 A 
ATOM      2  N   UNK d   1     -20.733  -4.374 -30.634  0.00  0.00    -0.359 N 
ATOM      3  C   UNK d   1     -21.451  -4.892 -31.675  0.00  0.00     0.093 A 
ATOM      4  C   UNK d   1     -21.872  -4.161 -32.743  0.00  0.00     0.049 A 
ATOM      5  C   UNK d   1     -21.554  -2.821 -32.774  0.00  0.00     0.068 A 
ATOM      6  N   UNK d   1     -21.797  -1.793 -33.658  0.00  0.00    -0.333 N 
ATOM      7  C   UNK d   1     -21.259  -0.678 -33.195  0.00  0.00     0.141 A 
ATOM      8  N   UNK d   1     -20.673  -1.009 -32.012  0.00  0.00    -0.226 NA
ATOM      9  C   UNK d   1     -20.838  -2.308 -31.732  0.00  0.00     0.113 A 
ATOM     10  C   UNK d   1     -22.519  -2.043 -34.874  0.00  0.00     0.158 C 
ATOM     11  C   UNK d   1     -20.291  -5.280 -29.616  0.00  0.00     0.156 C 
ENDROOT
BRANCH   1  12
ATOM     12  C   UNK d   1     -19.750  -2.375 -29.561  0.00  0.00     0.033 C 
ATOM     13  C   UNK d   1     -20.196  -1.783 -28.510  0.00  0.00     0.015 C 
BRANCH  13  14
ATOM     14  C   UNK d   1     -19.535  -1.068 -27.442  0.00  0.00    -0.016 A 
ATOM     15  C   UNK d   1     -19.020  -1.598 -26.305  0.00  0.00     0.024 A 
ATOM     16 Br   UNK d   1     -19.259  -3.445 -25.904  0.00  0.00    -0.050 Br
ATOM     17  C   UNK d   1     -18.333  -0.808 -25.350  0.00  0.00     0.059 A 
ATOM     18  C   UNK d   1     -18.165   0.536 -25.547  0.00  0.00     0.106 A 
ATOM     19  C   UNK d   1     -18.679   1.103 -26.692  0.00  0.00     0.105 A 
ATOM     20  O   UNK d   1     -17.557   1.569 -24.827  0.00  0.00    -0.323 OA
ATOM     21  C   UNK d   1     -19.345   0.326 -27.614  0.00  0.00     0.052 A 
ATOM     22  O   UNK d   1     -18.375   2.473 -26.647  0.00  0.00    -0.323 OA
ATOM     23  C   UNK d   1     -17.273   2.600 -25.772  0.00  0.00     0.352 C 
ENDBRANCH  13  14
ENDBRANCH   1  12
BRANCH   7  24
ATOM     24  C   UNK d   1     -21.238   0.663 -33.791  0.00  0.00     0.010 A 
ATOM     25  C   UNK d   1     -22.324   1.450 -33.984  0.00  0.00     0.015 A 
ATOM     26  C   UNK d   1     -22.185   2.711 -34.594  0.00  0.00     0.001 A 
ATOM     27  C   UNK d   1     -20.947   3.154 -34.998  0.00  0.00     0.000 A 
ATOM     28  C   UNK d   1     -19.818   2.367 -34.811  0.00  0.00     0.001 A 
ATOM     29  C   UNK d   1     -19.997   1.160 -34.220  0.00  0.00     0.015 A 
ENDBRANCH   7  24
TORSDOF 3
ENDMDL
