MODEL 1
REMARK VINA RESULT:    -7.123      0.000      0.000
REMARK INTER + INTRA:          -8.969
REMARK INTER:                  -7.955
REMARK INTRA:                  -1.014
REMARK UNBOUND:                -1.014
REMARK  2 active torsions:
REMARK  status: ('A' for Active; 'I' for Inactive)
REMARK    1  A    between atoms: C_10  and  C_21 
REMARK    2  A    between atoms: C_26  and  C_27 
ROOT
ATOM      1 Br   UNK d   1     -20.030   4.934 -33.721  0.00  0.00    -0.045 Br
ATOM      2  C   UNK d   1     -20.390   3.271 -34.570  0.00  0.00     0.083 A 
ATOM      3  C   UNK d   1     -21.093   3.161 -35.766  0.00  0.00     0.107 A 
ATOM      4  C   UNK d   1     -21.331   1.925 -36.345  0.00  0.00     0.013 A 
ATOM      5  C   UNK d   1     -20.869   0.776 -35.735  0.00  0.00     0.037 A 
ATOM      6  C   UNK d   1     -20.178   0.876 -34.560  0.00  0.00     0.049 A 
ATOM      7  C   UNK d   1     -19.946   2.103 -33.993  0.00  0.00     0.144 A 
ATOM      8  O   UNK d   1     -19.227   2.126 -32.784  0.00  0.00    -0.189 OA
ATOM      9 Br   UNK d   1     -19.562  -0.761 -33.766  0.00  0.00    -0.048 Br
ATOM     10  C   UNK d   1     -22.023   1.788 -37.528  0.00  0.00     0.003 A 
ATOM     11  C   UNK d   1     -22.481   2.940 -38.131  0.00  0.00     0.013 A 
ATOM     12  C   UNK d   1     -22.184   4.205 -37.448  0.00  0.00     0.108 A 
ATOM     13  C   UNK d   1     -22.655   5.363 -38.070  0.00  0.00     0.097 A 
ATOM     14  C   UNK d   1     -23.352   5.289 -39.254  0.00  0.00     0.209 A 
ATOM     15  O   UNK d   1     -23.756   6.358 -39.778  0.00  0.00    -0.285 OA
ATOM     16  C   UNK d   1     -23.617   4.074 -39.876  0.00  0.00     0.063 A 
ATOM     17  C   UNK d   1     -23.186   2.903 -39.324  0.00  0.00     0.038 A 
ATOM     18 Br   UNK d   1     -24.593   4.064 -41.520  0.00  0.00    -0.047 Br
ATOM     19 Br   UNK d   1     -22.304   7.055 -37.231  0.00  0.00    -0.044 Br
ATOM     20  O   UNK d   1     -21.518   4.268 -36.320  0.00  0.00    -0.306 OA
ENDROOT
BRANCH  10  21
ATOM     21  C   UNK d   1     -22.280   0.480 -38.133  0.00  0.00     0.016 A 
ATOM     22  C   UNK d   1     -21.378  -0.074 -39.023  0.00  0.00     0.046 A 
ATOM     23  C   UNK d   1     -21.600  -1.302 -39.611  0.00  0.00     0.026 A 
ATOM     24 Cl   UNK d   1     -19.905   0.821 -39.412  0.00  0.00    -0.083 Cl
ATOM     25  C   UNK d   1     -22.755  -1.986 -39.293  0.00  0.00     0.026 A 
ATOM     26  C   UNK d   1     -23.670  -1.477 -38.422  0.00  0.00     0.052 A 
ATOM     27  C   UNK d   1     -23.432  -0.249 -37.845  0.00  0.00     0.075 A 
ATOM     28 Cl   UNK d   1     -25.113  -2.416 -38.074  0.00  0.00    -0.083 Cl
BRANCH  27  29
ATOM     29  C   UNK d   1     -24.398   0.300 -36.925  0.00  0.00     0.212 C 
ATOM     30  O   UNK d   1     -24.263   0.213 -35.673  0.00  0.00    -0.644 OA
ATOM     31  O   UNK d   1     -25.532   0.954 -37.401  0.00  0.00    -0.644 OA
ENDBRANCH  27  29
ENDBRANCH  10  21
TORSDOF 2
ENDMDL
