MODEL 1
REMARK VINA RESULT:    -8.213      0.000      0.000
REMARK INTER + INTRA:          -8.213
REMARK INTER:                  -8.213
REMARK INTRA:                   0.000
REMARK UNBOUND:                 0.000
REMARK  0 active torsions:
REMARK  status: ('A' for Active; 'I' for Inactive)
ROOT
ATOM      1 Br   UNK d   1     -21.399   0.753 -41.519  0.00  0.00    -0.045 Br
ATOM      2  C   UNK d   1     -22.030  -0.040 -39.903  0.00  0.00     0.083 A 
ATOM      3  C   UNK d   1     -21.836   0.582 -38.656  0.00  0.00     0.106 A 
ATOM      4  C   UNK d   1     -22.270   0.048 -37.479  0.00  0.00     0.023 A 
ATOM      5  C   UNK d   1     -22.940  -1.177 -37.535  0.00  0.00     0.036 A 
ATOM      6  C   UNK d   1     -23.127  -1.779 -38.743  0.00  0.00     0.049 A 
ATOM      7  C   UNK d   1     -22.690  -1.244 -39.937  0.00  0.00     0.144 A 
ATOM      8  O   UNK d   1     -22.920  -1.921 -41.147  0.00  0.00    -0.189 OA
ATOM      9 Br   UNK d   1     -24.041  -3.452 -38.828  0.00  0.00    -0.048 Br
ATOM     10  C   UNK d   1     -22.055   0.716 -36.203  0.00  0.00     0.159 A 
ATOM     11  O   UNK d   1     -23.346   1.024 -35.681  0.00  0.00    -0.291 OA
ATOM     12  C   UNK d   1     -23.576   0.411 -34.480  0.00  0.00     0.295 A 
ATOM     13  O   UNK d   1     -24.623   0.508 -33.801  0.00  0.00    -0.259 OA
ATOM     14  C   UNK d   1     -22.375  -0.345 -34.183  0.00  0.00     0.049 A 
ATOM     15  C   UNK d   1     -21.446  -0.189 -35.186  0.00  0.00     0.003 A 
ATOM     16  C   UNK d   1     -20.258  -0.833 -35.065  0.00  0.00     0.012 A 
ATOM     17  C   UNK d   1     -20.009  -1.618 -33.959  0.00  0.00     0.001 A 
ATOM     18  C   UNK d   1     -20.938  -1.777 -32.952  0.00  0.00     0.001 A 
ATOM     19  C   UNK d   1     -22.142  -1.133 -33.059  0.00  0.00     0.018 A 
ATOM     20  C   UNK d   1     -21.342   1.984 -36.315  0.00  0.00     0.023 A 
ATOM     21  C   UNK d   1     -20.930   2.468 -37.525  0.00  0.00     0.106 A 
ATOM     22  C   UNK d   1     -20.242   3.696 -37.615  0.00  0.00     0.083 A 
ATOM     23  C   UNK d   1     -19.992   4.400 -36.460  0.00  0.00     0.144 A 
ATOM     24  C   UNK d   1     -20.406   3.915 -35.228  0.00  0.00     0.049 A 
ATOM     25  C   UNK d   1     -21.072   2.724 -35.149  0.00  0.00     0.036 A 
ATOM     26 Br   UNK d   1     -20.066   4.879 -33.621  0.00  0.00    -0.048 Br
ATOM     27  O   UNK d   1     -19.315   5.606 -36.562  0.00  0.00    -0.189 OA
ATOM     28 Br   UNK d   1     -19.683   4.340 -39.327  0.00  0.00    -0.045 Br
ATOM     29  O   UNK d   1     -21.156   1.801 -38.721  0.00  0.00    -0.306 OA
ENDROOT
TORSDOF 0
ENDMDL
