/Users/jonathanwahrer/Desktop/Msc/3_Semester/Drug_Design_Praktikum/waehrer_HTS_screening/HTS_experiment/out/docking_results/vina_output/5l4q/0978_docked.pdbqt
 OpenBabel03212218243D

 33 37  0  0  1  0  0  0  0  0999 V2000
  -23.3190   -1.6970  -34.9710 I   0  0  0  0  0  0  0  0  0  0  0  0
  -21.5640   -0.5580  -34.6820 C   0  0  0  0  0  0  0  0  0  0  0  0
  -21.3810    0.5460  -35.5090 C   0  0  0  0  0  0  0  0  0  0  0  0
  -20.2630    1.2970  -35.3460 C   0  0  0  0  0  0  0  0  0  0  0  0
  -19.3390    0.9370  -34.3610 C   0  0  0  0  0  3  0  0  0  0  0  0
  -19.5120   -0.1540  -33.5380 C   0  0  0  0  0  0  0  0  0  0  0  0
  -20.6530   -0.9130  -33.7100 C   0  0  0  0  0  0  0  0  0  0  0  0
  -20.8470   -2.0170  -32.8920 O   0  0  0  0  0  1  0  0  0  0  0  0
  -18.0810   -0.6570  -32.0580 I   0  0  0  0  0  0  0  0  0  0  0  0
  -19.9730    2.4670  -36.1530 C   0  0  2  0  0  0  0  0  0  0  0  0
  -18.7350    2.3190  -36.8640 O   0  0  0  0  0  0  0  0  0  0  0  0
  -17.8430    3.3140  -36.5620 C   0  0  0  0  0  0  0  0  0  0  0  0
  -16.6690    3.5040  -36.9930 O   0  0  0  0  0  0  0  0  0  0  0  0
  -18.5090    4.1800  -35.5990 C   0  0  0  0  0  0  0  0  0  0  0  0
  -19.7550    3.6870  -35.3580 C   0  0  0  0  0  0  0  0  0  0  0  0
  -20.6080    4.3350  -34.4650 C   0  0  0  0  0  0  0  0  0  0  0  0
  -20.2150    5.4820  -33.8090 C   0  0  0  0  0  0  0  0  0  0  0  0
  -18.9400    5.9830  -34.0580 C   0  0  0  0  0  0  0  0  0  0  0  0
  -18.0980    5.3490  -34.9360 C   0  0  0  0  0  0  0  0  0  0  0  0
  -16.5240    5.9820  -35.2330 Cl  0  0  0  0  0  0  0  0  0  0  0  0
  -18.3820    7.4290  -33.2630 Cl  0  0  0  0  0  0  0  0  0  0  0  0
  -21.3100    6.2680  -32.6970 Cl  0  0  0  0  0  0  0  0  0  0  0  0
  -22.1800    3.6540  -34.2050 Cl  0  0  0  0  0  0  0  0  0  0  0  0
  -21.0380    2.7310  -37.1580 C   0  0  0  0  0  0  0  0  0  0  0  0
  -22.1410    1.9600  -37.2930 C   0  0  0  0  0  0  0  0  0  0  0  0
  -23.0610    2.3200  -38.2760 C   0  0  0  0  0  0  0  0  0  0  0  0
  -22.8890    3.4100  -39.0980 C   0  0  0  0  0  0  0  0  0  0  0  0
  -21.7510    4.1730  -38.9320 C   0  0  0  0  0  0  0  0  0  0  0  0
  -20.8240    3.8480  -37.9750 C   0  0  0  0  0  3  0  0  0  0  0  0
  -21.4580    5.8490  -40.1750 I   0  0  0  0  0  0  0  0  0  0  0  0
  -23.7940    3.7640  -40.0650 O   0  0  0  0  0  1  0  0  0  0  0  0
  -24.7780    1.1320  -38.4950 I   0  0  0  0  0  0  0  0  0  0  0  0
  -22.3480    0.8570  -36.4840 O   0  0  0  0  0  0  0  0  0  0  0  0
  1  2  1  0  0  0  0
  2  7  1  0  0  0  0
  3  4  1  0  0  0  0
  3  2  2  0  0  0  0
  4  5  2  0  0  0  0
  5  6  1  0  0  0  0
  6  9  1  0  0  0  0
  7  6  2  0  0  0  0
  7  8  1  0  0  0  0
 10 24  1  6  0  0  0
 10 15  1  0  0  0  0
 10  4  1  0  0  0  0
 11 12  1  0  0  0  0
 11 10  1  0  0  0  0
 12 14  1  0  0  0  0
 13 12  2  0  0  0  0
 14 15  2  0  0  0  0
 14 19  1  0  0  0  0
 15 16  1  0  0  0  0
 16 23  1  0  0  0  0
 16 17  2  0  0  0  0
 17 22  1  0  0  0  0
 18 17  1  0  0  0  0
 18 21  1  0  0  0  0
 19 18  2  0  0  0  0
 20 19  1  0  0  0  0
 25 24  1  0  0  0  0
 25 33  1  0  0  0  0
 26 25  2  0  0  0  0
 27 28  2  0  0  0  0
 27 26  1  0  0  0  0
 28 29  1  0  0  0  0
 29 24  2  0  0  0  0
 30 28  1  0  0  0  0
 31 27  1  0  0  0  0
 32 26  1  0  0  0  0
 33  3  1  0  0  0  0
M  END
>  <Pose>
1

>  <Score>
-6.365

$$$$
