MODEL 1
REMARK VINA RESULT:    -6.365      0.000      0.000
REMARK INTER + INTRA:          -6.365
REMARK INTER:                  -6.365
REMARK INTRA:                   0.000
REMARK UNBOUND:                 0.000
REMARK  0 active torsions:
REMARK  status: ('A' for Active; 'I' for Inactive)
ROOT
ATOM      1  I   UNK d   1     -23.319  -1.697 -34.971  0.00  0.00    -0.038 I 
ATOM      2  C   UNK d   1     -21.564  -0.558 -34.682  0.00  0.00     0.078 A 
ATOM      3  C   UNK d   1     -21.381   0.546 -35.509  0.00  0.00     0.105 A 
ATOM      4  C   UNK d   1     -20.263   1.297 -35.346  0.00  0.00     0.023 A 
ATOM      5  C   UNK d   1     -19.339   0.937 -34.361  0.00  0.00     0.035 A 
ATOM      6  C   UNK d   1     -19.512  -0.154 -33.538  0.00  0.00     0.045 A 
ATOM      7  C   UNK d   1     -20.653  -0.913 -33.710  0.00  0.00     0.143 A 
ATOM      8  O   UNK d   1     -20.847  -2.017 -32.892  0.00  0.00    -0.189 OA
ATOM      9  I   UNK d   1     -18.081  -0.657 -32.058  0.00  0.00    -0.042 I 
ATOM     10  C   UNK d   1     -19.973   2.467 -36.153  0.00  0.00     0.161 A 
ATOM     11  O   UNK d   1     -18.735   2.319 -36.864  0.00  0.00    -0.291 OA
ATOM     12  C   UNK d   1     -17.843   3.314 -36.562  0.00  0.00     0.297 A 
ATOM     13  O   UNK d   1     -16.669   3.504 -36.993  0.00  0.00    -0.259 OA
ATOM     14  C   UNK d   1     -18.509   4.180 -35.599  0.00  0.00     0.074 A 
ATOM     15  C   UNK d   1     -19.755   3.687 -35.358  0.00  0.00     0.028 A 
ATOM     16  C   UNK d   1     -20.608   4.335 -34.465  0.00  0.00     0.068 A 
ATOM     17  C   UNK d   1     -20.215   5.482 -33.809  0.00  0.00     0.080 A 
ATOM     18  C   UNK d   1     -18.940   5.983 -34.058  0.00  0.00     0.080 A 
ATOM     19  C   UNK d   1     -18.098   5.349 -34.936  0.00  0.00     0.074 A 
ATOM     20 Cl   UNK d   1     -16.524   5.982 -35.233  0.00  0.00    -0.081 Cl
ATOM     21 Cl   UNK d   1     -18.382   7.429 -33.263  0.00  0.00    -0.081 Cl
ATOM     22 Cl   UNK d   1     -21.310   6.268 -32.697  0.00  0.00    -0.081 Cl
ATOM     23 Cl   UNK d   1     -22.180   3.654 -34.205  0.00  0.00    -0.082 Cl
ATOM     24  C   UNK d   1     -21.038   2.731 -37.158  0.00  0.00     0.023 A 
ATOM     25  C   UNK d   1     -22.141   1.960 -37.293  0.00  0.00     0.105 A 
ATOM     26  C   UNK d   1     -23.061   2.320 -38.276  0.00  0.00     0.078 A 
ATOM     27  C   UNK d   1     -22.889   3.410 -39.098  0.00  0.00     0.143 A 
ATOM     28  C   UNK d   1     -21.751   4.173 -38.932  0.00  0.00     0.045 A 
ATOM     29  C   UNK d   1     -20.824   3.848 -37.975  0.00  0.00     0.035 A 
ATOM     30  I   UNK d   1     -21.458   5.849 -40.175  0.00  0.00    -0.042 I 
ATOM     31  O   UNK d   1     -23.794   3.764 -40.065  0.00  0.00    -0.189 OA
ATOM     32  I   UNK d   1     -24.778   1.132 -38.495  0.00  0.00    -0.038 I 
ATOM     33  O   UNK d   1     -22.348   0.857 -36.484  0.00  0.00    -0.307 OA
ENDROOT
TORSDOF 0
ENDMDL
