/Users/jonathanwahrer/Desktop/Msc/3_Semester/Drug_Design_Praktikum/waehrer_HTS_screening/HTS_experiment/out/docking_results/vina_output/5l4q/0979_docked.pdbqt
 OpenBabel03212218243D

 29 33  0  0  1  0  0  0  0  0999 V2000
  -18.5610    5.4910  -38.4630 I   0  0  0  0  0  0  0  0  0  0  0  0
  -19.4880    4.8400  -36.6720 C   0  0  0  0  0  0  0  0  0  0  0  0
  -20.2380    3.6550  -36.7570 C   0  0  0  0  0  0  0  0  0  0  0  0
  -20.8430    3.2160  -35.6220 C   0  0  0  0  0  0  0  0  0  0  0  0
  -20.6940    3.9540  -34.4340 C   0  0  0  0  0  3  0  0  0  0  0  0
  -19.9620    5.1090  -34.3540 C   0  0  0  0  0  0  0  0  0  0  0  0
  -19.3480    5.5530  -35.5040 C   0  0  0  0  0  0  0  0  0  0  0  0
  -18.5990    6.7200  -35.4590 O   0  0  0  0  0  1  0  0  0  0  0  0
  -19.7780    6.1720  -32.5290 I   0  0  0  0  0  0  0  0  0  0  0  0
  -21.6490    1.9890  -35.6090 C   0  0  2  0  0  0  0  0  0  0  0  0
  -22.9390    2.2140  -35.0740 O   0  0  0  0  0  0  0  0  0  0  0  0
  -23.1780    1.4660  -33.9510 C   0  0  0  0  0  0  0  0  0  0  0  0
  -24.2130    1.4240  -33.2350 O   0  0  0  0  0  0  0  0  0  0  0  0
  -21.9790    0.6790  -33.6980 C   0  0  0  0  0  0  0  0  0  0  0  0
  -21.0750    0.9800  -34.6650 C   0  0  0  0  0  0  0  0  0  0  0  0
  -19.8300    0.3400  -34.6320 C   0  0  0  0  0  3  0  0  0  0  0  0
  -19.5440   -0.5670  -33.6390 C   0  0  0  0  0  3  0  0  0  0  0  0
  -20.4600   -0.8740  -32.6550 C   0  0  0  0  0  3  0  0  0  0  0  0
  -21.6850   -0.2530  -32.6770 C   0  0  0  0  0  3  0  0  0  0  0  0
  -21.7160    1.3220  -36.9200 C   0  0  0  0  0  0  0  0  0  0  0  0
  -21.0900    1.8100  -38.0150 C   0  0  0  0  0  0  0  0  0  0  0  0
  -21.1990    1.1270  -39.2230 C   0  0  0  0  0  0  0  0  0  0  0  0
  -21.9280   -0.0250  -39.3100 C   0  0  0  0  0  0  0  0  0  0  0  0
  -22.5770   -0.5500  -38.2160 C   0  0  0  0  0  0  0  0  0  0  0  0
  -22.4560    0.1390  -37.0410 C   0  0  0  0  0  3  0  0  0  0  0  0
  -23.7030   -2.3340  -38.3570 I   0  0  0  0  0  0  0  0  0  0  0  0
  -22.0190   -0.6870  -40.5280 O   0  0  0  0  0  1  0  0  0  0  0  0
  -20.2120    1.9020  -40.9390 I   0  0  0  0  0  0  0  0  0  0  0  0
  -20.3300    2.9900  -37.9830 O   0  0  0  0  0  0  0  0  0  0  0  0
  1  2  1  0  0  0  0
  2  7  1  0  0  0  0
  3  2  2  0  0  0  0
  3  4  1  0  0  0  0
  4 10  1  0  0  0  0
  4  5  2  0  0  0  0
  5  6  1  0  0  0  0
  6  9  1  0  0  0  0
  7  8  1  0  0  0  0
  7  6  2  0  0  0  0
 10 20  1  6  0  0  0
 10 11  1  0  0  0  0
 10 15  1  0  0  0  0
 11 12  1  0  0  0  0
 12 14  1  0  0  0  0
 12 13  2  0  0  0  0
 14 19  1  0  0  0  0
 15 16  1  0  0  0  0
 15 14  2  0  0  0  0
 16 17  2  0  0  0  0
 17 18  1  0  0  0  0
 19 18  2  0  0  0  0
 21 29  1  0  0  0  0
 21 20  2  0  0  0  0
 22 21  1  0  0  0  0
 23 22  2  0  0  0  0
 23 24  1  0  0  0  0
 24 25  2  0  0  0  0
 25 20  1  0  0  0  0
 26 24  1  0  0  0  0
 27 23  1  0  0  0  0
 28 22  1  0  0  0  0
 29  3  1  0  0  0  0
M  END
>  <Pose>
1

>  <Score>
-7.919

$$$$
