MODEL 1
REMARK VINA RESULT:    -7.919      0.000      0.000
REMARK INTER + INTRA:          -7.919
REMARK INTER:                  -7.919
REMARK INTRA:                   0.000
REMARK UNBOUND:                 0.000
REMARK  0 active torsions:
REMARK  status: ('A' for Active; 'I' for Inactive)
ROOT
ATOM      1  I   UNK d   1     -18.561   5.491 -38.463  0.00  0.00    -0.038 I 
ATOM      2  C   UNK d   1     -19.488   4.840 -36.672  0.00  0.00     0.078 A 
ATOM      3  C   UNK d   1     -20.238   3.655 -36.757  0.00  0.00     0.105 A 
ATOM      4  C   UNK d   1     -20.843   3.216 -35.622  0.00  0.00     0.023 A 
ATOM      5  C   UNK d   1     -20.694   3.954 -34.434  0.00  0.00     0.035 A 
ATOM      6  C   UNK d   1     -19.962   5.109 -34.354  0.00  0.00     0.045 A 
ATOM      7  C   UNK d   1     -19.348   5.553 -35.504  0.00  0.00     0.143 A 
ATOM      8  O   UNK d   1     -18.599   6.720 -35.459  0.00  0.00    -0.189 OA
ATOM      9  I   UNK d   1     -19.778   6.172 -32.529  0.00  0.00    -0.042 I 
ATOM     10  C   UNK d   1     -21.649   1.989 -35.609  0.00  0.00     0.159 A 
ATOM     11  O   UNK d   1     -22.939   2.214 -35.074  0.00  0.00    -0.291 OA
ATOM     12  C   UNK d   1     -23.178   1.466 -33.951  0.00  0.00     0.295 A 
ATOM     13  O   UNK d   1     -24.213   1.424 -33.235  0.00  0.00    -0.259 OA
ATOM     14  C   UNK d   1     -21.979   0.679 -33.698  0.00  0.00     0.049 A 
ATOM     15  C   UNK d   1     -21.075   0.980 -34.665  0.00  0.00     0.003 A 
ATOM     16  C   UNK d   1     -19.830   0.340 -34.632  0.00  0.00     0.012 A 
ATOM     17  C   UNK d   1     -19.544  -0.567 -33.639  0.00  0.00     0.001 A 
ATOM     18  C   UNK d   1     -20.460  -0.874 -32.655  0.00  0.00     0.001 A 
ATOM     19  C   UNK d   1     -21.685  -0.253 -32.677  0.00  0.00     0.018 A 
ATOM     20  C   UNK d   1     -21.716   1.322 -36.920  0.00  0.00     0.023 A 
ATOM     21  C   UNK d   1     -21.090   1.810 -38.015  0.00  0.00     0.105 A 
ATOM     22  C   UNK d   1     -21.199   1.127 -39.223  0.00  0.00     0.078 A 
ATOM     23  C   UNK d   1     -21.928  -0.025 -39.310  0.00  0.00     0.143 A 
ATOM     24  C   UNK d   1     -22.577  -0.550 -38.216  0.00  0.00     0.045 A 
ATOM     25  C   UNK d   1     -22.456   0.139 -37.041  0.00  0.00     0.035 A 
ATOM     26  I   UNK d   1     -23.703  -2.334 -38.357  0.00  0.00    -0.042 I 
ATOM     27  O   UNK d   1     -22.019  -0.687 -40.528  0.00  0.00    -0.189 OA
ATOM     28  I   UNK d   1     -20.212   1.902 -40.939  0.00  0.00    -0.038 I 
ATOM     29  O   UNK d   1     -20.330   2.990 -37.983  0.00  0.00    -0.307 OA
ENDROOT
TORSDOF 0
ENDMDL
