MODEL 1
REMARK VINA RESULT:    -6.892      0.000      0.000
REMARK INTER + INTRA:          -8.451
REMARK INTER:                  -7.698
REMARK INTRA:                  -0.754
REMARK UNBOUND:                -0.754
REMARK  2 active torsions:
REMARK  status: ('A' for Active; 'I' for Inactive)
REMARK    1  A    between atoms: C_9  and  C_19 
REMARK    2  A    between atoms: C_20  and  C_25 
ROOT
ATOM      1  I   UNK d   1     -21.138   6.015 -39.292  0.00  0.00    -0.038 I 
ATOM      2  C   UNK d   1     -22.071   4.157 -39.637  0.00  0.00     0.077 A 
ATOM      3  C   UNK d   1     -21.822   3.045 -38.858  0.00  0.00     0.106 A 
ATOM      4  C   UNK d   1     -22.429   1.828 -39.081  0.00  0.00     0.011 A 
ATOM      5  C   UNK d   1     -23.321   1.743 -40.135  0.00  0.00     0.018 A 
ATOM      6  C   UNK d   1     -23.577   2.855 -40.922  0.00  0.00     0.042 A 
ATOM      7  C   UNK d   1     -22.959   4.078 -40.691  0.00  0.00     0.126 A 
ATOM      8  O   UNK d   1     -23.253   5.163 -41.513  0.00  0.00    -0.191 OA
ATOM      9  C   UNK d   1     -22.194   0.705 -38.314  0.00  0.00     0.001 A 
ATOM     10  C   UNK d   1     -21.286   0.865 -37.272  0.00  0.00     0.011 A 
ATOM     11  C   UNK d   1     -20.663   2.170 -37.068  0.00  0.00     0.107 A 
ATOM     12  C   UNK d   1     -19.772   2.265 -36.020  0.00  0.00     0.091 A 
ATOM     13  C   UNK d   1     -19.468   1.204 -35.194  0.00  0.00     0.191 A 
ATOM     14  O   UNK d   1     -18.647   1.312 -34.236  0.00  0.00    -0.287 OA
ATOM     15  C   UNK d   1     -20.056  -0.031 -35.386  0.00  0.00     0.057 A 
ATOM     16  C   UNK d   1     -20.954  -0.159 -36.428  0.00  0.00     0.019 A 
ATOM     17  I   UNK d   1     -18.825   4.104 -35.648  0.00  0.00    -0.037 I 
ATOM     18  O   UNK d   1     -20.972   3.160 -37.869  0.00  0.00    -0.306 OA
ENDROOT
BRANCH   9  19
ATOM     19  C   UNK d   1     -22.835  -0.585 -38.547  0.00  0.00    -0.007 A 
ATOM     20  C   UNK d   1     -24.072  -0.826 -37.956  0.00  0.00     0.051 A 
ATOM     21  C   UNK d   1     -24.712  -2.021 -38.146  0.00  0.00     0.019 A 
ATOM     22  C   UNK d   1     -24.125  -2.991 -38.928  0.00  0.00     0.001 A 
ATOM     23  C   UNK d   1     -22.902  -2.777 -39.525  0.00  0.00     0.001 A 
ATOM     24  C   UNK d   1     -22.276  -1.568 -39.320  0.00  0.00     0.013 A 
BRANCH  20  25
ATOM     25  C   UNK d   1     -24.704   0.195 -37.125  0.00  0.00     0.210 C 
ATOM     26  O   UNK d   1     -24.462   0.323 -35.904  0.00  0.00    -0.644 OA
ATOM     27  O   UNK d   1     -25.621   1.081 -37.672  0.00  0.00    -0.644 OA
ENDBRANCH  20  25
ENDBRANCH   9  19
TORSDOF 2
ENDMDL
