/Users/jonathanwahrer/Desktop/Msc/3_Semester/Drug_Design_Praktikum/waehrer_HTS_screening/HTS_experiment/out/docking_results/vina_output/5l4q/0985_docked.pdbqt
 OpenBabel03212218253D

 28 31  0  0  1  0  0  0  0  0999 V2000
  -19.7570   -1.7170  -29.4330 N   0  0  0  0  0  0  0  0  0  0  0  0
  -19.3270   -1.5530  -28.1760 C   0  0  0  0  0  0  0  0  0  0  0  0
  -18.6720   -0.5270  -27.5680 N   0  0  0  0  0  0  0  0  0  0  0  0
  -18.3210   -0.5440  -26.2850 C   0  0  0  0  0  0  0  0  0  0  0  0
  -18.6270   -1.6290  -25.5510 N   0  0  0  0  0  0  0  0  0  0  0  0
  -19.2760   -2.6810  -26.0910 C   0  0  0  0  0  0  0  0  0  0  0  0
  -19.6410   -2.6660  -27.4210 C   0  0  0  0  0  0  0  0  0  0  0  0
  -20.2720   -3.5080  -28.2520 N   0  0  0  0  0  0  0  0  0  0  0  0
  -20.3400   -2.9280  -29.4730 C   0  0  0  0  0  0  0  0  0  0  0  0
  -21.1390   -3.6900  -31.0390 Br  0  0  0  0  0  0  0  0  0  0  0  0
  -19.5800   -0.7290  -30.4680 C   0  0  2  0  0  3  0  0  0  0  0  0
  -20.7070   -0.6110  -31.2810 O   0  0  0  0  0  0  0  0  0  0  0  0
  -20.2680    0.2860  -32.2230 C   0  0  1  0  0  3  0  0  0  0  0  0
  -18.9780   -0.3820  -32.7120 C   0  0  1  0  0  3  0  0  0  0  0  0
  -21.1630    0.4730  -33.3910 C   0  0  0  0  0  2  0  0  0  0  0  0
  -18.1040    0.6570  -33.0200 O   0  0  0  0  0  0  0  0  0  0  0  0
  -18.5330   -1.1630  -31.4930 C   0  0  1  0  0  3  0  0  0  0  0  0
  -19.0450    1.8660  -33.7730 P   0  0  2  0  0  0  0  0  0  0  0  0
  -19.1880    3.0770  -32.8790 O   0  0  0  0  0  1  0  0  0  0  0  0
  -20.5040    1.2790  -34.3260 O   0  0  0  0  0  0  0  0  0  0  0  0
  -18.1330    2.3830  -35.1260 O   0  0  0  0  0  0  0  0  0  0  0  0
  -17.2520   -0.8720  -31.0970 O   0  0  0  0  0  0  0  0  0  0  0  0
  -17.1690   -0.9830  -30.0970 H   0  0  0  0  0  0  0  0  0  0  0  0
  -17.6350    0.5560  -25.6940 N   0  0  0  0  0  0  0  0  0  0  0  0
  -18.2230    1.2570  -25.1940 H   0  0  0  0  0  0  0  0  0  0  0  0
  -16.5920    0.6660  -25.7510 H   0  0  0  0  0  0  0  0  0  0  0  0
  -19.5960   -3.8050  -25.3350 O   0  0  0  0  0  0  0  0  0  0  0  0
  -19.7910   -4.6650  -25.8690 H   0  0  0  0  0  0  0  0  0  0  0  0
  1  2  1  0  0  0  0
  2  3  1  0  0  0  0
  2  7  2  0  0  0  0
  3  4  2  0  0  0  0
  4 24  1  0  0  0  0
  4  5  1  0  0  0  0
  6  5  2  0  0  0  0
  6 27  1  0  0  0  0
  7  6  1  0  0  0  0
  8  7  1  0  0  0  0
  9  1  1  0  0  0  0
  9  8  2  0  0  0  0
 10  9  1  0  0  0  0
 11  1  1  1  0  0  0
 12 11  1  0  0  0  0
 13 15  1  6  0  0  0
 13 12  1  0  0  0  0
 14 16  1  1  0  0  0
 14 13  1  0  0  0  0
 14 17  1  0  0  0  0
 17 22  1  1  0  0  0
 17 11  1  0  0  0  0
 18 21  2  6  0  0  0
 18 16  1  0  0  0  0
 18 19  1  0  0  0  0
 20 18  1  0  0  0  0
 20 15  1  0  0  0  0
 22 23  1  0  0  0  0
 24 25  1  0  0  0  0
 26 24  1  0  0  0  0
 28 27  1  0  0  0  0
M  END
>  <Pose>
1

>  <Score>
-8.528

$$$$
