MODEL 1
REMARK VINA RESULT:    -8.528      0.000      0.000
REMARK INTER + INTRA:          -9.992
REMARK INTER:                  -9.774
REMARK INTRA:                  -0.218
REMARK UNBOUND:                -0.218
REMARK  4 active torsions:
REMARK  status: ('A' for Active; 'I' for Inactive)
REMARK    1  A    between atoms: C_7  and  N_10 
REMARK    2  A    between atoms: C_8  and  O_9 
REMARK    3  A    between atoms: C_13  and  N_21 
REMARK    4  A    between atoms: C_15  and  O_20 
ROOT
ATOM      1  N   UNK d   1     -19.757  -1.717 -29.433  0.00  0.00    -0.277 N 
ATOM      2  C   UNK d   1     -19.327  -1.553 -28.176  0.00  0.00     0.186 A 
ATOM      3  N   UNK d   1     -18.672  -0.527 -27.568  0.00  0.00    -0.042 NA
ATOM      4  C   UNK d   1     -18.321  -0.544 -26.285  0.00  0.00     0.724 A 
ATOM      5  N   UNK d   1     -18.627  -1.629 -25.551  0.00  0.00    -0.036 NA
ATOM      6  C   UNK d   1     -19.276  -2.681 -26.091  0.00  0.00     0.214 A 
ATOM      7  C   UNK d   1     -19.641  -2.666 -27.421  0.00  0.00     0.159 A 
ATOM      8  N   UNK d   1     -20.272  -3.508 -28.252  0.00  0.00    -0.216 NA
ATOM      9  C   UNK d   1     -20.340  -2.928 -29.473  0.00  0.00     0.182 A 
ATOM     10 Br   UNK d   1     -21.139  -3.690 -31.039  0.00  0.00    -0.008 Br
ENDROOT
BRANCH   1  11
ATOM     11  C   UNK d   1     -19.580  -0.729 -30.468  0.00  0.00     0.263 C 
ATOM     12  O   UNK d   1     -20.707  -0.611 -31.281  0.00  0.00    -0.353 OA
ATOM     13  C   UNK d   1     -20.268   0.286 -32.223  0.00  0.00     0.180 C 
ATOM     14  C   UNK d   1     -18.978  -0.382 -32.712  0.00  0.00     0.198 C 
ATOM     15  C   UNK d   1     -21.163   0.473 -33.391  0.00  0.00     0.216 C 
ATOM     16  O   UNK d   1     -18.104   0.657 -33.020  0.00  0.00    -0.279 OA
ATOM     17  C   UNK d   1     -18.533  -1.163 -31.493  0.00  0.00     0.199 C 
ATOM     18  P   UNK d   1     -19.045   1.866 -33.773  0.00  0.00     0.408 P 
ATOM     19  O   UNK d   1     -19.188   3.077 -32.879  0.00  0.00    -0.624 OA
ATOM     20  O   UNK d   1     -20.504   1.279 -34.326  0.00  0.00    -0.287 OA
ATOM     21  O   UNK d   1     -18.133   2.383 -35.126  0.00  0.00    -0.624 OA
BRANCH  17  22
ATOM     22  O   UNK d   1     -17.252  -0.872 -31.097  0.00  0.00    -0.388 OA
ATOM     23  H   UNK d   1     -17.169  -0.983 -30.097  0.00  0.00     0.210 HD
ENDBRANCH  17  22
ENDBRANCH   1  11
BRANCH   4  24
ATOM     24  N   UNK d   1     -17.635   0.556 -25.694  0.00  0.00    -0.231 N 
ATOM     25  H   UNK d   1     -18.223   1.257 -25.194  0.00  0.00     0.174 HD
ATOM     26  H   UNK d   1     -16.592   0.666 -25.751  0.00  0.00     0.174 HD
ENDBRANCH   4  24
BRANCH   6  27
ATOM     27  O   UNK d   1     -19.596  -3.805 -25.335  0.00  0.00    -0.343 OA
ATOM     28  H   UNK d   1     -19.791  -4.665 -25.869  0.00  0.00     0.219 HD
ENDBRANCH   6  27
TORSDOF 4
ENDMDL
