MODEL 1
REMARK VINA RESULT:    -9.922      0.000      0.000
REMARK INTER + INTRA:         -12.420
REMARK INTER:                 -11.372
REMARK INTRA:                  -1.048
REMARK UNBOUND:                -1.048
REMARK  3 active torsions:
REMARK  status: ('A' for Active; 'I' for Inactive)
REMARK    1  A    between atoms: C_7  and  N_10 
REMARK    2  A    between atoms: C_8  and  O_9 
REMARK    3  A    between atoms: C_21  and  C_23 
ROOT
ATOM      1  N   UNK d   1     -20.943  -3.023 -31.965  0.00  0.00    -0.279 N 
ATOM      2  C   UNK d   1     -20.499  -2.506 -30.792  0.00  0.00     0.162 A 
ATOM      3  C   UNK d   1     -20.690  -3.402 -29.762  0.00  0.00     0.173 A 
ATOM      4  N   UNK d   1     -21.263  -4.481 -30.335  0.00  0.00    -0.214 NA
ATOM      5  C   UNK d   1     -21.412  -4.245 -31.655  0.00  0.00     0.182 A 
ATOM      6 Br   UNK d   1     -22.165  -5.422 -32.961  0.00  0.00    -0.008 Br
ATOM      7  C   UNK d   1     -20.302  -3.061 -28.482  0.00  0.00     0.298 A 
ATOM      8  O   UNK d   1     -20.471  -3.866 -27.540  0.00  0.00    -0.264 OA
ATOM      9  N   UNK d   1     -19.734  -1.868 -28.195  0.00  0.00    -0.115 N 
ATOM     10  C   UNK d   1     -19.556  -1.008 -29.215  0.00  0.00     0.716 A 
ATOM     11  N   UNK d   1     -18.985   0.084 -28.677  0.00  0.00    -0.062 NA
ATOM     12  C   UNK d   1     -18.793  -0.054 -27.352  0.00  0.00     0.102 A 
ATOM     13  C   UNK d   1     -19.275  -1.308 -27.042  0.00  0.00     0.152 A 
ATOM     14  N   UNK d   1     -19.933  -1.326 -30.486  0.00  0.00    -0.171 N 
ATOM     15  H   UNK d   1     -19.793  -0.656 -31.275  0.00  0.00     0.186 HD
ENDROOT
BRANCH   1  16
ATOM     16  C   UNK d   1     -20.923  -2.398 -33.285  0.00  0.00     0.263 C 
ATOM     17  O   UNK d   1     -19.841  -1.529 -33.408  0.00  0.00    -0.353 OA
ATOM     18  C   UNK d   1     -20.156  -0.591 -34.352  0.00  0.00     0.180 C 
ATOM     19  C   UNK d   1     -21.651  -0.338 -34.142  0.00  0.00     0.197 C 
ATOM     20  C   UNK d   1     -19.469   0.739 -34.151  0.00  0.00     0.214 C 
ATOM     21  O   UNK d   1     -22.170  -0.038 -35.398  0.00  0.00    -0.292 OA
ATOM     22  C   UNK d   1     -22.164  -1.630 -33.582  0.00  0.00     0.199 C 
ATOM     23  P   UNK d   1     -21.067   1.022 -36.137  0.00  0.00     0.422 P 
ATOM     24  S   UNK d   1     -21.967   2.347 -36.808  0.00  0.00     0.009 SA
ATOM     25  O   UNK d   1     -19.991   1.677 -35.012  0.00  0.00    -0.300 OA
ATOM     26  O   UNK d   1     -20.152   0.237 -37.322  0.00  0.00    -0.240 OA
BRANCH  22  27
ATOM     27  O   UNK d   1     -22.957  -2.294 -34.528  0.00  0.00    -0.388 OA
ATOM     28  H   UNK d   1     -23.317  -3.136 -34.181  0.00  0.00     0.210 HD
ENDBRANCH  22  27
ENDBRANCH   1  16
BRANCH  12  29
ATOM     29  C   UNK d   1     -18.199   0.920 -26.427  0.00  0.00    -0.005 A 
ATOM     30  C   UNK d   1     -18.208   0.684 -25.071  0.00  0.00     0.014 A 
ATOM     31  C   UNK d   1     -17.653   1.586 -24.172  0.00  0.00     0.001 A 
ATOM     32  C   UNK d   1     -17.085   2.741 -24.658  0.00  0.00     0.000 A 
ATOM     33  C   UNK d   1     -17.057   3.017 -26.017  0.00  0.00     0.001 A 
ATOM     34  C   UNK d   1     -17.620   2.087 -26.862  0.00  0.00     0.014 A 
ENDBRANCH  12  29
TORSDOF 3
ENDMDL
