MODEL 1
REMARK VINA RESULT:    -8.150      0.000      0.000
REMARK INTER + INTRA:          -8.835
REMARK INTER:                  -9.103
REMARK INTRA:                   0.268
REMARK UNBOUND:                 0.268
REMARK  3 active torsions:
REMARK  status: ('A' for Active; 'I' for Inactive)
REMARK    1  A    between atoms: C_7  and  N_10 
REMARK    2  A    between atoms: C_8  and  O_9 
REMARK    3  A    between atoms: C_15  and  N_20 
ROOT
ATOM      1  P   UNK d   1     -24.382   0.696 -37.932  0.00  0.00     0.422 P 
ATOM      2  S   UNK d   1     -23.043   1.708 -38.409  0.00  0.00     0.009 SA
ATOM      3  O   UNK d   1     -24.455   0.605 -36.229  0.00  0.00    -0.292 OA
ATOM      4  C   UNK d   1     -23.404  -0.182 -35.828  0.00  0.00     0.197 C 
ATOM      5  C   UNK d   1     -23.594  -1.588 -36.411  0.00  0.00     0.180 C 
ATOM      6  O   UNK d   1     -22.678  -2.299 -35.638  0.00  0.00    -0.353 OA
ATOM      7  C   UNK d   1     -22.917  -1.926 -34.337  0.00  0.00     0.263 C 
ATOM      8  C   UNK d   1     -23.438  -0.511 -34.347  0.00  0.00     0.199 C 
ATOM      9  C   UNK d   1     -23.277  -1.618 -37.873  0.00  0.00     0.214 C 
ATOM     10  O   UNK d   1     -24.215  -0.851 -38.540  0.00  0.00    -0.300 OA
ATOM     11  O   UNK d   1     -25.790   1.410 -38.475  0.00  0.00    -0.240 OA
ENDROOT
BRANCH   7  12
ATOM     12  N   UNK d   1     -21.722  -1.943 -33.515  0.00  0.00    -0.278 N 
ATOM     13  C   UNK d   1     -20.766  -0.981 -33.543  0.00  0.00     0.168 A 
ATOM     14  N   UNK d   1     -20.646   0.162 -34.267  0.00  0.00    -0.221 NA
ATOM     15  C   UNK d   1     -19.779  -1.315 -32.639  0.00  0.00     0.151 A 
ATOM     16  C   UNK d   1     -19.582   0.974 -34.116  0.00  0.00     0.237 A 
ATOM     17  N   UNK d   1     -18.609   0.650 -33.229  0.00  0.00    -0.222 NA
ATOM     18  C   UNK d   1     -18.691  -0.474 -32.494  0.00  0.00     0.155 A 
ATOM     19  N   UNK d   1     -20.138  -2.477 -32.064  0.00  0.00    -0.216 NA
ATOM     20  C   UNK d   1     -21.319  -2.847 -32.606  0.00  0.00     0.182 A 
ATOM     21 Br   UNK d   1     -22.342  -4.419 -32.194  0.00  0.00    -0.008 Br
BRANCH  18  22
ATOM     22  N   UNK d   1     -17.656  -0.802 -31.561  0.00  0.00    -0.382 N 
ATOM     23  H   UNK d   1     -17.096  -0.013 -31.135  0.00  0.00     0.157 HD
ATOM     24  H   UNK d   1     -17.438  -1.781 -31.290  0.00  0.00     0.157 HD
ENDBRANCH  18  22
ENDBRANCH   7  12
BRANCH   8  25
ATOM     25  O   UNK d   1     -24.790  -0.570 -33.984  0.00  0.00    -0.388 OA
ATOM     26  H   UNK d   1     -24.928  -0.845 -33.059  0.00  0.00     0.210 HD
ENDBRANCH   8  25
TORSDOF 3
ENDMDL
