MODEL 1
REMARK VINA RESULT:    -8.780      0.000      0.000
REMARK INTER + INTRA:         -14.676
REMARK INTER:                 -13.399
REMARK INTRA:                  -1.276
REMARK UNBOUND:                -1.276
REMARK  9 active torsions:
REMARK  status: ('A' for Active; 'I' for Inactive)
REMARK    1  A    between atoms: C_4  and  C_12 
REMARK    2  A    between atoms: C_5  and  C_7 
REMARK    3  A    between atoms: C_7  and  O_8 
REMARK    4  A    between atoms: O_8  and  C_9 
REMARK    5  A    between atoms: C_17  and  N_18 
REMARK       I    between atoms: N_18  and  C_19 
REMARK    6  A    between atoms: C_19  and  C_21 
REMARK    7  A    between atoms: C_23  and  C_26 
REMARK    8  A    between atoms: C_26  and  O_27 
REMARK    9  A    between atoms: O_27  and  C_28 
ROOT
ATOM      1  N   UNK d   1     -20.381   0.598 -34.310  0.00  0.00    -0.339 N 
ATOM      2  C   UNK d   1     -19.912   0.409 -32.986  0.00  0.00     0.276 C 
ATOM      3  O   UNK d   1     -19.286   1.352 -32.434  0.00  0.00    -0.265 OA
ATOM      4  H   UNK d   1     -20.900  -0.203 -34.750  0.00  0.00     0.163 HD
ENDROOT
BRANCH   1   5
ATOM      5  C   UNK d   1     -20.131   1.839 -34.969  0.00  0.00     0.211 C 
ATOM      6  C   UNK d   1     -20.155   1.874 -36.439  0.00  0.00     0.187 C 
ATOM      7  S   UNK d   1     -19.437   0.558 -37.418  0.00  0.00    -0.136 SA
ATOM      8  N   UNK d   1     -21.559   1.634 -36.324  0.00  0.00    -0.293 N 
ATOM      9  C   UNK d   1     -20.590   0.659 -38.836  0.00  0.00     0.115 C 
ATOM     10  C   UNK d   1     -21.980   0.353 -38.260  0.00  0.00    -0.013 C 
ATOM     11  C   UNK d   1     -22.406   0.801 -37.121  0.00  0.00     0.121 C 
ATOM     12  C   UNK d   1     -21.475   2.506 -35.211  0.00  0.00     0.251 C 
ATOM     13  O   UNK d   1     -22.058   3.401 -34.587  0.00  0.00    -0.271 OA
BRANCH  10  14
ATOM     14  C   UNK d   1     -22.712  -0.497 -39.164  0.00  0.00     0.216 C 
BRANCH  14  15
ATOM     15  O   UNK d   1     -22.449  -1.816 -39.328  0.00  0.00    -0.317 OA
BRANCH  15  16
ATOM     16  C   UNK d   1     -23.431  -2.812 -39.261  0.00  0.00     0.255 C 
ATOM     17  O   UNK d   1     -23.350  -3.743 -40.083  0.00  0.00    -0.266 OA
ATOM     18  C   UNK d   1     -24.483  -2.680 -38.225  0.00  0.00     0.126 C 
ENDBRANCH  15  16
ENDBRANCH  14  15
ENDBRANCH  10  14
BRANCH  11  19
ATOM     19  C   UNK d   1     -23.756   0.516 -36.553  0.00  0.00     0.227 C 
ATOM     20  O   UNK d   1     -24.825   0.793 -37.053  0.00  0.00    -0.643 OA
ATOM     21  O   UNK d   1     -23.837  -0.139 -35.310  0.00  0.00    -0.643 OA
ENDBRANCH  11  19
ENDBRANCH   1   5
BRANCH   2  22
ATOM     22  C   UNK d   1     -20.135  -0.841 -32.252  0.00  0.00     0.143 A 
ATOM     23  O   UNK d   1     -19.619  -1.243 -31.133  0.00  0.00    -0.307 OA
ATOM     24  C   UNK d   1     -20.049  -2.411 -30.782  0.00  0.00     0.078 A 
ATOM     25  C   UNK d   1     -20.945  -2.838 -31.768  0.00  0.00     0.038 A 
ATOM     26  C   UNK d   1     -20.986  -1.830 -32.692  0.00  0.00     0.045 A 
BRANCH  24  27
ATOM     27  C   UNK d   1     -19.688  -3.210 -29.554  0.00  0.00     0.240 C 
BRANCH  27  28
ATOM     28  O   UNK d   1     -20.310  -2.679 -28.412  0.00  0.00    -0.345 OA
BRANCH  28  29
ATOM     29  C   UNK d   1     -19.719  -1.894 -27.465  0.00  0.00     0.069 A 
ATOM     30  C   UNK d   1     -19.255  -2.353 -26.235  0.00  0.00     0.038 A 
ATOM     31  C   UNK d   1     -18.671  -1.471 -25.353  0.00  0.00     0.022 A 
ATOM     32  C   UNK d   1     -18.513  -0.131 -25.616  0.00  0.00     0.011 A 
ATOM     33  C   UNK d   1     -18.971   0.335 -26.837  0.00  0.00     0.022 A 
ATOM     34 Br   UNK d   1     -17.696   1.044 -24.355  0.00  0.00    -0.051 Br
ATOM     35  C   UNK d   1     -19.561  -0.549 -27.731  0.00  0.00     0.038 A 
ENDBRANCH  28  29
ENDBRANCH  27  28
ENDBRANCH  24  27
ENDBRANCH   2  22
TORSDOF 9
ENDMDL
