MODEL 1
REMARK VINA RESULT:    -7.483      0.000      0.000
REMARK INTER + INTRA:          -8.278
REMARK INTER:                  -8.358
REMARK INTRA:                   0.080
REMARK UNBOUND:                 0.080
REMARK  3 active torsions:
REMARK  status: ('A' for Active; 'I' for Inactive)
REMARK    1  A    between atoms: C_7  and  N_10 
REMARK    2  A    between atoms: C_8  and  O_9 
REMARK    3  A    between atoms: C_15  and  N_20 
ROOT
ATOM      1  P   UNK d   1     -20.882   0.459 -36.040  0.00  0.00     0.408 P 
ATOM      2  O   UNK d   1     -20.484   0.029 -37.454  0.00  0.00    -0.624 OA
ATOM      3  O   UNK d   1     -19.585   0.127 -35.028  0.00  0.00    -0.279 OA
ATOM      4  C   UNK d   1     -19.981  -0.510 -33.880  0.00  0.00     0.198 C 
ATOM      5  C   UNK d   1     -21.369   0.043 -33.529  0.00  0.00     0.180 C 
ATOM      6  O   UNK d   1     -21.491  -0.061 -32.176  0.00  0.00    -0.353 OA
ATOM      7  C   UNK d   1     -20.254  -0.060 -31.593  0.00  0.00     0.263 C 
ATOM      8  C   UNK d   1     -19.208  -0.109 -32.653  0.00  0.00     0.199 C 
ATOM      9  C   UNK d   1     -22.349  -0.760 -34.324  0.00  0.00     0.216 C 
ATOM     10  O   UNK d   1     -22.274  -0.369 -35.640  0.00  0.00    -0.287 OA
ATOM     11  O   UNK d   1     -21.143   2.147 -36.127  0.00  0.00    -0.624 OA
ENDROOT
BRANCH   7  12
ATOM     12  N   UNK d   1     -20.189  -1.196 -30.684  0.00  0.00    -0.278 N 
ATOM     13  C   UNK d   1     -20.506  -2.476 -30.991  0.00  0.00     0.168 A 
ATOM     14  N   UNK d   1     -20.937  -3.025 -32.139  0.00  0.00    -0.221 NA
ATOM     15  C   UNK d   1     -20.316  -3.253 -29.868  0.00  0.00     0.151 A 
ATOM     16  C   UNK d   1     -21.185  -4.344 -32.187  0.00  0.00     0.237 A 
ATOM     17  N   UNK d   1     -20.999  -5.100 -31.089  0.00  0.00    -0.222 NA
ATOM     18  C   UNK d   1     -20.570  -4.621 -29.911  0.00  0.00     0.155 A 
ATOM     19  N   UNK d   1     -19.890  -2.459 -28.889  0.00  0.00    -0.216 NA
ATOM     20  C   UNK d   1     -19.817  -1.214 -29.394  0.00  0.00     0.182 A 
ATOM     21 Br   UNK d   1     -19.262   0.379 -28.459  0.00  0.00    -0.008 Br
BRANCH  18  22
ATOM     22  N   UNK d   1     -20.370  -5.409 -28.747  0.00  0.00    -0.382 N 
ATOM     23  H   UNK d   1     -21.231  -5.779 -28.244  0.00  0.00     0.157 HD
ATOM     24  H   UNK d   1     -19.454  -5.648 -28.357  0.00  0.00     0.157 HD
ENDBRANCH  18  22
ENDBRANCH   7  12
BRANCH   8  25
ATOM     25  O   UNK d   1     -18.566   1.095 -32.860  0.00  0.00    -0.388 OA
ATOM     26  H   UNK d   1     -17.651   1.116 -32.535  0.00  0.00     0.210 HD
ENDBRANCH   8  25
TORSDOF 3
ENDMDL
