MODEL 1
REMARK VINA RESULT:    -8.679      0.000      0.000
REMARK INTER + INTRA:         -12.651
REMARK INTER:                 -12.230
REMARK INTRA:                  -0.421
REMARK UNBOUND:                -0.421
REMARK  7 active torsions:
REMARK  status: ('A' for Active; 'I' for Inactive)
REMARK    1  A    between atoms: S_1  and  N_4 
REMARK    2  A    between atoms: S_1  and  C_14 
REMARK    3  A    between atoms: N_4  and  C_5 
REMARK    4  A    between atoms: C_5  and  C_6 
REMARK    5  A    between atoms: C_6  and  C_7 
REMARK    6  A    between atoms: C_7  and  N_8 
REMARK       I    between atoms: N_23  and  C_24 
REMARK    7  A    between atoms: C_24  and  C_26 
ROOT
ATOM      1  C   UNK d   1     -20.842  -1.959 -31.849  0.00  0.00     0.094 A 
ATOM      2  C   UNK d   1     -20.220  -1.364 -30.747  0.00  0.00     0.056 A 
ATOM      3  C   UNK d   1     -20.081  -2.056 -29.564  0.00  0.00     0.045 A 
ATOM      4  C   UNK d   1     -20.539  -3.351 -29.404  0.00  0.00    -0.028 A 
ATOM      5  C   UNK d   1     -21.148  -3.942 -30.476  0.00  0.00     0.030 A 
ATOM      6  C   UNK d   1     -21.293  -3.246 -31.680  0.00  0.00     0.034 A 
ATOM      7 Br   UNK d   1     -22.158  -4.079 -33.175  0.00  0.00    -0.049 Br
ATOM      8  C   UNK d   1     -20.249  -3.807 -28.016  0.00  0.00     0.061 C 
ATOM      9  C   UNK d   1     -20.045  -2.464 -27.283  0.00  0.00     0.137 C 
ATOM     10  N   UNK d   1     -19.473  -1.633 -28.330  0.00  0.00    -0.317 N 
ATOM     11  C   UNK d   1     -18.506  -0.605 -28.240  0.00  0.00     0.228 C 
ATOM     12  O   UNK d   1     -18.085   0.022 -29.240  0.00  0.00    -0.273 OA
ENDROOT
BRANCH   1  13
ATOM     13  S   UNK d   1     -20.999  -1.062 -33.336  0.00  0.00     0.242 S 
ATOM     14  O   UNK d   1     -20.580   0.386 -33.113  0.00  0.00    -0.206 OA
ATOM     15  O   UNK d   1     -20.104  -1.590 -34.405  0.00  0.00    -0.206 OA
BRANCH  13  16
ATOM     16  N   UNK d   1     -22.646  -1.000 -33.836  0.00  0.00    -0.215 NA
ATOM     17  H   UNK d   1     -22.822  -1.807 -34.465  0.00  0.00     0.139 HD
BRANCH  16  18
ATOM     18  C   UNK d   1     -22.987   0.250 -34.486  0.00  0.00     0.106 C 
BRANCH  18  19
ATOM     19  C   UNK d   1     -23.077  -0.056 -35.974  0.00  0.00     0.035 C 
BRANCH  19  20
ATOM     20  C   UNK d   1     -23.539  -1.469 -36.207  0.00  0.00     0.118 C 
BRANCH  20  21
ATOM     21  N   UNK d   1     -23.216  -1.846 -37.531  0.00  0.00    -0.408 N 
ATOM     22  C   UNK d   1     -24.208  -2.566 -38.247  0.00  0.00     0.143 C 
ATOM     23  C   UNK d   1     -23.533  -3.305 -39.390  0.00  0.00     0.187 C 
ATOM     24  O   UNK d   1     -22.592  -2.515 -40.020  0.00  0.00    -0.388 OA
ATOM     25  C   UNK d   1     -22.749  -1.157 -39.767  0.00  0.00     0.187 C 
ATOM     26  C   UNK d   1     -22.428  -0.941 -38.285  0.00  0.00     0.143 C 
ENDBRANCH  20  21
ENDBRANCH  19  20
ENDBRANCH  18  19
ENDBRANCH  16  18
ENDBRANCH  13  16
ENDBRANCH   1  13
BRANCH  11  27
ATOM     27  C   UNK d   1     -17.966  -0.251 -26.906  0.00  0.00     0.078 A 
ATOM     28  C   UNK d   1     -18.730   0.778 -26.179  0.00  0.00     0.015 A 
ATOM     29  C   UNK d   1     -17.338   1.075 -26.680  0.00  0.00     0.015 A 
ENDBRANCH  11  27
TORSDOF 7
ENDMDL
