/Users/jonathanwahrer/Desktop/Msc/3_Semester/Drug_Design_Praktikum/waehrer_HTS_screening/HTS_experiment/out/docking_results/vina_output/5l4q/1011_docked.pdbqt
 OpenBabel03212218263D

 29 32  0  0  0  0  0  0  0  0999 V2000
  -20.8420   -1.9590  -31.8490 C   0  0  0  0  0  0  0  0  0  0  0  0
  -20.2200   -1.3640  -30.7470 C   0  0  0  0  0  3  0  0  0  0  0  0
  -20.0810   -2.0560  -29.5640 C   0  0  0  0  0  0  0  0  0  0  0  0
  -20.5390   -3.3510  -29.4040 C   0  0  0  0  0  0  0  0  0  0  0  0
  -21.1480   -3.9420  -30.4760 C   0  0  0  0  0  3  0  0  0  0  0  0
  -21.2930   -3.2460  -31.6800 C   0  0  0  0  0  0  0  0  0  0  0  0
  -22.1580   -4.0790  -33.1750 Br  0  0  0  0  0  0  0  0  0  0  0  0
  -20.2490   -3.8070  -28.0160 C   0  0  0  0  0  2  0  0  0  0  0  0
  -20.0450   -2.4640  -27.2830 C   0  0  0  0  0  2  0  0  0  0  0  0
  -19.4730   -1.6330  -28.3300 N   0  0  0  0  0  0  0  0  0  0  0  0
  -18.5060   -0.6050  -28.2400 C   0  0  0  0  0  0  0  0  0  0  0  0
  -18.0850    0.0220  -29.2400 O   0  0  0  0  0  0  0  0  0  0  0  0
  -20.9990   -1.0620  -33.3360 S   0  0  0  0  0  0  0  0  0  0  0  0
  -20.5800    0.3860  -33.1130 O   0  0  0  0  0  0  0  0  0  0  0  0
  -20.1040   -1.5900  -34.4050 O   0  0  0  0  0  0  0  0  0  0  0  0
  -22.6460   -1.0000  -33.8360 N   0  0  0  0  0  0  0  0  0  0  0  0
  -22.8220   -1.8070  -34.4650 H   0  0  0  0  0  0  0  0  0  0  0  0
  -22.9870    0.2500  -34.4860 C   0  0  0  0  0  2  0  0  0  0  0  0
  -23.0770   -0.0560  -35.9740 C   0  0  0  0  0  2  0  0  0  0  0  0
  -23.5390   -1.4690  -36.2070 C   0  0  0  0  0  2  0  0  0  0  0  0
  -23.2160   -1.8460  -37.5310 N   0  0  0  0  0  0  0  0  0  0  0  0
  -24.2080   -2.5660  -38.2470 C   0  0  0  0  0  2  0  0  0  0  0  0
  -23.5330   -3.3050  -39.3900 C   0  0  0  0  0  2  0  0  0  0  0  0
  -22.5920   -2.5150  -40.0200 O   0  0  0  0  0  0  0  0  0  0  0  0
  -22.7490   -1.1570  -39.7670 C   0  0  0  0  0  2  0  0  0  0  0  0
  -22.4280   -0.9410  -38.2850 C   0  0  0  0  0  2  0  0  0  0  0  0
  -17.9660   -0.2510  -26.9060 C   0  0  0  0  0  3  0  0  0  0  0  0
  -18.7300    0.7780  -26.1790 C   0  0  0  0  0  2  0  0  0  0  0  0
  -17.3380    1.0750  -26.6800 C   0  0  0  0  0  2  0  0  0  0  0  0
  1  6  2  0  0  0  0
  1  2  1  0  0  0  0
  2  3  2  0  0  0  0
  3  4  1  0  0  0  0
  3 10  1  0  0  0  0
  4  8  1  0  0  0  0
  5  4  2  0  0  0  0
  6  5  1  0  0  0  0
  7  6  1  0  0  0  0
  8  9  1  0  0  0  0
 10 11  1  0  0  0  0
 10  9  1  0  0  0  0
 11 27  1  0  0  0  0
 12 11  2  0  0  0  0
 13 14  2  0  0  0  0
 13  1  1  0  0  0  0
 15 13  2  0  0  0  0
 16 13  1  0  0  0  0
 17 16  1  0  0  0  0
 18 16  1  0  0  0  0
 19 18  1  0  0  0  0
 20 19  1  0  0  0  0
 21 20  1  0  0  0  0
 22 21  1  0  0  0  0
 23 22  1  0  0  0  0
 24 25  1  0  0  0  0
 24 23  1  0  0  0  0
 25 26  1  0  0  0  0
 26 21  1  0  0  0  0
 27 29  1  0  0  0  0
 27 28  1  0  0  0  0
 29 28  1  0  0  0  0
M  END
>  <Pose>
1

>  <Score>
-8.679

$$$$
