MODEL 1
REMARK VINA RESULT:    -8.231      0.000      0.000
REMARK INTER + INTRA:         -10.570
REMARK INTER:                 -10.636
REMARK INTRA:                   0.066
REMARK UNBOUND:                 0.066
REMARK  5 active torsions:
REMARK  status: ('A' for Active; 'I' for Inactive)
REMARK    1  A    between atoms: S_1  and  N_4 
REMARK    2  A    between atoms: S_1  and  C_20 
REMARK    3  A    between atoms: C_6  and  N_8 
REMARK    4  A    between atoms: C_11  and  C_13 
REMARK    5  A    between atoms: C_13  and  N_14 
ROOT
ATOM      1  N   UNK d   1     -20.752  -1.079 -32.410  0.00  0.00    -0.202 NA
ATOM      2  C   UNK d   1     -21.413  -0.057 -33.140  0.00  0.00     0.136 C 
ATOM      3  C   UNK d   1     -20.980  -0.649 -34.424  0.00  0.00     0.139 C 
ATOM      4  C   UNK d   1     -20.486  -1.792 -33.608  0.00  0.00     0.136 C 
ENDROOT
BRANCH   3   5
ATOM      5  N   UNK d   1     -22.032  -1.033 -35.347  0.00  0.00    -0.254 N 
ATOM      6  N   UNK d   1     -22.751  -2.124 -35.352  0.00  0.00    -0.066 NA
ATOM      7  N   UNK d   1     -23.621  -2.105 -36.371  0.00  0.00    -0.134 NA
ATOM      8  C   UNK d   1     -23.459  -0.957 -37.052  0.00  0.00     0.093 A 
ATOM      9  C   UNK d   1     -22.443  -0.287 -36.386  0.00  0.00     0.145 A 
BRANCH   8  10
ATOM     10  C   UNK d   1     -24.208  -0.492 -38.267  0.00  0.00     0.188 C 
BRANCH  10  11
ATOM     11  N   UNK d   1     -23.247  -0.326 -39.343  0.00  0.00    -0.346 N 
ATOM     12  C   UNK d   1     -22.814   0.925 -39.889  0.00  0.00     0.126 C 
ATOM     13  C   UNK d   1     -21.767   0.590 -40.913  0.00  0.00     0.029 C 
ATOM     14  C   UNK d   1     -21.414  -0.856 -40.773  0.00  0.00     0.104 C 
ATOM     15  C   UNK d   1     -22.593  -1.399 -40.013  0.00  0.00     0.220 C 
ATOM     16  O   UNK d   1     -22.905  -2.604 -40.004  0.00  0.00    -0.273 OA
ENDBRANCH  10  11
ENDBRANCH   8  10
ENDBRANCH   3   5
BRANCH   1  17
ATOM     17  S   UNK d   1     -19.398  -0.695 -31.477  0.00  0.00     0.250 S 
ATOM     18  O   UNK d   1     -19.337   0.794 -31.297  0.00  0.00    -0.205 OA
ATOM     19  O   UNK d   1     -18.109  -1.097 -32.155  0.00  0.00    -0.205 OA
BRANCH  17  20
ATOM     20  C   UNK d   1     -19.428  -1.402 -29.863  0.00  0.00     0.116 A 
ATOM     21  S   UNK d   1     -18.721  -0.783 -28.429  0.00  0.00    -0.070 SA
ATOM     22  C   UNK d   1     -19.184  -2.014 -27.341  0.00  0.00     0.052 A 
ATOM     23  C   UNK d   1     -19.883  -2.879 -28.142  0.00  0.00     0.028 A 
ATOM     24 Br   UNK d   1     -18.830  -2.179 -25.454  0.00  0.00    -0.043 Br
ATOM     25  C   UNK d   1     -20.005  -2.560 -29.432  0.00  0.00     0.034 A 
ENDBRANCH  17  20
ENDBRANCH   1  17
TORSDOF 5
ENDMDL
