MODEL 1
REMARK VINA RESULT:    -9.576      0.000      0.000
REMARK INTER + INTRA:         -12.282
REMARK INTER:                 -11.815
REMARK INTRA:                  -0.467
REMARK UNBOUND:                -0.467
REMARK  4 active torsions:
REMARK  status: ('A' for Active; 'I' for Inactive)
REMARK    1  A    between atoms: S_1  and  N_4 
REMARK    2  A    between atoms: S_1  and  C_20 
REMARK       I    between atoms: N_7  and  C_10 
REMARK    3  A    between atoms: C_10  and  C_12 
REMARK    4  A    between atoms: C_12  and  C_13 
ROOT
ATOM      1  N   UNK d   1     -20.373  -1.251 -33.822  0.00  0.00    -0.304 N 
ATOM      2  C   UNK d   1     -21.405  -2.227 -33.904  0.00  0.00     0.155 C 
ATOM      3  C   UNK d   1     -22.545  -1.968 -34.775  0.00  0.00     0.145 C 
ATOM      4  N   UNK d   1     -22.438  -0.901 -35.751  0.00  0.00    -0.360 N 
ATOM      5  C   UNK d   1     -21.370   0.047 -35.684  0.00  0.00     0.145 C 
ATOM      6  C   UNK d   1     -20.128  -0.539 -35.023  0.00  0.00     0.155 C 
ATOM      7  C   UNK d   1     -23.393  -0.848 -36.768  0.00  0.00     0.158 C 
ATOM      8  O   UNK d   1     -24.211  -1.920 -36.707  0.00  0.00    -0.177 OA
ENDROOT
BRANCH   1   9
ATOM      9  S   UNK d   1     -20.327  -0.326 -32.403  0.00  0.00     0.261 S 
ATOM     10  O   UNK d   1     -21.618   0.434 -32.265  0.00  0.00    -0.200 OA
ATOM     11  O   UNK d   1     -19.229   0.721 -32.488  0.00  0.00    -0.200 OA
BRANCH   9  12
ATOM     12  C   UNK d   1     -20.154  -1.264 -30.935  0.00  0.00     0.082 A 
ATOM     13  C   UNK d   1     -19.396  -0.767 -29.875  0.00  0.00     0.057 A 
ATOM     14  C   UNK d   1     -19.212  -1.463 -28.700  0.00  0.00     0.070 A 
ATOM     15  C   UNK d   1     -19.781  -2.704 -28.519  0.00  0.00     0.096 A 
ATOM     16  N   UNK d   1     -18.416  -0.937 -27.625  0.00  0.00    -0.323 N 
ATOM     17  C   UNK d   1     -20.531  -3.201 -29.562  0.00  0.00     0.040 A 
ATOM     18  O   UNK d   1     -19.596  -3.424 -27.322  0.00  0.00    -0.340 OA
ATOM     19  C   UNK d   1     -20.721  -2.505 -30.751  0.00  0.00     0.028 A 
ATOM     20  C   UNK d   1     -19.308  -2.713 -26.106  0.00  0.00     0.278 C 
ATOM     21  C   UNK d   1     -18.260  -1.720 -26.455  0.00  0.00     0.246 C 
ATOM     22  O   UNK d   1     -17.237  -1.548 -25.753  0.00  0.00    -0.271 OA
ATOM     23  H   UNK d   1     -17.995  -0.007 -27.769  0.00  0.00     0.169 HD
ENDBRANCH   9  12
ENDBRANCH   1   9
BRANCH   7  24
ATOM     24  C   UNK d   1     -23.678   0.077 -37.826  0.00  0.00     0.127 C 
BRANCH  24  25
ATOM     25  C   UNK d   1     -22.976   0.014 -39.106  0.00  0.00    -0.033 A 
ATOM     26  C   UNK d   1     -23.065   1.032 -40.023  0.00  0.00     0.017 A 
ATOM     27  C   UNK d   1     -22.385   0.962 -41.238  0.00  0.00     0.019 A 
ATOM     28 Br   UNK d   1     -24.138   2.578 -39.654  0.00  0.00    -0.051 Br
ATOM     29  C   UNK d   1     -21.621  -0.132 -41.518  0.00  0.00     0.001 A 
ATOM     30  C   UNK d   1     -21.524  -1.170 -40.589  0.00  0.00     0.001 A 
ATOM     31  C   UNK d   1     -22.189  -1.099 -39.406  0.00  0.00     0.009 A 
ENDBRANCH  24  25
ENDBRANCH   7  24
TORSDOF 4
ENDMDL
