MODEL 1
REMARK VINA RESULT:    -8.882      0.000      0.000
REMARK INTER + INTRA:         -11.134
REMARK INTER:                 -10.959
REMARK INTRA:                  -0.175
REMARK UNBOUND:                -0.175
REMARK  4 active torsions:
REMARK  status: ('A' for Active; 'I' for Inactive)
REMARK    1  A    between atoms: S_1  and  N_4 
REMARK    2  A    between atoms: S_1  and  C_19 
REMARK       I    between atoms: N_7  and  C_10 
REMARK    3  A    between atoms: C_12  and  N_13 
REMARK    4  A    between atoms: C_22  and  O_30 
ROOT
ATOM      1  S   UNK d   1     -19.620  -0.492 -32.445  0.00  0.00     0.247 S 
ATOM      2  O   UNK d   1     -18.436   0.345 -32.145  0.00  0.00    -0.206 OA
ATOM      3  O   UNK d   1     -19.179  -1.396 -33.601  0.00  0.00    -0.206 OA
ENDROOT
BRANCH   1   4
ATOM      4  N   UNK d   1     -20.953   0.394 -33.076  0.00  0.00    -0.203 NA
ATOM      5  C   UNK d   1     -21.774  -0.346 -33.972  0.00  0.00     0.127 C 
ATOM      6  C   UNK d   1     -21.317  -0.296 -35.424  0.00  0.00     0.140 C 
ATOM      7  N   UNK d   1     -21.135   1.065 -35.802  0.00  0.00    -0.359 N 
ATOM      8  C   UNK d   1     -20.104   1.749 -34.956  0.00  0.00     0.140 C 
ATOM      9  C   UNK d   1     -21.728   1.834 -36.783  0.00  0.00     0.173 C 
ATOM     10  C   UNK d   1     -20.604   1.689 -33.553  0.00  0.00     0.127 C 
ATOM     11  O   UNK d   1     -21.305   3.081 -36.840  0.00  0.00    -0.175 OA
ATOM     12  C   UNK d   1     -22.730   1.519 -37.759  0.00  0.00     0.237 C 
BRANCH  12  13
ATOM     13  N   UNK d   1     -23.259   0.206 -37.831  0.00  0.00    -0.272 N 
ATOM     14  N   UNK d   1     -24.147  -0.362 -37.016  0.00  0.00    -0.183 NA
ATOM     15  C   UNK d   1     -24.440  -1.604 -37.421  0.00  0.00     0.159 A 
ATOM     16  C   UNK d   1     -23.691  -1.820 -38.552  0.00  0.00     0.047 A 
ATOM     17  C   UNK d   1     -22.962  -0.697 -38.802  0.00  0.00     0.133 A 
ATOM     18 Br   UNK d   1     -23.672  -3.430 -39.605  0.00  0.00    -0.048 Br
ENDBRANCH  12  13
ENDBRANCH   1   4
BRANCH   1  19
ATOM     19  C   UNK d   1     -20.095  -1.572 -31.172  0.00  0.00     0.118 A 
ATOM     20  C   UNK d   1     -20.551  -2.873 -31.429  0.00  0.00     0.131 A 
ATOM     21  C   UNK d   1     -20.929  -3.725 -30.412  0.00  0.00     0.140 A 
ATOM     22  O   UNK d   1     -20.702  -3.513 -32.655  0.00  0.00    -0.321 OA
ATOM     23  C   UNK d   1     -20.872  -3.329 -29.091  0.00  0.00     0.113 A 
ATOM     24  O   UNK d   1     -21.322  -4.912 -30.991  0.00  0.00    -0.320 OA
ATOM     25  C   UNK d   1     -20.429  -2.061 -28.832  0.00  0.00     0.004 A 
ATOM     26  C   UNK d   1     -20.051  -1.212 -29.868  0.00  0.00    -0.020 A 
ATOM     27  C   UNK d   1     -20.307  -1.491 -27.471  0.00  0.00     0.158 C 
ATOM     28  C   UNK d   1     -19.607   0.123 -29.434  0.00  0.00     0.060 C 
ATOM     29  C   UNK d   1     -18.597   0.019 -28.313  0.00  0.00     0.121 C 
ATOM     30  N   UNK d   1     -18.992  -0.946 -27.359  0.00  0.00    -0.412 N 
ATOM     31  C   UNK d   1     -17.991  -1.844 -26.901  0.00  0.00     0.143 C 
ATOM     32  C   UNK d   1     -21.321  -4.760 -32.382  0.00  0.00     0.352 C 
BRANCH  23  33
ATOM     33  O   UNK d   1     -21.257  -4.195 -28.046  0.00  0.00    -0.352 OA
ATOM     34  C   UNK d   1     -20.371  -5.262 -27.680  0.00  0.00     0.210 C 
ENDBRANCH  23  33
ENDBRANCH   1  19
TORSDOF 4
ENDMDL
