/Users/jonathanwahrer/Desktop/Msc/3_Semester/Drug_Design_Praktikum/waehrer_HTS_screening/HTS_experiment/out/docking_results/vina_output/5l4q/1042_docked.pdbqt
 OpenBabel03212218283D

 31 34  0  0  0  0  0  0  0  0999 V2000
  -20.0910   -1.1630  -30.7350 N   0  0  0  0  0  0  0  0  0  0  0  0
  -20.4380   -2.4790  -30.9950 C   0  0  0  0  0  2  0  0  0  0  0  0
  -20.3610   -2.7040  -32.5300 C   0  0  0  0  0  2  0  0  0  0  0  0
  -21.1230   -1.6900  -33.2050 N   0  0  0  0  0  0  0  0  0  0  0  0
  -20.7340   -0.3190  -32.9690 C   0  0  0  0  0  2  0  0  0  0  0  0
  -19.7170   -0.3360  -31.8490 C   0  0  0  0  0  2  0  0  0  0  0  0
  -22.2040   -1.9670  -34.0630 C   0  0  0  0  0  0  0  0  0  0  0  0
  -22.5360   -3.1570  -34.2630 O   0  0  0  0  0  0  0  0  0  0  0  0
  -22.9410   -0.8870  -34.7220 C   0  0  0  0  0  2  0  0  0  0  0  0
  -22.6370   -0.8550  -36.1510 N   0  0  0  0  0  0  0  0  0  0  0  0
  -23.2350   -1.5620  -37.2170 C   0  0  0  0  0  0  0  0  0  0  0  0
  -24.1950   -2.3920  -37.0980 O   0  0  0  0  0  0  0  0  0  0  0  0
  -22.5710   -1.1720  -38.4130 N   0  0  0  0  0  0  0  0  0  0  0  0
  -21.9250    0.0860  -38.1460 C   0  0  0  0  0  0  0  0  0  0  0  0
  -22.5990   -1.7560  -39.2860 H   0  0  0  0  0  0  0  0  0  0  0  0
  -22.7700    1.2770  -38.4610 C   0  0  0  0  0  2  0  0  0  0  0  0
  -20.6880    0.2830  -38.9900 C   0  0  0  0  0  2  0  0  0  0  0  0
  -21.5960   -0.0250  -36.7050 C   0  0  0  0  0  0  0  0  0  0  0  0
  -21.7280    2.4020  -38.4690 C   0  0  0  0  0  2  0  0  0  0  0  0
  -20.5120    1.7630  -39.0810 C   0  0  0  0  0  2  0  0  0  0  0  0
  -20.6230    0.4920  -36.1120 O   0  0  0  0  0  0  0  0  0  0  0  0
  -19.7620   -0.5720  -29.2230 S   0  0  0  0  0  0  0  0  0  0  0  0
  -18.4380    0.2010  -29.2880 O   0  0  0  0  0  0  0  0  0  0  0  0
  -20.7650    0.5040  -28.7950 O   0  0  0  0  0  0  0  0  0  0  0  0
  -19.5680   -1.7060  -27.9220 C   0  0  0  0  0  0  0  0  0  0  0  0
  -18.9780   -1.4600  -26.7120 C   0  0  0  0  0  0  0  0  0  0  0  0
  -18.8250   -2.4620  -25.7460 C   0  0  0  0  0  3  0  0  0  0  0  0
  -18.4090    0.3030  -26.2990 Br  0  0  0  0  0  0  0  0  0  0  0  0
  -19.2560   -3.7320  -25.9610 C   0  0  0  0  0  3  0  0  0  0  0  0
  -19.8540   -4.0110  -27.1600 C   0  0  0  0  0  3  0  0  0  0  0  0
  -20.0050   -3.0300  -28.1120 C   0  0  0  0  0  3  0  0  0  0  0  0
  1 22  1  0  0  0  0
  2  1  1  0  0  0  0
  3  2  1  0  0  0  0
  4  5  1  0  0  0  0
  4  3  1  0  0  0  0
  5  6  1  0  0  0  0
  6  1  1  0  0  0  0
  7  4  1  0  0  0  0
  8  7  2  0  0  0  0
  9  7  1  0  0  0  0
 10  9  1  0  0  0  0
 11 12  2  0  0  0  0
 11 10  1  0  0  0  0
 13 14  1  0  0  0  0
 13 11  1  0  0  0  0
 14 18  1  0  0  0  0
 15 13  1  0  0  0  0
 16 14  1  0  0  0  0
 17 14  1  0  0  0  0
 18 10  1  0  0  0  0
 18 21  2  0  0  0  0
 19 16  1  0  0  0  0
 20 17  1  0  0  0  0
 20 19  1  0  0  0  0
 22 24  2  0  0  0  0
 22 25  1  0  0  0  0
 23 22  2  0  0  0  0
 25 26  1  0  0  0  0
 26 28  1  0  0  0  0
 26 27  2  0  0  0  0
 29 27  1  0  0  0  0
 30 29  2  0  0  0  0
 31 25  2  0  0  0  0
 31 30  1  0  0  0  0
M  END
>  <Pose>
1

>  <Score>
-9.740

$$$$
