MODEL 1
REMARK VINA RESULT:    -9.740      0.000      0.000
REMARK INTER + INTRA:         -11.745
REMARK INTER:                 -12.018
REMARK INTRA:                   0.273
REMARK UNBOUND:                 0.273
REMARK  4 active torsions:
REMARK  status: ('A' for Active; 'I' for Inactive)
REMARK    1  A    between atoms: S_1  and  N_4 
REMARK    2  A    between atoms: S_1  and  C_24 
REMARK       I    between atoms: N_7  and  C_10 
REMARK    3  A    between atoms: C_10  and  C_12 
REMARK    4  A    between atoms: C_12  and  N_13 
ROOT
ATOM      1  N   UNK d   1     -20.091  -1.163 -30.735  0.00  0.00    -0.304 N 
ATOM      2  C   UNK d   1     -20.438  -2.479 -30.995  0.00  0.00     0.155 C 
ATOM      3  C   UNK d   1     -20.361  -2.704 -32.530  0.00  0.00     0.146 C 
ATOM      4  N   UNK d   1     -21.123  -1.690 -33.205  0.00  0.00    -0.348 N 
ATOM      5  C   UNK d   1     -20.734  -0.319 -32.969  0.00  0.00     0.146 C 
ATOM      6  C   UNK d   1     -19.717  -0.336 -31.849  0.00  0.00     0.155 C 
ATOM      7  C   UNK d   1     -22.204  -1.967 -34.063  0.00  0.00     0.238 C 
ATOM      8  O   UNK d   1     -22.536  -3.157 -34.263  0.00  0.00    -0.272 OA
ENDROOT
BRANCH   7   9
ATOM      9  C   UNK d   1     -22.941  -0.887 -34.722  0.00  0.00     0.239 C 
BRANCH   9  10
ATOM     10  N   UNK d   1     -22.637  -0.855 -36.151  0.00  0.00    -0.259 N 
ATOM     11  C   UNK d   1     -23.235  -1.562 -37.217  0.00  0.00     0.326 C 
ATOM     12  O   UNK d   1     -24.195  -2.392 -37.098  0.00  0.00    -0.247 OA
ATOM     13  N   UNK d   1     -22.571  -1.172 -38.413  0.00  0.00    -0.324 N 
ATOM     14  C   UNK d   1     -21.925   0.086 -38.146  0.00  0.00     0.116 C 
ATOM     15  H   UNK d   1     -22.599  -1.756 -39.286  0.00  0.00     0.165 HD
ATOM     16  C   UNK d   1     -22.770   1.277 -38.461  0.00  0.00     0.041 C 
ATOM     17  C   UNK d   1     -20.688   0.283 -38.990  0.00  0.00     0.041 C 
ATOM     18  C   UNK d   1     -21.596  -0.025 -36.705  0.00  0.00     0.256 C 
ATOM     19  C   UNK d   1     -21.728   2.402 -38.469  0.00  0.00     0.003 C 
ATOM     20  C   UNK d   1     -20.512   1.763 -39.081  0.00  0.00     0.003 C 
ATOM     21  O   UNK d   1     -20.623   0.492 -36.112  0.00  0.00    -0.270 OA
ENDBRANCH   9  10
ENDBRANCH   7   9
BRANCH   1  22
ATOM     22  S   UNK d   1     -19.762  -0.572 -29.223  0.00  0.00     0.262 S 
ATOM     23  O   UNK d   1     -18.438   0.201 -29.288  0.00  0.00    -0.200 OA
ATOM     24  O   UNK d   1     -20.765   0.504 -28.795  0.00  0.00    -0.200 OA
BRANCH  22  25
ATOM     25  C   UNK d   1     -19.568  -1.706 -27.922  0.00  0.00     0.097 A 
ATOM     26  C   UNK d   1     -18.978  -1.460 -26.712  0.00  0.00     0.034 A 
ATOM     27  C   UNK d   1     -18.825  -2.462 -25.746  0.00  0.00     0.020 A 
ATOM     28 Br   UNK d   1     -18.409   0.303 -26.299  0.00  0.00    -0.049 Br
ATOM     29  C   UNK d   1     -19.256  -3.732 -25.961  0.00  0.00     0.001 A 
ATOM     30  C   UNK d   1     -19.854  -4.011 -27.160  0.00  0.00     0.002 A 
ATOM     31  C   UNK d   1     -20.005  -3.030 -28.112  0.00  0.00     0.027 A 
ENDBRANCH  22  25
ENDBRANCH   1  22
TORSDOF 4
ENDMDL
