MODEL 1
REMARK VINA RESULT:    -9.762      0.000      0.000
REMARK INTER + INTRA:         -11.188
REMARK INTER:                 -11.474
REMARK INTRA:                   0.286
REMARK UNBOUND:                 0.286
REMARK  3 active torsions:
REMARK  status: ('A' for Active; 'I' for Inactive)
REMARK    1  A    between atoms: S_1  and  N_4 
REMARK    2  A    between atoms: S_1  and  C_24 
REMARK       I    between atoms: N_7  and  C_10 
REMARK    3  A    between atoms: C_12  and  N_13 
ROOT
ATOM      1  N   UNK d   1     -21.061  -2.190 -32.408  0.00  0.00    -0.203 NA
ATOM      2  C   UNK d   1     -20.536  -1.068 -31.659  0.00  0.00     0.127 C 
ATOM      3  C   UNK d   1     -19.441  -0.367 -32.423  0.00  0.00     0.140 C 
ATOM      4  N   UNK d   1     -19.979  -0.069 -33.767  0.00  0.00    -0.359 N 
ATOM      5  C   UNK d   1     -20.468  -1.198 -34.495  0.00  0.00     0.140 C 
ATOM      6  C   UNK d   1     -20.301  -2.436 -33.583  0.00  0.00     0.127 C 
ATOM      7  C   UNK d   1     -19.994   1.246 -34.254  0.00  0.00     0.172 C 
ATOM      8  O   UNK d   1     -19.509   2.144 -33.420  0.00  0.00    -0.175 OA
ATOM      9  C   UNK d   1     -20.438   1.824 -35.497  0.00  0.00     0.224 C 
ENDROOT
BRANCH   9  10
ATOM     10  N   UNK d   1     -20.986   0.997 -36.525  0.00  0.00    -0.260 N 
ATOM     11  C   UNK d   1     -20.275   0.350 -37.611  0.00  0.00     0.326 C 
ATOM     12  O   UNK d   1     -19.025   0.442 -37.757  0.00  0.00    -0.247 OA
ATOM     13  N   UNK d   1     -21.227  -0.348 -38.398  0.00  0.00    -0.324 N 
ATOM     14  C   UNK d   1     -22.508   0.195 -38.094  0.00  0.00     0.116 C 
ATOM     15  H   UNK d   1     -20.954  -1.120 -39.066  0.00  0.00     0.165 HD
ATOM     16  C   UNK d   1     -22.936   1.290 -39.042  0.00  0.00     0.041 C 
ATOM     17  C   UNK d   1     -23.630  -0.815 -38.265  0.00  0.00     0.041 C 
ATOM     18  C   UNK d   1     -22.374   0.650 -36.711  0.00  0.00     0.256 C 
ATOM     19  C   UNK d   1     -24.406   1.429 -38.697  0.00  0.00     0.003 C 
ATOM     20  C   UNK d   1     -24.849   0.073 -38.204  0.00  0.00     0.003 C 
ATOM     21  O   UNK d   1     -23.266   0.738 -35.828  0.00  0.00    -0.270 OA
ENDBRANCH   9  10
BRANCH   1  22
ATOM     22  S   UNK d   1     -21.344  -3.569 -31.442  0.00  0.00     0.243 S 
ATOM     23  O   UNK d   1     -20.689  -4.745 -32.144  0.00  0.00    -0.206 OA
ATOM     24  O   UNK d   1     -22.821  -3.873 -31.429  0.00  0.00    -0.206 OA
BRANCH  22  25
ATOM     25  C   UNK d   1     -20.745  -3.400 -29.809  0.00  0.00     0.074 A 
ATOM     26  C   UNK d   1     -20.495  -2.167 -29.242  0.00  0.00     0.026 A 
ATOM     27  C   UNK d   1     -20.018  -2.043 -27.942  0.00  0.00     0.020 A 
ATOM     28  C   UNK d   1     -19.780  -3.153 -27.174  0.00  0.00     0.011 A 
ATOM     29  C   UNK d   1     -20.027  -4.391 -27.729  0.00  0.00     0.020 A 
ATOM     30 Br   UNK d   1     -19.120  -2.990 -25.372  0.00  0.00    -0.051 Br
ATOM     31  C   UNK d   1     -20.503  -4.508 -29.026  0.00  0.00     0.026 A 
ENDBRANCH  22  25
ENDBRANCH   1  22
TORSDOF 3
ENDMDL
