MODEL 1
REMARK VINA RESULT:    -9.274      0.000      0.000
REMARK INTER + INTRA:         -11.490
REMARK INTER:                 -10.900
REMARK INTRA:                  -0.590
REMARK UNBOUND:                -0.590
REMARK  3 active torsions:
REMARK  status: ('A' for Active; 'I' for Inactive)
REMARK    1  A    between atoms: S_1  and  N_4 
REMARK    2  A    between atoms: S_1  and  C_19 
REMARK       I    between atoms: N_7  and  C_10 
REMARK    3  A    between atoms: C_10  and  C_12 
ROOT
ATOM      1  N   UNK d   1     -20.538   1.277 -34.620  0.00  0.00    -0.304 N 
ATOM      2  C   UNK d   1     -21.784   1.640 -34.105  0.00  0.00     0.155 C 
ATOM      3  C   UNK d   1     -22.962   1.448 -34.992  0.00  0.00     0.146 C 
ATOM      4  N   UNK d   1     -22.809   0.425 -35.977  0.00  0.00    -0.345 N 
ATOM      5  C   UNK d   1     -21.571  -0.323 -36.026  0.00  0.00     0.146 C 
ATOM      6  C   UNK d   1     -20.458   0.716 -35.906  0.00  0.00     0.155 C 
ATOM      7  C   UNK d   1     -23.824   0.112 -36.913  0.00  0.00     0.255 C 
ATOM      8  O   UNK d   1     -24.930   0.743 -36.908  0.00  0.00    -0.267 OA
ENDROOT
BRANCH   1   9
ATOM      9  S   UNK d   1     -19.323   0.863 -33.519  0.00  0.00     0.261 S 
ATOM     10  O   UNK d   1     -18.000   0.613 -34.130  0.00  0.00    -0.200 OA
ATOM     11  O   UNK d   1     -19.153   2.034 -32.559  0.00  0.00    -0.200 OA
BRANCH   9  12
ATOM     12  C   UNK d   1     -19.840  -0.491 -32.521  0.00  0.00     0.082 A 
ATOM     13  C   UNK d   1     -19.641  -0.498 -31.156  0.00  0.00     0.057 A 
ATOM     14  C   UNK d   1     -20.035  -1.544 -30.347  0.00  0.00     0.070 A 
ATOM     15  C   UNK d   1     -20.659  -2.648 -30.891  0.00  0.00     0.096 A 
ATOM     16  N   UNK d   1     -19.830  -1.555 -28.941  0.00  0.00    -0.323 N 
ATOM     17  C   UNK d   1     -20.862  -2.644 -32.262  0.00  0.00     0.040 A 
ATOM     18  O   UNK d   1     -21.069  -3.720 -30.100  0.00  0.00    -0.340 OA
ATOM     19  C   UNK d   1     -20.465  -1.595 -33.065  0.00  0.00     0.028 A 
ATOM     20  C   UNK d   1     -20.678  -3.908 -28.753  0.00  0.00     0.278 C 
ATOM     21  C   UNK d   1     -20.241  -2.640 -28.116  0.00  0.00     0.246 C 
ATOM     22  O   UNK d   1     -20.256  -2.592 -26.860  0.00  0.00    -0.271 OA
ATOM     23  H   UNK d   1     -19.360  -0.729 -28.514  0.00  0.00     0.169 HD
ENDBRANCH   9  12
ENDBRANCH   1   9
BRANCH   7  24
ATOM     24  C   UNK d   1     -23.685  -0.927 -37.924  0.00  0.00     0.049 A 
ATOM     25  C   UNK d   1     -23.069  -0.698 -39.140  0.00  0.00     0.026 A 
ATOM     26  C   UNK d   1     -22.931  -1.671 -40.102  0.00  0.00     0.020 A 
ATOM     27 Br   UNK d   1     -22.397   1.063 -39.449  0.00  0.00    -0.050 Br
ATOM     28  C   UNK d   1     -23.436  -2.933 -39.828  0.00  0.00     0.001 A 
ATOM     29  C   UNK d   1     -24.057  -3.219 -38.635  0.00  0.00     0.001 A 
ATOM     30  C   UNK d   1     -24.171  -2.209 -37.705  0.00  0.00     0.018 A 
ENDBRANCH   7  24
TORSDOF 3
ENDMDL
