/Users/jonathanwahrer/Desktop/Msc/3_Semester/Drug_Design_Praktikum/waehrer_HTS_screening/HTS_experiment/out/docking_results/vina_output/5l4q/1056_docked.pdbqt
 OpenBabel03212218283D

 30 33  0  0  1  0  0  0  0  0999 V2000
  -23.9210    0.9480  -36.4470 N   0  0  0  0  0  0  0  0  0  0  0  0
  -22.6930    1.6360  -36.5630 C   0  0  0  0  0  2  0  0  0  0  0  0
  -21.4710    0.9110  -36.1750 C   0  0  0  0  0  2  0  0  0  0  0  0
  -21.6740    0.0950  -35.0150 N   0  0  0  0  0  0  0  0  0  0  0  0
  -22.9450    0.1210  -34.3500 C   0  0  0  0  0  2  0  0  0  0  0  0
  -24.1120    0.1550  -35.2870 C   0  0  0  0  0  2  0  0  0  0  0  0
  -20.6410   -0.7290  -34.5230 C   0  0  0  0  0  0  0  0  0  0  0  0
  -19.5390   -0.7390  -35.1170 O   0  0  0  0  0  0  0  0  0  0  0  0
  -20.7770   -1.5830  -33.3500 C   0  0  1  0  0  3  0  0  0  0  0  0
  -21.3020   -2.8550  -33.4830 C   0  0  0  0  0  3  0  0  0  0  0  0
  -21.4260   -3.6440  -32.4040 N   0  0  0  0  0  0  0  0  0  0  0  0
  -21.0550   -3.2450  -31.1680 C   0  0  1  0  0  3  0  0  0  0  0  0
  -20.5410   -2.0140  -31.0040 N   0  0  0  0  0  0  0  0  0  0  0  0
  -21.1960   -4.0830  -30.0670 C   0  0  0  0  0  3  0  0  0  0  0  0
  -20.1640   -1.6070  -29.7590 C   0  0  0  0  0  3  0  0  0  0  0  0
  -20.4030   -1.1940  -32.0800 C   0  0  0  0  0  0  0  0  0  0  0  0
  -20.2960   -2.4240  -28.6550 C   0  0  0  0  0  0  0  0  0  0  0  0
  -20.8240   -3.6960  -28.7990 C   0  0  0  0  0  3  0  0  0  0  0  0
  -19.8980   -2.0170  -27.2840 C   0  0  0  0  0  1  0  0  0  0  0  0
  -19.9280   -0.0580  -31.9270 O   0  0  0  0  0  0  0  0  0  0  0  0
  -24.5910    0.3530  -37.8820 S   0  0  0  0  0  0  0  0  0  0  0  0
  -24.8040   -1.1180  -37.7870 O   0  0  0  0  0  0  0  0  0  0  0  0
  -25.9290    1.0170  -38.0960 O   0  0  0  0  0  0  0  0  0  0  0  0
  -23.5640    0.7490  -39.2330 C   0  0  0  0  0  0  0  0  0  0  0  0
  -23.5260    2.0380  -39.7210 C   0  0  0  0  0  3  0  0  0  0  0  0
  -22.6840    2.2850  -40.8010 C   0  0  0  0  0  0  0  0  0  0  0  0
  -21.9170    1.3020  -41.3690 C   0  0  0  0  0  3  0  0  0  0  0  0
  -22.5880    4.0430  -41.5200 Br  0  0  0  0  0  0  0  0  0  0  0  0
  -21.9620    0.0080  -40.8700 C   0  0  0  0  0  3  0  0  0  0  0  0
  -22.8020   -0.2610  -39.7840 C   0  0  0  0  0  3  0  0  0  0  0  0
  1  6  1  0  0  0  0
  2  1  1  0  0  0  0
  2  3  1  0  0  0  0
  3  4  1  0  0  0  0
  4  7  1  0  0  0  0
  4  5  1  0  0  0  0
  6  5  1  0  0  0  0
  8  7  2  0  0  0  0
  9  7  1  6  0  0  0
  9 16  1  0  0  0  0
 10  9  1  0  0  0  0
 10 11  2  0  0  0  0
 11 12  1  0  0  0  0
 12 13  1  0  0  0  0
 12 14  1  1  0  0  0
 13 15  1  0  0  0  0
 14 18  2  0  0  0  0
 15 17  2  0  0  0  0
 16 20  2  0  0  0  0
 16 13  1  0  0  0  0
 17 19  1  0  0  0  0
 18 17  1  0  0  0  0
 21 22  2  0  0  0  0
 21  1  1  0  0  0  0
 23 21  2  0  0  0  0
 24 21  1  0  0  0  0
 25 24  1  0  0  0  0
 26 25  2  0  0  0  0
 27 29  2  0  0  0  0
 27 26  1  0  0  0  0
 28 26  1  0  0  0  0
 29 30  1  0  0  0  0
 30 24  2  0  0  0  0
M  END
>  <Pose>
1

>  <Score>
-9.553

$$$$
