MODEL 1
REMARK VINA RESULT:    -9.553      0.000      0.000
REMARK INTER + INTRA:         -11.749
REMARK INTER:                 -11.229
REMARK INTRA:                  -0.520
REMARK UNBOUND:                -0.520
REMARK  3 active torsions:
REMARK  status: ('A' for Active; 'I' for Inactive)
REMARK    1  A    between atoms: S_1  and  N_4 
REMARK    2  A    between atoms: S_1  and  C_24 
REMARK       I    between atoms: N_7  and  C_10 
REMARK    3  A    between atoms: C_10  and  C_12 
ROOT
ATOM      1  N   UNK d   1     -23.921   0.948 -36.447  0.00  0.00    -0.304 N 
ATOM      2  C   UNK d   1     -22.693   1.636 -36.563  0.00  0.00     0.155 C 
ATOM      3  C   UNK d   1     -21.471   0.911 -36.175  0.00  0.00     0.146 C 
ATOM      4  N   UNK d   1     -21.674   0.095 -35.015  0.00  0.00    -0.345 N 
ATOM      5  C   UNK d   1     -22.945   0.121 -34.350  0.00  0.00     0.146 C 
ATOM      6  C   UNK d   1     -24.112   0.155 -35.287  0.00  0.00     0.155 C 
ATOM      7  C   UNK d   1     -20.641  -0.729 -34.523  0.00  0.00     0.260 C 
ATOM      8  O   UNK d   1     -19.539  -0.739 -35.117  0.00  0.00    -0.267 OA
ENDROOT
BRANCH   7   9
ATOM      9  C   UNK d   1     -20.777  -1.583 -33.350  0.00  0.00     0.118 A 
ATOM     10  C   UNK d   1     -21.302  -2.855 -33.483  0.00  0.00     0.141 A 
ATOM     11  N   UNK d   1     -21.426  -3.644 -32.404  0.00  0.00    -0.242 NA
ATOM     12  C   UNK d   1     -21.055  -3.245 -31.168  0.00  0.00     0.136 A 
ATOM     13  N   UNK d   1     -20.541  -2.014 -31.004  0.00  0.00    -0.272 N 
ATOM     14  C   UNK d   1     -21.196  -4.083 -30.067  0.00  0.00     0.051 A 
ATOM     15  C   UNK d   1     -20.164  -1.607 -29.759  0.00  0.00     0.108 A 
ATOM     16  C   UNK d   1     -20.403  -1.194 -32.080  0.00  0.00     0.270 A 
ATOM     17  C   UNK d   1     -20.296  -2.424 -28.655  0.00  0.00    -0.046 A 
ATOM     18  C   UNK d   1     -20.824  -3.696 -28.799  0.00  0.00     0.012 A 
ATOM     19  C   UNK d   1     -19.898  -2.017 -27.284  0.00  0.00     0.049 C 
ATOM     20  O   UNK d   1     -19.928  -0.058 -31.927  0.00  0.00    -0.266 OA
ENDBRANCH   7   9
BRANCH   1  21
ATOM     21  S   UNK d   1     -24.591   0.353 -37.882  0.00  0.00     0.261 S 
ATOM     22  O   UNK d   1     -24.804  -1.118 -37.787  0.00  0.00    -0.200 OA
ATOM     23  O   UNK d   1     -25.929   1.017 -38.096  0.00  0.00    -0.200 OA
BRANCH  21  24
ATOM     24  C   UNK d   1     -23.564   0.749 -39.233  0.00  0.00     0.081 A 
ATOM     25  C   UNK d   1     -23.526   2.038 -39.721  0.00  0.00     0.044 A 
ATOM     26  C   UNK d   1     -22.684   2.285 -40.801  0.00  0.00     0.012 A 
ATOM     27  C   UNK d   1     -21.917   1.302 -41.369  0.00  0.00     0.019 A 
ATOM     28 Br   UNK d   1     -22.588   4.043 -41.520  0.00  0.00    -0.051 Br
ATOM     29  C   UNK d   1     -21.962   0.008 -40.870  0.00  0.00     0.003 A 
ATOM     30  C   UNK d   1     -22.802  -0.261 -39.784  0.00  0.00     0.025 A 
ENDBRANCH  21  24
ENDBRANCH   1  21
TORSDOF 3
ENDMDL
