MODEL 1
REMARK VINA RESULT:    -8.819      0.000      0.000
REMARK INTER + INTRA:         -12.365
REMARK INTER:                 -11.397
REMARK INTRA:                  -0.968
REMARK UNBOUND:                -0.968
REMARK  5 active torsions:
REMARK  status: ('A' for Active; 'I' for Inactive)
REMARK    1  A    between atoms: S_1  and  N_4 
REMARK    2  A    between atoms: S_1  and  C_24 
REMARK    3  A    between atoms: N_7  and  C_10 
REMARK    4  A    between atoms: C_10  and  C_11 
REMARK    5  A    between atoms: C_11  and  N_12 
ROOT
ATOM      1  N   UNK d   1     -20.985   1.571 -35.577  0.00  0.00    -0.303 N 
ATOM      2  C   UNK d   1     -22.150   1.526 -34.733  0.00  0.00     0.165 C 
ATOM      3  C   UNK d   1     -22.027   0.460 -33.669  0.00  0.00     0.293 C 
ATOM      4  N   UNK d   1     -21.731  -0.852 -34.296  0.00  0.00     0.093 N 
ATOM      5  C   UNK d   1     -20.425  -0.748 -34.931  0.00  0.00     0.293 C 
ATOM      6  C   UNK d   1     -19.961   0.687 -35.111  0.00  0.00     0.165 C 
ENDROOT
BRANCH   4   7
ATOM      7  C   UNK d   1     -21.650  -1.760 -33.172  0.00  0.00     0.293 C 
BRANCH   7   8
ATOM      8  C   UNK d   1     -20.317  -2.183 -32.723  0.00  0.00     0.165 C 
BRANCH   8   9
ATOM      9  N   UNK d   1     -19.919  -1.959 -31.374  0.00  0.00    -0.286 N 
ATOM     10  C   UNK d   1     -20.281  -2.634 -30.175  0.00  0.00     0.232 C 
ATOM     11  O   UNK d   1     -21.333  -3.264 -29.996  0.00  0.00    -0.272 OA
ATOM     12  C   UNK d   1     -19.195  -2.456 -29.181  0.00  0.00     0.100 C 
ATOM     13  C   UNK d   1     -18.642  -1.080 -29.616  0.00  0.00     0.100 C 
ATOM     14  C   UNK d   1     -19.765  -2.108 -27.852  0.00  0.00     0.022 C 
ATOM     15  C   UNK d   1     -19.259  -0.094 -28.698  0.00  0.00     0.022 C 
ATOM     16  C   UNK d   1     -18.958  -0.936 -31.030  0.00  0.00     0.232 C 
ATOM     17  C   UNK d   1     -20.529  -0.830 -28.238  0.00  0.00     0.018 C 
ATOM     18  C   UNK d   1     -18.507  -0.203 -27.388  0.00  0.00    -0.025 C 
ATOM     19  C   UNK d   1     -18.655  -1.486 -27.056  0.00  0.00    -0.025 C 
ATOM     20  O   UNK d   1     -18.464  -0.065 -31.788  0.00  0.00    -0.272 OA
ENDBRANCH   8   9
ENDBRANCH   7   8
ENDBRANCH   4   7
BRANCH   1  21
ATOM     21  S   UNK d   1     -21.254   1.654 -37.233  0.00  0.00     0.260 S 
ATOM     22  O   UNK d   1     -22.007   2.947 -37.520  0.00  0.00    -0.200 OA
ATOM     23  O   UNK d   1     -19.900   1.864 -37.912  0.00  0.00    -0.200 OA
BRANCH  21  24
ATOM     24  C   UNK d   1     -21.997   0.300 -37.983  0.00  0.00     0.079 A 
ATOM     25  C   UNK d   1     -23.203  -0.180 -37.535  0.00  0.00     0.026 A 
ATOM     26  C   UNK d   1     -23.776  -1.266 -38.171  0.00  0.00     0.020 A 
ATOM     27  C   UNK d   1     -23.180  -1.897 -39.248  0.00  0.00     0.011 A 
ATOM     28  C   UNK d   1     -21.968  -1.412 -39.695  0.00  0.00     0.020 A 
ATOM     29 Br   UNK d   1     -23.967  -3.396 -40.125  0.00  0.00    -0.051 Br
ATOM     30  C   UNK d   1     -21.393  -0.319 -39.055  0.00  0.00     0.026 A 
ENDBRANCH  21  24
ENDBRANCH   1  21
TORSDOF 5
ENDMDL
