/Users/jonathanwahrer/Desktop/Msc/3_Semester/Drug_Design_Praktikum/waehrer_HTS_screening/HTS_experiment/out/docking_results/vina_output/5l4q/1061_docked.pdbqt
 OpenBabel03212218293D

 30 34  0  0  1  0  0  0  0  0999 V2000
  -20.9850    1.5710  -35.5770 N   0  0  0  0  0  0  0  0  0  0  0  0
  -22.1500    1.5260  -34.7330 C   0  0  0  0  0  2  0  0  0  0  0  0
  -22.0270    0.4600  -33.6690 C   0  0  0  0  0  2  0  0  0  0  0  0
  -21.7310   -0.8520  -34.2960 N   0  0  0  0  0  0  0  0  0  0  0  0
  -20.4250   -0.7480  -34.9310 C   0  0  0  0  0  2  0  0  0  0  0  0
  -19.9610    0.6870  -35.1110 C   0  0  0  0  0  2  0  0  0  0  0  0
  -21.6500   -1.7600  -33.1720 C   0  0  0  0  0  2  0  0  0  0  0  0
  -20.3170   -2.1830  -32.7230 C   0  0  0  0  0  2  0  0  0  0  0  0
  -19.9190   -1.9590  -31.3740 N   0  0  0  0  0  0  0  0  0  0  0  0
  -20.2810   -2.6340  -30.1750 C   0  0  0  0  0  0  0  0  0  0  0  0
  -21.3330   -3.2640  -29.9960 O   0  0  0  0  0  0  0  0  0  0  0  0
  -19.1950   -2.4560  -29.1810 C   0  0  1  0  0  3  0  0  0  0  0  0
  -18.6420   -1.0800  -29.6160 C   0  0  2  0  0  3  0  0  0  0  0  0
  -19.7650   -2.1080  -27.8520 C   0  0  2  0  0  3  0  0  0  0  0  0
  -19.2590   -0.0940  -28.6980 C   0  0  1  0  0  3  0  0  0  0  0  0
  -18.9580   -0.9360  -31.0300 C   0  0  0  0  0  0  0  0  0  0  0  0
  -20.5290   -0.8300  -28.2380 C   0  0  0  0  0  2  0  0  0  0  0  0
  -18.5070   -0.2030  -27.3880 C   0  0  0  0  0  2  0  0  0  0  0  0
  -18.6550   -1.4860  -27.0560 C   0  0  0  0  0  2  0  0  0  0  0  0
  -18.4640   -0.0650  -31.7880 O   0  0  0  0  0  0  0  0  0  0  0  0
  -21.2540    1.6540  -37.2330 S   0  0  0  0  0  0  0  0  0  0  0  0
  -22.0070    2.9470  -37.5200 O   0  0  0  0  0  0  0  0  0  0  0  0
  -19.9000    1.8640  -37.9120 O   0  0  0  0  0  0  0  0  0  0  0  0
  -21.9970    0.3000  -37.9830 C   0  0  0  0  0  0  0  0  0  0  0  0
  -23.2030   -0.1800  -37.5350 C   0  0  0  0  0  3  0  0  0  0  0  0
  -23.7760   -1.2660  -38.1710 C   0  0  0  0  0  3  0  0  0  0  0  0
  -23.1800   -1.8970  -39.2480 C   0  0  0  0  0  0  0  0  0  0  0  0
  -21.9680   -1.4120  -39.6950 C   0  0  0  0  0  3  0  0  0  0  0  0
  -23.9670   -3.3960  -40.1250 Br  0  0  0  0  0  0  0  0  0  0  0  0
  -21.3930   -0.3190  -39.0550 C   0  0  0  0  0  3  0  0  0  0  0  0
  1  6  1  0  0  0  0
  1  2  1  0  0  0  0
  2  3  1  0  0  0  0
  4  3  1  0  0  0  0
  4  7  1  0  0  0  0
  5  4  1  0  0  0  0
  6  5  1  0  0  0  0
  7  8  1  0  0  0  0
  8  9  1  0  0  0  0
  9 16  1  0  0  0  0
  9 10  1  0  0  0  0
 10 11  2  0  0  0  0
 12 10  1  6  0  0  0
 12 14  1  0  0  0  0
 13 16  1  6  0  0  0
 13 12  1  0  0  0  0
 13 15  1  0  0  0  0
 14 17  1  6  0  0  0
 14 19  1  0  0  0  0
 15 17  1  1  0  0  0
 15 18  1  0  0  0  0
 18 19  1  0  0  0  0
 20 16  2  0  0  0  0
 21  1  1  0  0  0  0
 22 21  2  0  0  0  0
 23 21  2  0  0  0  0
 24 25  1  0  0  0  0
 24 21  1  0  0  0  0
 26 25  2  0  0  0  0
 27 26  1  0  0  0  0
 28 27  2  0  0  0  0
 28 30  1  0  0  0  0
 29 27  1  0  0  0  0
 30 24  2  0  0  0  0
M  END
>  <Pose>
1

>  <Score>
-8.819

$$$$
