MODEL 1
REMARK VINA RESULT:    -8.734      0.000      0.000
REMARK INTER + INTRA:         -12.018
REMARK INTER:                 -11.286
REMARK INTRA:                  -0.732
REMARK UNBOUND:                -0.732
REMARK  5 active torsions:
REMARK  status: ('A' for Active; 'I' for Inactive)
REMARK    1  A    between atoms: S_1  and  N_4 
REMARK    2  A    between atoms: S_1  and  C_23 
REMARK    3  A    between atoms: N_7  and  C_10 
REMARK    4  A    between atoms: C_10  and  N_11 
REMARK    5  A    between atoms: C_13  and  N_18 
ROOT
ATOM      1  N   UNK d   1     -21.907  -0.348 -33.854  0.00  0.00    -0.303 N 
ATOM      2  C   UNK d   1     -21.411   0.330 -32.726  0.00  0.00     0.165 C 
ATOM      3  C   UNK d   1     -20.308  -0.410 -32.021  0.00  0.00     0.295 C 
ATOM      4  N   UNK d   1     -20.265  -1.801 -32.297  0.00  0.00     0.111 NA
ATOM      5  C   UNK d   1     -20.151  -2.047 -33.690  0.00  0.00     0.295 C 
ATOM      6  C   UNK d   1     -21.037  -1.220 -34.546  0.00  0.00     0.165 C 
ENDROOT
BRANCH   4   7
ATOM      7  C   UNK d   1     -21.245  -2.520 -31.572  0.00  0.00     0.426 C 
BRANCH   7   8
ATOM      8  N   UNK d   1     -20.787  -3.337 -30.500  0.00  0.00    -0.204 N 
ATOM      9  N   UNK d   1     -20.359  -2.797 -29.377  0.00  0.00    -0.149 NA
ATOM     10  C   UNK d   1     -19.907  -3.492 -28.323  0.00  0.00     0.155 A 
ATOM     11  C   UNK d   1     -19.899  -4.862 -28.442  0.00  0.00     0.058 A 
ATOM     12  C   UNK d   1     -20.334  -5.488 -29.591  0.00  0.00     0.080 A 
ATOM     13  C   UNK d   1     -20.782  -4.674 -30.623  0.00  0.00     0.265 A 
ATOM     14  O   UNK d   1     -21.187  -5.259 -31.687  0.00  0.00    -0.267 OA
BRANCH  10  15
ATOM     15  N   UNK d   1     -19.447  -2.875 -27.115  0.00  0.00    -0.298 N 
ATOM     16  C   UNK d   1     -19.254  -3.431 -25.914  0.00  0.00     0.215 A 
ATOM     17  N   UNK d   1     -18.815  -2.482 -25.068  0.00  0.00    -0.254 NA
ATOM     18  C   UNK d   1     -18.724  -1.311 -25.723  0.00  0.00     0.135 A 
ATOM     19  C   UNK d   1     -19.126  -1.576 -27.015  0.00  0.00     0.119 A 
ENDBRANCH  10  15
ENDBRANCH   7   8
ENDBRANCH   4   7
BRANCH   1  20
ATOM     20  S   UNK d   1     -23.167   0.321 -34.705  0.00  0.00     0.267 S 
ATOM     21  O   UNK d   1     -24.502  -0.059 -34.158  0.00  0.00    -0.200 OA
ATOM     22  O   UNK d   1     -23.061   1.812 -34.718  0.00  0.00    -0.200 OA
BRANCH  20  23
ATOM     23  C   UNK d   1     -23.105  -0.254 -36.384  0.00  0.00     0.121 A 
ATOM     24  S   UNK d   1     -22.229   0.374 -37.704  0.00  0.00    -0.069 SA
ATOM     25  C   UNK d   1     -22.716  -0.731 -38.905  0.00  0.00     0.052 A 
ATOM     26  C   UNK d   1     -23.566  -1.574 -38.232  0.00  0.00     0.028 A 
ATOM     27 Br   UNK d   1     -22.218  -0.804 -40.753  0.00  0.00    -0.043 Br
ATOM     28  C   UNK d   1     -23.762  -1.321 -36.929  0.00  0.00     0.035 A 
ENDBRANCH  20  23
ENDBRANCH   1  20
TORSDOF 5
ENDMDL
