/Users/jonathanwahrer/Desktop/Msc/3_Semester/Drug_Design_Praktikum/waehrer_HTS_screening/HTS_experiment/out/docking_results/vina_output/5l4q/1073_docked.pdbqt
 OpenBabel03212218293D

 28 31  0  0  0  0  0  0  0  0999 V2000
  -21.9070   -0.3480  -33.8540 N   0  0  0  0  0  0  0  0  0  0  0  0
  -21.4110    0.3300  -32.7260 C   0  0  0  0  0  2  0  0  0  0  0  0
  -20.3080   -0.4100  -32.0210 C   0  0  0  0  0  2  0  0  0  0  0  0
  -20.2650   -1.8010  -32.2970 N   0  0  0  0  0  0  0  0  0  0  0  0
  -20.1510   -2.0470  -33.6900 C   0  0  0  0  0  2  0  0  0  0  0  0
  -21.0370   -1.2200  -34.5460 C   0  0  0  0  0  2  0  0  0  0  0  0
  -21.2450   -2.5200  -31.5720 C   0  0  0  0  0  2  0  0  0  0  0  0
  -20.7870   -3.3370  -30.5000 N   0  0  0  0  0  0  0  0  0  0  0  0
  -20.3590   -2.7970  -29.3770 N   0  0  0  0  0  0  0  0  0  0  0  0
  -19.9070   -3.4920  -28.3230 C   0  0  0  0  0  0  0  0  0  0  0  0
  -19.8990   -4.8620  -28.4420 C   0  0  0  0  0  3  0  0  0  0  0  0
  -20.3340   -5.4880  -29.5910 C   0  0  0  0  0  3  0  0  0  0  0  0
  -20.7820   -4.6740  -30.6230 C   0  0  0  0  0  0  0  0  0  0  0  0
  -21.1870   -5.2590  -31.6870 O   0  0  0  0  0  0  0  0  0  0  0  0
  -19.4470   -2.8750  -27.1150 N   0  0  0  0  0  0  0  0  0  0  0  0
  -19.2540   -3.4310  -25.9140 C   0  0  0  0  0  3  0  0  0  0  0  0
  -18.8150   -2.4820  -25.0680 N   0  0  0  0  0  0  0  0  0  0  0  0
  -18.7240   -1.3110  -25.7230 C   0  0  0  0  0  3  0  0  0  0  0  0
  -19.1260   -1.5760  -27.0150 C   0  0  0  0  0  3  0  0  0  0  0  0
  -23.1670    0.3210  -34.7050 S   0  0  0  0  0  0  0  0  0  0  0  0
  -24.5020   -0.0590  -34.1580 O   0  0  0  0  0  0  0  0  0  0  0  0
  -23.0610    1.8120  -34.7180 O   0  0  0  0  0  0  0  0  0  0  0  0
  -23.1050   -0.2540  -36.3840 C   0  0  0  0  0  0  0  0  0  0  0  0
  -22.2290    0.3740  -37.7040 S   0  0  0  0  0  0  0  0  0  0  0  0
  -22.7160   -0.7310  -38.9050 C   0  0  0  0  0  0  0  0  0  0  0  0
  -23.5660   -1.5740  -38.2320 C   0  0  0  0  0  3  0  0  0  0  0  0
  -22.2180   -0.8040  -40.7530 Br  0  0  0  0  0  0  0  0  0  0  0  0
  -23.7620   -1.3210  -36.9290 C   0  0  0  0  0  3  0  0  0  0  0  0
  1  2  1  0  0  0  0
  2  3  1  0  0  0  0
  4  3  1  0  0  0  0
  4  7  1  0  0  0  0
  5  4  1  0  0  0  0
  6  1  1  0  0  0  0
  6  5  1  0  0  0  0
  7  8  1  0  0  0  0
  8  9  1  0  0  0  0
  9 10  2  0  0  0  0
 10 15  1  0  0  0  0
 11 10  1  0  0  0  0
 12 11  2  0  0  0  0
 13  8  1  0  0  0  0
 13 12  1  0  0  0  0
 14 13  2  0  0  0  0
 15 19  1  0  0  0  0
 15 16  1  0  0  0  0
 16 17  2  0  0  0  0
 18 17  1  0  0  0  0
 19 18  2  0  0  0  0
 20 21  2  0  0  0  0
 20  1  1  0  0  0  0
 22 20  2  0  0  0  0
 23 20  1  0  0  0  0
 24 23  1  0  0  0  0
 25 26  2  0  0  0  0
 25 24  1  0  0  0  0
 26 28  1  0  0  0  0
 27 25  1  0  0  0  0
 28 23  2  0  0  0  0
M  END
>  <Pose>
1

>  <Score>
-8.734

$$$$
