/Users/jonathanwahrer/Desktop/Msc/3_Semester/Drug_Design_Praktikum/waehrer_HTS_screening/HTS_experiment/out/docking_results/vina_output/5l4q/1084_docked.pdbqt
 OpenBabel03212218303D

 29 32  0  0  0  0  0  0  0  0999 V2000
  -21.1220    0.2260  -33.9190 N   0  0  0  0  0  0  0  0  0  0  0  0
  -20.1000    1.0690  -33.3940 C   0  0  0  0  0  2  0  0  0  0  0  0
  -18.9610    0.3070  -32.7520 C   0  0  0  0  0  2  0  0  0  0  0  0
  -19.4830   -0.9490  -32.2980 N   0  0  0  0  0  0  0  0  0  0  0  0
  -20.0050   -1.8660  -33.2670 C   0  0  0  0  0  2  0  0  0  0  0  0
  -20.6550   -1.0640  -34.3660 C   0  0  0  0  0  2  0  0  0  0  0  0
  -19.4760   -1.2630  -30.9280 C   0  0  0  0  0  0  0  0  0  0  0  0
  -18.9880   -0.4280  -29.9950 N   0  0  0  0  0  0  0  0  0  0  0  0
  -18.9520   -0.6650  -28.6960 C   0  0  0  0  0  0  0  0  0  0  0  0
  -19.4620   -1.8740  -28.2510 C   0  0  0  0  0  3  0  0  0  0  0  0
  -19.9740   -2.7620  -29.1690 C   0  0  0  0  0  0  0  0  0  0  0  0
  -19.9710   -2.4400  -30.4750 N   0  0  0  0  0  0  0  0  0  0  0  0
  -20.5300   -4.0710  -28.7310 C   0  0  0  0  0  1  0  0  0  0  0  0
  -18.4080    0.2990  -27.8140 N   0  0  0  0  0  0  0  0  0  0  0  0
  -18.8760    1.6680  -27.7370 C   0  0  0  0  0  2  0  0  0  0  0  0
  -18.4860    2.1740  -26.3480 C   0  0  0  0  0  2  0  0  0  0  0  0
  -18.7590    1.1420  -25.4480 O   0  0  0  0  0  0  0  0  0  0  0  0
  -17.8490    0.1120  -25.5080 C   0  0  0  0  0  2  0  0  0  0  0  0
  -17.3280   -0.0870  -26.9350 C   0  0  0  0  0  2  0  0  0  0  0  0
  -21.8210    1.0170  -35.2890 S   0  0  0  0  0  0  0  0  0  0  0  0
  -22.9970    1.8450  -34.7970 O   0  0  0  0  0  0  0  0  0  0  0  0
  -20.8100    1.9560  -35.8820 O   0  0  0  0  0  0  0  0  0  0  0  0
  -22.4010   -0.1310  -36.4620 C   0  0  0  0  0  0  0  0  0  0  0  0
  -21.8460   -0.1210  -37.7340 C   0  0  0  0  0  3  0  0  0  0  0  0
  -22.2550   -0.9990  -38.7130 C   0  0  0  0  0  3  0  0  0  0  0  0
  -23.2410   -1.9150  -38.4360 C   0  0  0  0  0  0  0  0  0  0  0  0
  -23.8190   -1.9560  -37.1810 C   0  0  0  0  0  3  0  0  0  0  0  0
  -23.7950   -3.1230  -39.8020 Br  0  0  0  0  0  0  0  0  0  0  0  0
  -23.3820   -1.0550  -36.2140 C   0  0  0  0  0  3  0  0  0  0  0  0
  1  2  1  0  0  0  0
  2  3  1  0  0  0  0
  3  4  1  0  0  0  0
  4  7  1  0  0  0  0
  5  4  1  0  0  0  0
  6  1  1  0  0  0  0
  6  5  1  0  0  0  0
  7 12  1  0  0  0  0
  7  8  2  0  0  0  0
  8  9  1  0  0  0  0
  9 10  2  0  0  0  0
  9 14  1  0  0  0  0
 11 13  1  0  0  0  0
 11 10  1  0  0  0  0
 12 11  2  0  0  0  0
 14 15  1  0  0  0  0
 14 19  1  0  0  0  0
 15 16  1  0  0  0  0
 16 17  1  0  0  0  0
 18 17  1  0  0  0  0
 19 18  1  0  0  0  0
 20 21  2  0  0  0  0
 20  1  1  0  0  0  0
 22 20  2  0  0  0  0
 23 29  1  0  0  0  0
 23 20  1  0  0  0  0
 24 23  2  0  0  0  0
 25 26  2  0  0  0  0
 25 24  1  0  0  0  0
 26 27  1  0  0  0  0
 27 29  2  0  0  0  0
 28 26  1  0  0  0  0
M  END
>  <Pose>
1

>  <Score>
-8.893

$$$$
