MODEL 1
REMARK VINA RESULT:    -8.893      0.000      0.000
REMARK INTER + INTRA:         -11.536
REMARK INTER:                 -10.973
REMARK INTRA:                  -0.564
REMARK UNBOUND:                -0.564
REMARK  4 active torsions:
REMARK  status: ('A' for Active; 'I' for Inactive)
REMARK    1  A    between atoms: S_1  and  N_4 
REMARK    2  A    between atoms: S_1  and  C_23 
REMARK    3  A    between atoms: N_7  and  C_10 
REMARK    4  A    between atoms: C_12  and  N_17 
ROOT
ATOM      1  N   UNK d   1     -21.122   0.226 -33.919  0.00  0.00    -0.203 NA
ATOM      2  C   UNK d   1     -20.100   1.069 -33.394  0.00  0.00     0.128 C 
ATOM      3  C   UNK d   1     -18.961   0.307 -32.752  0.00  0.00     0.157 C 
ATOM      4  N   UNK d   1     -19.483  -0.949 -32.298  0.00  0.00    -0.212 N 
ATOM      5  C   UNK d   1     -20.005  -1.866 -33.267  0.00  0.00     0.157 C 
ATOM      6  C   UNK d   1     -20.655  -1.064 -34.366  0.00  0.00     0.128 C 
ENDROOT
BRANCH   4   7
ATOM      7  C   UNK d   1     -19.476  -1.263 -30.928  0.00  0.00     0.726 A 
ATOM      8  N   UNK d   1     -18.988  -0.428 -29.995  0.00  0.00    -0.045 NA
ATOM      9  C   UNK d   1     -18.952  -0.665 -28.696  0.00  0.00     0.146 A 
ATOM     10  C   UNK d   1     -19.462  -1.874 -28.251  0.00  0.00     0.078 A 
ATOM     11  C   UNK d   1     -19.974  -2.762 -29.169  0.00  0.00     0.053 A 
ATOM     12  N   UNK d   1     -19.971  -2.440 -30.475  0.00  0.00    -0.068 NA
ATOM     13  C   UNK d   1     -20.530  -4.071 -28.731  0.00  0.00     0.071 C 
BRANCH   9  14
ATOM     14  N   UNK d   1     -18.408   0.299 -27.814  0.00  0.00    -0.361 N 
ATOM     15  C   UNK d   1     -18.876   1.668 -27.737  0.00  0.00     0.150 C 
ATOM     16  C   UNK d   1     -18.486   2.174 -26.348  0.00  0.00     0.187 C 
ATOM     17  O   UNK d   1     -18.759   1.142 -25.448  0.00  0.00    -0.388 OA
ATOM     18  C   UNK d   1     -17.849   0.112 -25.508  0.00  0.00     0.187 C 
ATOM     19  C   UNK d   1     -17.328  -0.087 -26.935  0.00  0.00     0.150 C 
ENDBRANCH   9  14
ENDBRANCH   4   7
BRANCH   1  20
ATOM     20  S   UNK d   1     -21.821   1.017 -35.289  0.00  0.00     0.243 S 
ATOM     21  O   UNK d   1     -22.997   1.845 -34.797  0.00  0.00    -0.206 OA
ATOM     22  O   UNK d   1     -20.810   1.956 -35.882  0.00  0.00    -0.206 OA
BRANCH  20  23
ATOM     23  C   UNK d   1     -22.401  -0.131 -36.462  0.00  0.00     0.074 A 
ATOM     24  C   UNK d   1     -21.846  -0.121 -37.734  0.00  0.00     0.026 A 
ATOM     25  C   UNK d   1     -22.255  -0.999 -38.713  0.00  0.00     0.020 A 
ATOM     26  C   UNK d   1     -23.241  -1.915 -38.436  0.00  0.00     0.011 A 
ATOM     27  C   UNK d   1     -23.819  -1.956 -37.181  0.00  0.00     0.020 A 
ATOM     28 Br   UNK d   1     -23.795  -3.123 -39.802  0.00  0.00    -0.051 Br
ATOM     29  C   UNK d   1     -23.382  -1.055 -36.214  0.00  0.00     0.026 A 
ENDBRANCH  20  23
ENDBRANCH   1  20
TORSDOF 4
ENDMDL
