MODEL 1
REMARK VINA RESULT:    -7.646      0.000      0.000
REMARK INTER + INTRA:          -9.981
REMARK INTER:                  -8.987
REMARK INTRA:                  -0.994
REMARK UNBOUND:                -0.994
REMARK  3 active torsions:
REMARK  status: ('A' for Active; 'I' for Inactive)
REMARK    1  A    between atoms: S_1  and  N_4 
REMARK    2  A    between atoms: S_1  and  C_19 
REMARK    3  A    between atoms: N_7  and  C_10 
ROOT
ATOM      1  N   UNK d   1     -21.609   0.040 -34.772  0.00  0.00    -0.303 N 
ATOM      2  C   UNK d   1     -20.236  -0.278 -34.846  0.00  0.00     0.155 C 
ATOM      3  C   UNK d   1     -19.599  -0.765 -33.569  0.00  0.00     0.145 C 
ATOM      4  N   UNK d   1     -20.493  -0.740 -32.454  0.00  0.00    -0.361 N 
ATOM      5  C   UNK d   1     -21.600   0.193 -32.340  0.00  0.00     0.145 C 
ATOM      6  C   UNK d   1     -21.926   0.840 -33.654  0.00  0.00     0.155 C 
ENDROOT
BRANCH   4   7
ATOM      7  C   UNK d   1     -20.324  -1.664 -31.388  0.00  0.00     0.158 A 
ATOM      8  N   UNK d   1     -19.736  -1.251 -30.226  0.00  0.00    -0.222 NA
ATOM      9  C   UNK d   1     -19.575  -2.099 -29.210  0.00  0.00     0.237 A 
ATOM     10  N   UNK d   1     -19.973  -3.369 -29.277  0.00  0.00    -0.220 NA
ATOM     11  C   UNK d   1     -20.548  -3.792 -30.401  0.00  0.00     0.182 A 
ATOM     12  N   UNK d   1     -21.034  -4.986 -30.750  0.00  0.00    -0.222 NA
ATOM     13  C   UNK d   1     -20.749  -2.961 -31.504  0.00  0.00     0.128 A 
ATOM     14  C   UNK d   1     -21.516  -4.900 -32.021  0.00  0.00     0.210 A 
ATOM     15  N   UNK d   1     -21.342  -3.661 -32.482  0.00  0.00    -0.345 N 
ATOM     16  H   UNK d   1     -21.619  -3.330 -33.424  0.00  0.00     0.167 HD
ENDBRANCH   4   7
BRANCH   1  17
ATOM     17  S   UNK d   1     -22.737  -1.061 -35.327  0.00  0.00     0.267 S 
ATOM     18  O   UNK d   1     -24.125  -0.580 -34.921  0.00  0.00    -0.200 OA
ATOM     19  O   UNK d   1     -22.578  -2.419 -34.746  0.00  0.00    -0.200 OA
BRANCH  17  20
ATOM     20  C   UNK d   1     -22.804  -1.233 -37.083  0.00  0.00     0.121 A 
ATOM     21  S   UNK d   1     -22.029  -0.314 -38.290  0.00  0.00    -0.069 SA
ATOM     22  C   UNK d   1     -22.611  -1.117 -39.673  0.00  0.00     0.052 A 
ATOM     23  C   UNK d   1     -23.410  -2.102 -39.144  0.00  0.00     0.028 A 
ATOM     24 Br   UNK d   1     -22.256  -0.761 -41.515  0.00  0.00    -0.043 Br
ATOM     25  C   UNK d   1     -23.504  -2.155 -37.810  0.00  0.00     0.035 A 
ENDBRANCH  17  20
ENDBRANCH   1  17
TORSDOF 3
ENDMDL
