MODEL 1
REMARK VINA RESULT:    -8.566      0.000      0.000
REMARK INTER + INTRA:         -11.697
REMARK INTER:                 -11.069
REMARK INTRA:                  -0.628
REMARK UNBOUND:                -0.628
REMARK  5 active torsions:
REMARK  status: ('A' for Active; 'I' for Inactive)
REMARK    1  A    between atoms: S_1  and  N_4 
REMARK    2  A    between atoms: S_1  and  C_26 
REMARK    3  A    between atoms: C_10  and  C_11 
REMARK    4  A    between atoms: C_11  and  C_12 
REMARK       I    between atoms: C_12  and  N_14 
REMARK    5  A    between atoms: N_17  and  C_20 
ROOT
ATOM      1  N   UNK d   1     -21.192   1.275 -35.164  0.00  0.00    -0.191 NA
ATOM      2  C   UNK d   1     -22.209   2.257 -34.989  0.00  0.00     0.128 C 
ATOM      3  C   UNK d   1     -21.847   3.382 -34.046  0.00  0.00     0.138 C 
ATOM      4  N   UNK d   1     -20.496   3.877 -34.323  0.00  0.00    -0.358 N 
ATOM      5  C   UNK d   1     -19.524   2.816 -34.473  0.00  0.00     0.237 C 
ATOM      6  O   UNK d   1     -18.343   3.034 -34.752  0.00  0.00    -0.272 OA
ATOM      7  C   UNK d   1     -20.125   1.459 -34.252  0.00  0.00     0.175 C 
ATOM      8  H   UNK d   1     -20.231   4.858 -34.408  0.00  0.00     0.162 HD
ENDROOT
BRANCH   7   9
ATOM      9  C   UNK d   1     -19.110   0.390 -34.154  0.00  0.00     0.133 C 
BRANCH   9  10
ATOM     10  C   UNK d   1     -19.726  -0.830 -33.579  0.00  0.00     0.221 C 
ATOM     11  O   UNK d   1     -20.339  -1.583 -34.382  0.00  0.00    -0.273 OA
ATOM     12  N   UNK d   1     -19.633  -1.139 -32.188  0.00  0.00    -0.349 N 
ATOM     13  C   UNK d   1     -18.931  -0.270 -31.283  0.00  0.00     0.145 C 
ATOM     14  C   UNK d   1     -20.256  -2.341 -31.699  0.00  0.00     0.145 C 
ATOM     15  C   UNK d   1     -19.463  -0.285 -29.883  0.00  0.00     0.143 C 
ATOM     16  N   UNK d   1     -20.028  -1.561 -29.480  0.00  0.00    -0.378 N 
ATOM     17  C   UNK d   1     -21.010  -2.103 -30.408  0.00  0.00     0.143 C 
BRANCH  16  18
ATOM     18  C   UNK d   1     -19.714  -2.255 -28.304  0.00  0.00     0.030 A 
ATOM     19  C   UNK d   1     -20.154  -3.550 -28.144  0.00  0.00     0.029 A 
ATOM     20  C   UNK d   1     -19.854  -4.229 -26.974  0.00  0.00     0.002 A 
ATOM     21  C   UNK d   1     -19.129  -3.665 -25.953  0.00  0.00     0.000 A 
ATOM     22  C   UNK d   1     -18.691  -2.372 -26.118  0.00  0.00     0.002 A 
ATOM     23  C   UNK d   1     -18.988  -1.685 -27.286  0.00  0.00     0.029 A 
ENDBRANCH  16  18
ENDBRANCH   9  10
ENDBRANCH   7   9
BRANCH   1  24
ATOM     24  S   UNK d   1     -20.762   1.167 -36.805  0.00  0.00     0.244 S 
ATOM     25  O   UNK d   1     -19.307   0.921 -37.044  0.00  0.00    -0.206 OA
ATOM     26  O   UNK d   1     -21.096   2.463 -37.535  0.00  0.00    -0.206 OA
BRANCH  24  27
ATOM     27  C   UNK d   1     -21.672  -0.085 -37.632  0.00  0.00     0.074 A 
ATOM     28  C   UNK d   1     -22.647  -0.842 -36.996  0.00  0.00     0.026 A 
ATOM     29  C   UNK d   1     -23.365  -1.824 -37.618  0.00  0.00     0.020 A 
ATOM     30  C   UNK d   1     -23.141  -2.106 -38.941  0.00  0.00     0.011 A 
ATOM     31  C   UNK d   1     -22.165  -1.362 -39.616  0.00  0.00     0.020 A 
ATOM     32 Br   UNK d   1     -24.108  -3.460 -39.863  0.00  0.00    -0.051 Br
ATOM     33  C   UNK d   1     -21.462  -0.382 -38.958  0.00  0.00     0.026 A 
ENDBRANCH  24  27
ENDBRANCH   1  24
TORSDOF 5
ENDMDL
