MODEL 1
REMARK VINA RESULT:    -9.245      0.000      0.000
REMARK INTER + INTRA:         -13.887
REMARK INTER:                 -13.028
REMARK INTRA:                  -0.859
REMARK UNBOUND:                -0.859
REMARK  7 active torsions:
REMARK  status: ('A' for Active; 'I' for Inactive)
REMARK    1  A    between atoms: S_1  and  N_4 
REMARK    2  A    between atoms: S_1  and  C_10 
REMARK    3  A    between atoms: C_13  and  C_16 
REMARK    4  A    between atoms: C_16  and  O_17 
REMARK    5  A    between atoms: O_17  and  C_18 
REMARK    6  A    between atoms: C_18  and  C_20 
REMARK    7  A    between atoms: C_20  and  N_21 
ROOT
ATOM      1  C   UNK d   1     -21.048  -3.744 -31.533  0.00  0.00     0.217 C 
ENDROOT
BRANCH   1   2
ATOM      2  C   UNK d   1     -21.343  -2.803 -32.642  0.00  0.00    -0.034 A 
ATOM      3  C   UNK d   1     -22.246  -3.034 -33.636  0.00  0.00     0.011 A 
ATOM      4  C   UNK d   1     -22.465  -2.101 -34.646  0.00  0.00     0.025 A 
ATOM      5  C   UNK d   1     -21.786  -0.917 -34.684  0.00  0.00     0.074 A 
ATOM      6  C   UNK d   1     -20.870  -0.679 -33.676  0.00  0.00     0.025 A 
ATOM      7  C   UNK d   1     -20.651  -1.605 -32.672  0.00  0.00     0.011 A 
BRANCH   5   8
ATOM      8  S   UNK d   1     -22.037   0.283 -35.942  0.00  0.00     0.243 S 
ATOM      9  O   UNK d   1     -22.961   1.362 -35.493  0.00  0.00    -0.206 OA
ATOM     10  O   UNK d   1     -20.687   0.925 -36.191  0.00  0.00    -0.206 OA
BRANCH   8  11
ATOM     11  N   UNK d   1     -22.549  -0.416 -37.414  0.00  0.00    -0.202 NA
ATOM     12  C   UNK d   1     -21.559  -0.336 -38.456  0.00  0.00     0.134 C 
ATOM     13  C   UNK d   1     -22.302  -0.539 -39.780  0.00  0.00     0.183 C 
ATOM     14  O   UNK d   1     -23.023   0.590 -40.106  0.00  0.00    -0.389 OA
ATOM     15  C   UNK d   1     -23.323   1.296 -38.928  0.00  0.00     0.183 C 
ATOM     16  C   UNK d   1     -23.740   0.262 -37.893  0.00  0.00     0.134 C 
ENDBRANCH   8  11
ENDBRANCH   5   8
ENDBRANCH   1   2
BRANCH   1  17
ATOM     17  O   UNK d   1     -21.391  -3.208 -30.274  0.00  0.00    -0.316 OA
BRANCH  17  18
ATOM     18  C   UNK d   1     -20.595  -3.253 -29.156  0.00  0.00     0.277 C 
ATOM     19  O   UNK d   1     -21.056  -3.728 -28.099  0.00  0.00    -0.263 OA
BRANCH  18  20
ATOM     20  C   UNK d   1     -19.223  -2.753 -29.188  0.00  0.00     0.246 C 
BRANCH  20  21
ATOM     21  N   UNK d   1     -19.007  -1.607 -28.355  0.00  0.00    -0.271 N 
ATOM     22  C   UNK d   1     -18.659  -1.702 -26.968  0.00  0.00     0.262 A 
ATOM     23  O   UNK d   1     -18.501  -2.774 -26.317  0.00  0.00    -0.267 OA
ATOM     24  C   UNK d   1     -18.513  -0.358 -26.420  0.00  0.00     0.049 A 
ATOM     25  C   UNK d   1     -18.759   0.550 -27.416  0.00  0.00     0.048 A 
ATOM     26  C   UNK d   1     -18.197   0.127 -25.172  0.00  0.00     0.037 A 
ATOM     27  C   UNK d   1     -18.688   1.907 -27.162  0.00  0.00     0.019 A 
ATOM     28  C   UNK d   1     -19.070  -0.218 -28.634  0.00  0.00     0.262 A 
ATOM     29  C   UNK d   1     -18.368   2.378 -25.903  0.00  0.00     0.020 A 
ATOM     30  C   UNK d   1     -18.118   1.475 -24.891  0.00  0.00     0.011 A 
ATOM     31 Br   UNK d   1     -17.674   2.077 -23.138  0.00  0.00    -0.051 Br
ATOM     32  O   UNK d   1     -19.350   0.253 -29.759  0.00  0.00    -0.267 OA
ENDBRANCH  20  21
ENDBRANCH  18  20
ENDBRANCH  17  18
ENDBRANCH   1  17
TORSDOF 7
ENDMDL
