/Users/jonathanwahrer/Desktop/Msc/3_Semester/Drug_Design_Praktikum/waehrer_HTS_screening/HTS_experiment/out/docking_results/vina_output/5l4q/1113_docked.pdbqt
 OpenBabel03212218313D

 28 31  0  0  0  0  0  0  0  0999 V2000
  -22.3780   -0.9570  -35.7660 C   0  0  0  0  0  0  0  0  0  0  0  0
  -22.1830   -1.9630  -34.8980 N   0  0  0  0  0  0  0  0  0  0  0  0
  -21.2850   -1.5660  -33.9610 C   0  0  0  0  0  3  0  0  0  0  0  0
  -20.9000   -0.3060  -34.2220 N   0  0  0  0  0  0  0  0  0  0  0  0
  -21.5530    0.0760  -35.3100 C   0  0  0  0  0  3  0  0  0  0  0  0
  -19.9500    0.4500  -33.4320 C   0  0  0  0  0  2  0  0  0  0  0  0
  -19.5450   -0.2870  -32.2120 C   0  0  0  0  0  0  0  0  0  0  0  0
  -18.2690   -0.6290  -31.8930 N   0  0  0  0  0  0  0  0  0  0  0  0
  -18.2930   -1.2620  -30.7590 O   0  0  0  0  0  0  0  0  0  0  0  0
  -19.5130   -1.3660  -30.2960 C   0  0  0  0  0  0  0  0  0  0  0  0
  -20.3000   -0.7500  -31.2140 N   0  0  0  0  0  0  0  0  0  0  0  0
  -19.9730   -2.0170  -29.0320 C   0  0  0  0  0  2  0  0  0  0  0  0
  -19.4360   -1.2000  -27.9080 C   0  0  0  0  0  0  0  0  0  0  0  0
  -18.9550   -1.8570  -26.7860 C   0  0  0  0  0  3  0  0  0  0  0  0
  -18.4430   -1.1870  -25.7060 C   0  0  0  0  0  3  0  0  0  0  0  0
  -18.4110    0.1800  -25.7490 C   0  0  0  0  0  0  0  0  0  0  0  0
  -18.8710    0.8720  -26.8260 C   0  0  0  0  0  3  0  0  0  0  0  0
  -17.7060    1.1480  -24.2640 Br  0  0  0  0  0  0  0  0  0  0  0  0
  -19.3860    0.1650  -27.9100 C   0  0  0  0  0  3  0  0  0  0  0  0
  -23.4290   -0.9300  -37.1630 S   0  0  0  0  0  0  0  0  0  0  0  0
  -24.3590   -2.1330  -37.0680 O   0  0  0  0  0  0  0  0  0  0  0  0
  -24.3410    0.2780  -37.0830 O   0  0  0  0  0  0  0  0  0  0  0  0
  -22.6320   -0.9950  -38.6350 N   0  0  0  0  0  0  0  0  0  0  0  0
  -22.6260   -2.2080  -39.3410 C   0  0  0  0  0  2  0  0  0  0  0  0
  -22.9170   -1.9870  -40.7960 C   0  0  0  0  0  2  0  0  0  0  0  0
  -21.9750   -1.0980  -41.2820 O   0  0  0  0  0  0  0  0  0  0  0  0
  -22.1110    0.1740  -40.7400 C   0  0  0  0  0  2  0  0  0  0  0  0
  -22.2670    0.1970  -39.2690 C   0  0  0  0  0  2  0  0  0  0  0  0
  1  5  2  0  0  0  0
  1  2  1  0  0  0  0
  2  3  2  0  0  0  0
  4  3  1  0  0  0  0
  4  6  1  0  0  0  0
  5  4  1  0  0  0  0
  6  7  1  0  0  0  0
  7  8  2  0  0  0  0
  7 11  1  0  0  0  0
  8  9  1  0  0  0  0
  9 10  1  0  0  0  0
 10 12  1  0  0  0  0
 11 10  2  0  0  0  0
 12 13  1  0  0  0  0
 13 14  1  0  0  0  0
 14 15  2  0  0  0  0
 16 15  1  0  0  0  0
 16 18  1  0  0  0  0
 17 16  2  0  0  0  0
 19 13  2  0  0  0  0
 19 17  1  0  0  0  0
 20 22  2  0  0  0  0
 20 21  2  0  0  0  0
 20  1  1  0  0  0  0
 23 20  1  0  0  0  0
 24 23  1  0  0  0  0
 25 24  1  0  0  0  0
 26 25  1  0  0  0  0
 26 27  1  0  0  0  0
 27 28  1  0  0  0  0
 28 23  1  0  0  0  0
M  END
>  <Pose>
1

>  <Score>
-8.585

$$$$
