MODEL 1
REMARK VINA RESULT:    -8.983      0.000      0.000
REMARK INTER + INTRA:         -12.118
REMARK INTER:                 -11.609
REMARK INTRA:                  -0.508
REMARK UNBOUND:                -0.508
REMARK  5 active torsions:
REMARK  status: ('A' for Active; 'I' for Inactive)
REMARK    1  A    between atoms: S_1  and  N_4 
REMARK    2  A    between atoms: S_1  and  C_10 
REMARK    3  A    between atoms: N_13  and  C_15 
REMARK    4  A    between atoms: C_15  and  C_16 
REMARK    5  A    between atoms: C_19  and  C_21 
ROOT
ATOM      1  C   UNK d   1     -22.501  -0.893 -35.398  0.00  0.00     0.188 A 
ATOM      2  N   UNK d   1     -23.139  -1.930 -34.827  0.00  0.00    -0.229 NA
ATOM      3  C   UNK d   1     -22.296  -2.527 -33.964  0.00  0.00     0.211 A 
ATOM      4  N   UNK d   1     -21.111  -1.899 -33.958  0.00  0.00    -0.341 N 
ATOM      5  C   UNK d   1     -21.235  -0.894 -34.839  0.00  0.00     0.138 A 
ENDROOT
BRANCH   4   6
ATOM      6  C   UNK d   1     -19.951  -2.243 -33.162  0.00  0.00     0.212 C 
BRANCH   6   7
ATOM      7  C   UNK d   1     -20.043  -1.745 -31.771  0.00  0.00     0.174 A 
ATOM      8  N   UNK d   1     -20.707  -0.635 -31.397  0.00  0.00    -0.109 NA
ATOM      9  O   UNK d   1     -20.584  -0.491 -30.112  0.00  0.00    -0.191 OA
ATOM     10  C   UNK d   1     -19.867  -1.455 -29.602  0.00  0.00     0.206 A 
ATOM     11  N   UNK d   1     -19.527  -2.241 -30.636  0.00  0.00    -0.203 NA
BRANCH  10  12
ATOM     12  C   UNK d   1     -19.531  -1.604 -28.185  0.00  0.00     0.021 A 
ATOM     13  C   UNK d   1     -19.027  -0.559 -27.439  0.00  0.00     0.035 A 
ATOM     14  C   UNK d   1     -18.713  -0.716 -26.091  0.00  0.00     0.011 A 
ATOM     15  C   UNK d   1     -18.897  -1.924 -25.456  0.00  0.00     0.019 A 
ATOM     16 Br   UNK d   1     -18.015   0.746 -25.076  0.00  0.00    -0.051 Br
ATOM     17  C   UNK d   1     -19.401  -2.970 -26.198  0.00  0.00     0.002 A 
ATOM     18  C   UNK d   1     -19.714  -2.810 -27.550  0.00  0.00     0.016 A 
ENDBRANCH  10  12
ENDBRANCH   6   7
ENDBRANCH   4   6
BRANCH   1  19
ATOM     19  S   UNK d   1     -23.145   0.230 -36.603  0.00  0.00     0.280 S 
ATOM     20  O   UNK d   1     -24.550   0.573 -36.184  0.00  0.00    -0.199 OA
ATOM     21  O   UNK d   1     -22.360   1.502 -36.620  0.00  0.00    -0.199 OA
BRANCH  19  22
ATOM     22  N   UNK d   1     -23.202  -0.494 -38.151  0.00  0.00    -0.301 N 
ATOM     23  C   UNK d   1     -23.802  -1.775 -38.179  0.00  0.00     0.161 C 
ATOM     24  C   UNK d   1     -23.220  -2.767 -39.132  0.00  0.00     0.188 C 
ATOM     25  O   UNK d   1     -22.805  -2.051 -40.278  0.00  0.00    -0.388 OA
ATOM     26  C   UNK d   1     -21.651  -1.378 -39.866  0.00  0.00     0.188 C 
ATOM     27  C   UNK d   1     -22.039  -0.286 -38.934  0.00  0.00     0.161 C 
ENDBRANCH  19  22
ENDBRANCH   1  19
TORSDOF 5
ENDMDL
