MODEL 1
REMARK VINA RESULT:    -9.803      0.000      0.000
REMARK INTER + INTRA:         -12.724
REMARK INTER:                 -12.381
REMARK INTRA:                  -0.342
REMARK UNBOUND:                -0.342
REMARK  5 active torsions:
REMARK  status: ('A' for Active; 'I' for Inactive)
REMARK    1  A    between atoms: S_1  and  C_2 
REMARK    2  A    between atoms: S_1  and  C_12 
REMARK    3  A    between atoms: C_2  and  C_3 
REMARK       I    between atoms: C_3  and  N_5 
REMARK    4  A    between atoms: N_5  and  C_6 
REMARK    5  A    between atoms: C_10  and  N_11 
ROOT
ATOM      1  C   UNK d   1     -20.614  -0.516 -33.157  0.00  0.00     0.211 A 
ATOM      2  N   UNK d   1     -20.097   0.261 -32.190  0.00  0.00    -0.122 NA
ATOM      3  N   UNK d   1     -19.858  -0.159 -30.958  0.00  0.00    -0.143 NA
ATOM      4  C   UNK d   1     -20.131  -1.431 -30.594  0.00  0.00     0.137 A 
ATOM      5  C   UNK d   1     -20.663  -2.247 -31.571  0.00  0.00     0.164 A 
ATOM      6  N   UNK d   1     -20.846  -3.446 -30.982  0.00  0.00    -0.333 N 
ATOM      7  C   UNK d   1     -20.458  -3.419 -29.697  0.00  0.00     0.048 A 
ATOM      8  C   UNK d   1     -19.998  -2.150 -29.418  0.00  0.00     0.026 A 
ATOM      9  C   UNK d   1     -19.519  -1.784 -28.170  0.00  0.00     0.035 A 
ATOM     10  C   UNK d   1     -19.520  -2.760 -27.189  0.00  0.00     0.011 A 
ATOM     11  C   UNK d   1     -19.976  -4.037 -27.440  0.00  0.00     0.021 A 
ATOM     12  C   UNK d   1     -20.446  -4.379 -28.685  0.00  0.00     0.032 A 
ATOM     13 Br   UNK d   1     -18.859  -2.254 -25.466  0.00  0.00    -0.051 Br
ATOM     14  C   UNK d   1     -21.395  -4.593 -31.679  0.00  0.00     0.158 C 
ATOM     15  N   UNK d   1     -20.900  -1.789 -32.835  0.00  0.00    -0.201 NA
ENDROOT
BRANCH   1  16
ATOM     16  S   UNK d   1     -20.912   0.129 -34.817  0.00  0.00    -0.079 SA
BRANCH  16  17
ATOM     17  C   UNK d   1     -22.693   0.043 -35.142  0.00  0.00     0.185 C 
BRANCH  17  18
ATOM     18  C   UNK d   1     -22.952  -1.116 -36.044  0.00  0.00     0.233 C 
ATOM     19  O   UNK d   1     -22.957  -2.305 -35.593  0.00  0.00    -0.272 OA
ATOM     20  N   UNK d   1     -23.200  -0.940 -37.421  0.00  0.00    -0.306 N 
ATOM     21  H   UNK d   1     -23.199   0.029 -37.805  0.00  0.00     0.170 HD
BRANCH  20  22
ATOM     22  C   UNK d   1     -23.447  -2.041 -38.275  0.00  0.00     0.207 A 
ATOM     23  N   UNK d   1     -24.494  -2.882 -38.262  0.00  0.00    -0.083 NA
ATOM     24  O   UNK d   1     -24.373  -3.776 -39.205  0.00  0.00    -0.103 OA
ATOM     25  N   UNK d   1     -23.271  -3.535 -39.830  0.00  0.00    -0.083 NA
ATOM     26  C   UNK d   1     -22.634  -2.475 -39.317  0.00  0.00     0.199 A 
BRANCH  26  27
ATOM     27  N   UNK d   1     -21.405  -1.939 -39.758  0.00  0.00    -0.379 N 
ATOM     28  H   UNK d   1     -20.760  -1.509 -39.068  0.00  0.00     0.158 HD
ATOM     29  H   UNK d   1     -21.111  -1.954 -40.756  0.00  0.00     0.158 HD
ENDBRANCH  26  27
ENDBRANCH  20  22
ENDBRANCH  17  18
ENDBRANCH  16  17
ENDBRANCH   1  16
TORSDOF 5
ENDMDL
