/Users/jonathanwahrer/Desktop/Msc/3_Semester/Drug_Design_Praktikum/waehrer_HTS_screening/HTS_experiment/out/docking_results/vina_output/5l4q/1130_docked.pdbqt
 OpenBabel03212218323D

 29 32  0  0  0  0  0  0  0  0999 V2000
  -20.6140   -0.5160  -33.1570 C   0  0  0  0  0  0  0  0  0  0  0  0
  -20.0970    0.2610  -32.1900 N   0  0  0  0  0  0  0  0  0  0  0  0
  -19.8580   -0.1590  -30.9580 N   0  0  0  0  0  2  0  0  0  0  0  0
  -20.1310   -1.4310  -30.5940 C   0  0  0  0  0  0  0  0  0  0  0  0
  -20.6630   -2.2470  -31.5710 C   0  0  0  0  0  0  0  0  0  0  0  0
  -20.8460   -3.4460  -30.9820 N   0  0  0  0  0  0  0  0  0  0  0  0
  -20.4580   -3.4190  -29.6970 C   0  0  0  0  0  0  0  0  0  0  0  0
  -19.9980   -2.1500  -29.4180 C   0  0  0  0  0  0  0  0  0  0  0  0
  -19.5190   -1.7840  -28.1700 C   0  0  0  0  0  3  0  0  0  0  0  0
  -19.5200   -2.7600  -27.1890 C   0  0  0  0  0  0  0  0  0  0  0  0
  -19.9760   -4.0370  -27.4400 C   0  0  0  0  0  3  0  0  0  0  0  0
  -20.4460   -4.3790  -28.6850 C   0  0  0  0  0  3  0  0  0  0  0  0
  -18.8590   -2.2540  -25.4660 Br  0  0  0  0  0  0  0  0  0  0  0  0
  -21.3950   -4.5930  -31.6790 C   0  0  0  0  0  1  0  0  0  0  0  0
  -20.9000   -1.7890  -32.8350 N   0  0  0  0  0  2  0  0  0  0  0  0
  -20.9120    0.1290  -34.8170 S   0  0  0  0  0  0  0  0  0  0  0  0
  -22.6930    0.0430  -35.1420 C   0  0  0  0  0  2  0  0  0  0  0  0
  -22.9520   -1.1160  -36.0440 C   0  0  0  0  0  0  0  0  0  0  0  0
  -22.9570   -2.3050  -35.5930 O   0  0  0  0  0  0  0  0  0  0  0  0
  -23.2000   -0.9400  -37.4210 N   0  0  0  0  0  0  0  0  0  0  0  0
  -23.1990    0.0290  -37.8050 H   0  0  0  0  0  0  0  0  0  0  0  0
  -23.4470   -2.0410  -38.2750 C   0  0  0  0  0  0  0  0  0  0  0  0
  -24.4940   -2.8820  -38.2620 N   0  0  0  0  0  0  0  0  0  0  0  0
  -24.3730   -3.7760  -39.2050 O   0  0  0  0  0  0  0  0  0  0  0  0
  -23.2710   -3.5350  -39.8300 N   0  0  0  0  0  0  0  0  0  0  0  0
  -22.6340   -2.4750  -39.3170 C   0  0  0  0  0  0  0  0  0  0  0  0
  -21.4050   -1.9390  -39.7580 N   0  0  0  0  0  0  0  0  0  0  0  0
  -20.7600   -1.5090  -39.0680 H   0  0  0  0  0  0  0  0  0  0  0  0
  -21.1110   -1.9540  -40.7560 H   0  0  0  0  0  0  0  0  0  0  0  0
  1 15  1  0  0  0  0
  1  2  2  0  0  0  0
  2  3  1  0  0  0  0
  3  4  1  0  0  0  0
  4  8  1  0  0  0  0
  5  6  1  0  0  0  0
  5  4  2  0  0  0  0
  6  7  1  0  0  0  0
  7  8  2  0  0  0  0
  7 12  1  0  0  0  0
  8  9  1  0  0  0  0
  9 10  2  0  0  0  0
 10 13  1  0  0  0  0
 11 10  1  0  0  0  0
 12 11  2  0  0  0  0
 14  6  1  0  0  0  0
 15  5  1  0  0  0  0
 16  1  1  0  0  0  0
 17 16  1  0  0  0  0
 18 19  2  0  0  0  0
 18 17  1  0  0  0  0
 20 18  1  0  0  0  0
 21 20  1  0  0  0  0
 22 23  2  0  0  0  0
 22 20  1  0  0  0  0
 24 23  1  0  0  0  0
 25 26  2  0  0  0  0
 25 24  1  0  0  0  0
 26 22  1  0  0  0  0
 27 26  1  0  0  0  0
 27 28  1  0  0  0  0
 29 27  1  0  0  0  0
M  END
>  <Pose>
1

>  <Score>
-9.803

$$$$
