MODEL 1
REMARK VINA RESULT:    -8.060      0.000      0.000
REMARK INTER + INTRA:         -12.833
REMARK INTER:                 -11.595
REMARK INTRA:                  -1.238
REMARK UNBOUND:                -1.238
REMARK  10 active torsions:
REMARK  status: ('A' for Active; 'I' for Inactive)
REMARK    1  A    between atoms: S_1  and  C_2 
REMARK    2  A    between atoms: S_1  and  C_10 
REMARK    3  A    between atoms: C_2  and  C_3 
REMARK    4  A    between atoms: N_11  and  C_21 
REMARK    5  A    between atoms: C_14  and  N_20 
REMARK    6  A    between atoms: C_16  and  O_19 
REMARK    7  A    between atoms: C_23  and  C_28 
REMARK    8  A    between atoms: C_24  and  O_27 
REMARK    9  A    between atoms: C_25  and  O_26 
REMARK   10  A    between atoms: C_28  and  O_29 
ROOT
ATOM      1  C   UNK d   1     -22.650  -1.184 -35.888  0.00  0.00     0.173 A 
ATOM      2  N   UNK d   1     -21.787  -0.468 -36.608  0.00  0.00    -0.277 N 
ATOM      3  C   UNK d   1     -21.971  -0.823 -37.907  0.00  0.00     0.186 A 
ATOM      4  N   UNK d   1     -21.409  -0.553 -39.095  0.00  0.00    -0.042 NA
ATOM      5  C   UNK d   1     -21.744  -1.107 -40.265  0.00  0.00     0.724 A 
ATOM      6  N   UNK d   1     -22.772  -2.040 -40.265  0.00  0.00    -0.036 NA
ATOM      7  C   UNK d   1     -23.379  -2.368 -39.152  0.00  0.00     0.214 A 
ATOM      8  C   UNK d   1     -23.012  -1.790 -37.954  0.00  0.00     0.159 A 
ATOM      9  N   UNK d   1     -23.381  -1.970 -36.692  0.00  0.00    -0.216 NA
ENDROOT
BRANCH   2  10
ATOM     10  C   UNK d   1     -20.847   0.531 -36.212  0.00  0.00     0.263 C 
ATOM     11  O   UNK d   1     -19.861   0.068 -35.313  0.00  0.00    -0.353 OA
ATOM     12  C   UNK d   1     -19.246   1.303 -35.003  0.00  0.00     0.179 C 
ATOM     13  C   UNK d   1     -20.499   2.021 -34.437  0.00  0.00     0.182 C 
ATOM     14  C   UNK d   1     -21.410   1.797 -35.652  0.00  0.00     0.198 C 
BRANCH  12  15
ATOM     15  C   UNK d   1     -18.173   1.163 -33.991  0.00  0.00     0.198 C 
BRANCH  15  16
ATOM     16  O   UNK d   1     -17.702   2.420 -33.591  0.00  0.00    -0.398 OA
ATOM     17  H   UNK d   1     -17.265   2.298 -32.693  0.00  0.00     0.209 HD
ENDBRANCH  15  16
ENDBRANCH  12  15
BRANCH  13  18
ATOM     18  O   UNK d   1     -20.272   3.344 -34.173  0.00  0.00    -0.390 OA
ATOM     19  H   UNK d   1     -19.319   3.561 -34.310  0.00  0.00     0.210 HD
ENDBRANCH  13  18
BRANCH  14  20
ATOM     20  O   UNK d   1     -21.189   2.891 -36.528  0.00  0.00    -0.388 OA
ATOM     21  H   UNK d   1     -21.025   2.470 -37.400  0.00  0.00     0.210 HD
ENDBRANCH  14  20
ENDBRANCH   2  10
BRANCH   1  22
ATOM     22  S   UNK d   1     -22.778  -1.198 -34.094  0.00  0.00    -0.087 SA
BRANCH  22  23
ATOM     23  C   UNK d   1     -21.834  -2.621 -33.393  0.00  0.00     0.122 C 
BRANCH  23  24
ATOM     24  C   UNK d   1     -21.082  -2.176 -32.198  0.00  0.00    -0.031 A 
ATOM     25  C   UNK d   1     -20.795  -2.977 -31.121  0.00  0.00     0.018 A 
ATOM     26  C   UNK d   1     -20.225  -2.496 -29.993  0.00  0.00     0.019 A 
ATOM     27 Br   UNK d   1     -21.126  -4.845 -31.362  0.00  0.00    -0.051 Br
ATOM     28  C   UNK d   1     -19.888  -1.154 -29.865  0.00  0.00     0.001 A 
ATOM     29  C   UNK d   1     -20.169  -0.306 -30.946  0.00  0.00     0.001 A 
ATOM     30  C   UNK d   1     -20.755  -0.810 -32.091  0.00  0.00     0.009 A 
ENDBRANCH  23  24
ENDBRANCH  22  23
ENDBRANCH   1  22
BRANCH   5  31
ATOM     31  N   UNK d   1     -21.098  -0.841 -41.519  0.00  0.00    -0.231 N 
ATOM     32  H   UNK d   1     -21.473  -1.009 -42.450  0.00  0.00     0.174 HD
ATOM     33  H   UNK d   1     -20.091  -0.457 -41.471  0.00  0.00     0.174 HD
ENDBRANCH   5  31
BRANCH   7  34
ATOM     34  O   UNK d   1     -24.406  -3.276 -39.098  0.00  0.00    -0.343 OA
ATOM     35  H   UNK d   1     -25.336  -3.056 -38.759  0.00  0.00     0.219 HD
ENDBRANCH   7  34
TORSDOF 10
ENDMDL
