MODEL 1
REMARK VINA RESULT:    -6.938      0.000      0.000
REMARK INTER + INTRA:          -9.709
REMARK INTER:                  -8.155
REMARK INTRA:                  -1.554
REMARK UNBOUND:                -1.554
REMARK  3 active torsions:
REMARK  status: ('A' for Active; 'I' for Inactive)
REMARK    1  A    between atoms: C_6  and  C_17 
REMARK    2  A    between atoms: N_9  and  C_10 
REMARK    3  A    between atoms: C_23  and  O_30 
ROOT
ATOM      1  C   UNK d   1     -22.390   0.327 -38.409  0.00  0.00     0.246 C 
ATOM      2  N   UNK d   1     -23.344  -0.731 -38.711  0.00  0.00    -0.065 N 
ATOM      3  C   UNK d   1     -24.643  -0.407 -38.146  0.00  0.00     0.240 C 
ATOM      4  C   UNK d   1     -24.618   0.723 -37.151  0.00  0.00     0.067 C 
ATOM      5  C   UNK d   1     -23.409   0.542 -36.270  0.00  0.00    -0.043 A 
ATOM      6  C   UNK d   1     -22.202   0.304 -36.969  0.00  0.00     0.017 A 
ATOM      7  C   UNK d   1     -21.049   0.101 -36.263  0.00  0.00     0.113 A 
ATOM      8  C   UNK d   1     -21.122   0.144 -34.873  0.00  0.00     0.139 A 
ATOM      9  C   UNK d   1     -22.307   0.378 -34.216  0.00  0.00     0.108 A 
ATOM     10  C   UNK d   1     -23.482   0.583 -34.916  0.00  0.00     0.047 A 
ATOM     11  O   UNK d   1     -22.063   0.362 -32.858  0.00  0.00    -0.323 OA
ATOM     12  C   UNK d   1     -20.779  -0.169 -32.637  0.00  0.00     0.352 C 
ATOM     13  O   UNK d   1     -20.159  -0.017 -33.914  0.00  0.00    -0.320 OA
ATOM     14  C   UNK d   1     -22.965  -2.025 -38.257  0.00  0.00     0.270 C 
ATOM     15  H   UNK d   1     -23.451  -0.750 -39.747  0.00  0.00     0.280 HD
ENDROOT
BRANCH   1  16
ATOM     16  C   UNK d   1     -21.283   0.387 -39.354  0.00  0.00     0.208 C 
ATOM     17  C   UNK d   1     -21.915   0.051 -40.723  0.00  0.00     0.261 C 
ATOM     18  N   UNK d   1     -22.864   1.006 -41.166  0.00  0.00    -0.187 NA
ATOM     19  O   UNK d   1     -21.603  -0.963 -41.352  0.00  0.00    -0.270 OA
ATOM     20  C   UNK d   1     -22.831   2.264 -40.916  0.00  0.00     0.190 C 
ATOM     21  S   UNK d   1     -24.075   3.396 -41.520  0.00  0.00    -0.010 SA
ATOM     22  N   UNK d   1     -21.718   2.700 -40.103  0.00  0.00    -0.259 N 
ATOM     23  C   UNK d   1     -20.761   1.758 -39.641  0.00  0.00     0.246 C 
ATOM     24  O   UNK d   1     -19.594   2.134 -39.516  0.00  0.00    -0.272 OA
BRANCH  22  25
ATOM     25  C   UNK d   1     -21.570   4.049 -39.767  0.00  0.00     0.044 A 
ATOM     26  C   UNK d   1     -22.069   4.466 -38.527  0.00  0.00     0.031 A 
ATOM     27  C   UNK d   1     -21.959   5.780 -38.126  0.00  0.00     0.021 A 
ATOM     28  C   UNK d   1     -21.344   6.700 -38.969  0.00  0.00     0.011 A 
ATOM     29  C   UNK d   1     -20.847   6.273 -40.207  0.00  0.00     0.021 A 
ATOM     30 Br   UNK d   1     -21.174   8.509 -38.458  0.00  0.00    -0.051 Br
ATOM     31  C   UNK d   1     -20.965   4.958 -40.590  0.00  0.00     0.031 A 
ENDBRANCH  22  25
ENDBRANCH   1  16
BRANCH   7  32
ATOM     32  O   UNK d   1     -19.839  -0.145 -36.897  0.00  0.00    -0.352 OA
ATOM     33  C   UNK d   1     -18.742   0.726 -36.643  0.00  0.00     0.210 C 
ENDBRANCH   7  32
TORSDOF 3
ENDMDL
