MODEL 1
REMARK VINA RESULT:    -8.245      0.000      0.000
REMARK INTER + INTRA:          -8.394
REMARK INTER:                  -8.727
REMARK INTRA:                   0.333
REMARK UNBOUND:                 0.333
REMARK  1 active torsions:
REMARK  status: ('A' for Active; 'I' for Inactive)
REMARK    1  A    between atoms: N_11  and  C_14 
ROOT
ATOM      1  S   UNK d   1     -19.623   2.693 -35.414  0.00  0.00     0.148 S 
ATOM      2  O   UNK d   1     -19.316   2.620 -36.882  0.00  0.00    -0.228 OA
ATOM      3  O   UNK d   1     -20.350   3.959 -35.058  0.00  0.00    -0.228 OA
ATOM      4  C   UNK d   1     -20.563   1.281 -34.877  0.00  0.00     0.175 C 
ATOM      5  C   UNK d   1     -20.258   1.115 -33.403  0.00  0.00     0.195 C 
ATOM      6  N   UNK d   1     -18.888   0.663 -33.259  0.00  0.00    -0.318 N 
ATOM      7  C   UNK d   1     -17.852   1.159 -34.140  0.00  0.00     0.143 C 
ATOM      8  C   UNK d   1     -18.104   2.635 -34.453  0.00  0.00     0.160 C 
ATOM      9  C   UNK d   1     -18.912  -0.254 -32.172  0.00  0.00     0.328 C 
ATOM     10  O   UNK d   1     -17.893  -0.701 -31.545  0.00  0.00    -0.246 OA
ATOM     11  N   UNK d   1     -20.248  -0.623 -31.855  0.00  0.00    -0.259 N 
ATOM     12  C   UNK d   1     -21.078   0.079 -32.768  0.00  0.00     0.252 C 
ATOM     13  O   UNK d   1     -22.304  -0.134 -33.005  0.00  0.00    -0.270 OA
ENDROOT
BRANCH  11  14
ATOM     14  C   UNK d   1     -20.704  -1.533 -30.815  0.00  0.00     0.135 C 
ATOM     15  C   UNK d   1     -20.194  -2.944 -31.056  0.00  0.00     0.058 C 
ATOM     16  C   UNK d   1     -20.820  -3.808 -29.960  0.00  0.00     0.178 C 
ATOM     17  O   UNK d   1     -20.245  -3.372 -28.741  0.00  0.00    -0.349 OA
ATOM     18  C   UNK d   1     -19.989  -2.024 -28.519  0.00  0.00     0.094 A 
ATOM     19  C   UNK d   1     -20.198  -1.097 -29.500  0.00  0.00     0.000 A 
ATOM     20  C   UNK d   1     -19.515  -1.673 -27.264  0.00  0.00     0.044 A 
ATOM     21  C   UNK d   1     -19.947   0.229 -29.282  0.00  0.00     0.012 A 
ATOM     22  C   UNK d   1     -19.477   0.617 -28.051  0.00  0.00     0.002 A 
ATOM     23  C   UNK d   1     -19.272  -0.325 -27.074  0.00  0.00     0.022 A 
ATOM     24 Br   UNK d   1     -19.227  -2.968 -25.902  0.00  0.00    -0.048 Br
ENDBRANCH  11  14
TORSDOF 1
ENDMDL
