/Users/jonathanwahrer/Desktop/Msc/3_Semester/Drug_Design_Praktikum/waehrer_HTS_screening/HTS_experiment/out/docking_results/vina_output/5l4q/1151_docked.pdbqt
 OpenBabel03212218333D

 24 27  0  0  1  0  0  0  0  0999 V2000
  -19.6230    2.6930  -35.4140 S   0  0  0  0  0  0  0  0  0  0  0  0
  -19.3160    2.6200  -36.8820 O   0  0  0  0  0  0  0  0  0  0  0  0
  -20.3500    3.9590  -35.0580 O   0  0  0  0  0  0  0  0  0  0  0  0
  -20.5630    1.2810  -34.8770 C   0  0  0  0  0  2  0  0  0  0  0  0
  -20.2580    1.1150  -33.4030 C   0  0  2  0  0  3  0  0  0  0  0  0
  -18.8880    0.6630  -33.2590 N   0  0  0  0  0  0  0  0  0  0  0  0
  -17.8520    1.1590  -34.1400 C   0  0  0  0  0  2  0  0  0  0  0  0
  -18.1040    2.6350  -34.4530 C   0  0  0  0  0  2  0  0  0  0  0  0
  -18.9120   -0.2540  -32.1720 C   0  0  0  0  0  0  0  0  0  0  0  0
  -17.8930   -0.7010  -31.5450 O   0  0  0  0  0  0  0  0  0  0  0  0
  -20.2480   -0.6230  -31.8550 N   0  0  0  0  0  0  0  0  0  0  0  0
  -21.0780    0.0790  -32.7680 C   0  0  0  0  0  0  0  0  0  0  0  0
  -22.3040   -0.1340  -33.0050 O   0  0  0  0  0  0  0  0  0  0  0  0
  -20.7040   -1.5330  -30.8150 C   0  0  1  0  0  3  0  0  0  0  0  0
  -20.1940   -2.9440  -31.0560 C   0  0  0  0  0  2  0  0  0  0  0  0
  -20.8200   -3.8080  -29.9600 C   0  0  0  0  0  2  0  0  0  0  0  0
  -20.2450   -3.3720  -28.7410 O   0  0  0  0  0  0  0  0  0  0  0  0
  -19.9890   -2.0240  -28.5190 C   0  0  0  0  0  0  0  0  0  0  0  0
  -20.1980   -1.0970  -29.5000 C   0  0  0  0  0  0  0  0  0  0  0  0
  -19.5150   -1.6730  -27.2640 C   0  0  0  0  0  0  0  0  0  0  0  0
  -19.9470    0.2290  -29.2820 C   0  0  0  0  0  3  0  0  0  0  0  0
  -19.4770    0.6170  -28.0510 C   0  0  0  0  0  3  0  0  0  0  0  0
  -19.2720   -0.3250  -27.0740 C   0  0  0  0  0  3  0  0  0  0  0  0
  -19.2270   -2.9680  -25.9020 Br  0  0  0  0  0  0  0  0  0  0  0  0
  1  3  2  0  0  0  0
  1  4  1  0  0  0  0
  1  8  1  0  0  0  0
  2  1  2  0  0  0  0
  5  4  1  6  0  0  0
  5  6  1  0  0  0  0
  5 12  1  0  0  0  0
  6  9  1  0  0  0  0
  7  6  1  0  0  0  0
  8  7  1  0  0  0  0
  9 11  1  0  0  0  0
  9 10  2  0  0  0  0
 12 11  1  0  0  0  0
 13 12  2  0  0  0  0
 14 11  1  6  0  0  0
 14 19  1  0  0  0  0
 15 14  1  0  0  0  0
 15 16  1  0  0  0  0
 16 17  1  0  0  0  0
 17 18  1  0  0  0  0
 18 20  1  0  0  0  0
 19 21  1  0  0  0  0
 19 18  2  0  0  0  0
 20 23  2  0  0  0  0
 20 24  1  0  0  0  0
 21 22  2  0  0  0  0
 22 23  1  0  0  0  0
M  END
>  <Pose>
1

>  <Score>
-8.245

$$$$
