/Users/jonathanwahrer/Desktop/Msc/3_Semester/Drug_Design_Praktikum/waehrer_HTS_screening/HTS_experiment/out/docking_results/vina_output/5l4q/1160_docked.pdbqt
 OpenBabel03212218333D

 25 28  0  0  1  0  0  0  0  0999 V2000
  -20.8370   -3.6810  -31.1050 C   0  0  0  0  0  0  0  0  0  0  0  0
  -20.8000   -2.6910  -32.0150 N   0  0  0  0  0  0  0  0  0  0  0  0
  -21.6640   -2.9440  -33.0130 C   0  0  0  0  0  0  0  0  0  0  0  0
  -22.2320   -4.1180  -32.6900 N   0  0  0  0  0  0  0  0  0  0  0  0
  -21.7250   -4.5370  -31.5520 O   0  0  0  0  0  0  0  0  0  0  0  0
  -21.9450   -2.1390  -34.2010 C   0  0  0  0  0  0  0  0  0  0  0  0
  -22.9890   -2.2910  -35.0340 N   0  0  0  0  0  0  0  0  0  0  0  0
  -22.9300   -1.3820  -36.0130 N   0  0  0  0  0  0  0  0  0  0  0  0
  -21.8280   -0.6230  -35.8150 C   0  0  0  0  0  3  0  0  0  0  0  0
  -21.2400   -1.1090  -34.6970 N   0  0  0  0  0  0  0  0  0  0  0  0
  -23.8790   -1.2270  -37.1030 C   0  0  0  0  0  2  0  0  0  0  0  0
  -23.7000   -2.3510  -38.0470 C   0  0  0  0  0  0  0  0  0  0  0  0
  -24.5810   -3.2370  -38.0980 O   0  0  0  0  0  0  0  0  0  0  0  0
  -22.5510   -2.4090  -38.8690 N   0  0  0  0  0  0  0  0  0  0  0  0
  -22.6120   -2.6720  -39.8920 H   0  0  0  0  0  0  0  0  0  0  0  0
  -21.5800   -2.2000  -38.5330 H   0  0  0  0  0  0  0  0  0  0  0  0
  -20.0320   -3.7950  -29.8380 C   0  0  1  0  0  3  0  0  0  0  0  0
  -20.8200   -3.3970  -28.5810 C   0  0  1  0  0  3  0  0  0  0  0  0
  -20.4280   -4.7890  -28.8140 C   0  0  0  0  0  2  0  0  0  0  0  0
  -19.9870   -2.5890  -27.6040 C   0  0  0  0  0  0  0  0  0  0  0  0
  -19.7300   -1.2760  -27.8040 C   0  0  0  0  0  3  0  0  0  0  0  0
  -18.9720   -0.6450  -26.8530 C   0  0  0  0  0  0  0  0  0  0  0  0
  -18.6450   -1.8740  -25.7280 S   0  0  0  0  0  0  0  0  0  0  0  0
  -18.4290    1.2080  -26.8370 Br  0  0  0  0  0  0  0  0  0  0  0  0
  -19.4690   -3.1600  -26.4760 C   0  0  0  0  0  3  0  0  0  0  0  0
  2  1  2  0  0  0  0
  3  4  2  0  0  0  0
  3  2  1  0  0  0  0
  4  5  1  0  0  0  0
  5  1  1  0  0  0  0
  6  3  1  0  0  0  0
  7  6  2  0  0  0  0
  8  9  1  0  0  0  0
  8  7  1  0  0  0  0
  9 10  2  0  0  0  0
 10  6  1  0  0  0  0
 11  8  1  0  0  0  0
 12 11  1  0  0  0  0
 13 12  2  0  0  0  0
 14 16  1  0  0  0  0
 14 12  1  0  0  0  0
 15 14  1  0  0  0  0
 17  1  1  6  0  0  0
 17 19  1  0  0  0  0
 17 18  1  0  0  0  0
 18 20  1  1  0  0  0
 19 18  1  0  0  0  0
 20 25  2  0  0  0  0
 21 20  1  0  0  0  0
 21 22  2  0  0  0  0
 22 24  1  0  0  0  0
 22 23  1  0  0  0  0
 25 23  1  0  0  0  0
M  END
>  <Pose>
1

>  <Score>
-8.649

$$$$
