MODEL 1
REMARK VINA RESULT:    -8.649      0.000      0.000
REMARK INTER + INTRA:         -11.364
REMARK INTER:                 -11.177
REMARK INTRA:                  -0.188
REMARK UNBOUND:                -0.188
REMARK  5 active torsions:
REMARK  status: ('A' for Active; 'I' for Inactive)
REMARK    1  A    between atoms: C_4  and  C_6 
REMARK    2  A    between atoms: C_7  and  C_9 
REMARK    3  A    between atoms: C_11  and  C_14 
REMARK    4  A    between atoms: N_16  and  C_19 
REMARK    5  A    between atoms: C_19  and  C_20 
REMARK       I    between atoms: C_20  and  N_22 
ROOT
ATOM      1  C   UNK d   1     -20.837  -3.681 -31.105  0.00  0.00     0.178 A 
ATOM      2  N   UNK d   1     -20.800  -2.691 -32.015  0.00  0.00    -0.201 NA
ATOM      3  C   UNK d   1     -21.664  -2.944 -33.013  0.00  0.00     0.229 A 
ATOM      4  N   UNK d   1     -22.232  -4.118 -32.690  0.00  0.00    -0.102 NA
ATOM      5  O   UNK d   1     -21.725  -4.537 -31.552  0.00  0.00    -0.195 OA
ENDROOT
BRANCH   3   6
ATOM      6  C   UNK d   1     -21.945  -2.139 -34.201  0.00  0.00     0.221 A 
ATOM      7  N   UNK d   1     -22.989  -2.291 -35.034  0.00  0.00    -0.147 NA
ATOM      8  N   UNK d   1     -22.930  -1.382 -36.013  0.00  0.00    -0.253 N 
ATOM      9  C   UNK d   1     -21.828  -0.623 -35.815  0.00  0.00     0.231 A 
ATOM     10  N   UNK d   1     -21.240  -1.109 -34.697  0.00  0.00    -0.218 NA
BRANCH   8  11
ATOM     11  C   UNK d   1     -23.879  -1.227 -37.103  0.00  0.00     0.254 C 
BRANCH  11  12
ATOM     12  C   UNK d   1     -23.700  -2.351 -38.047  0.00  0.00     0.235 C 
ATOM     13  O   UNK d   1     -24.581  -3.237 -38.098  0.00  0.00    -0.272 OA
ATOM     14  N   UNK d   1     -22.551  -2.409 -38.869  0.00  0.00    -0.369 N 
ATOM     15  H   UNK d   1     -22.612  -2.672 -39.892  0.00  0.00     0.159 HD
ATOM     16  H   UNK d   1     -21.580  -2.200 -38.533  0.00  0.00     0.159 HD
ENDBRANCH  11  12
ENDBRANCH   8  11
ENDBRANCH   3   6
BRANCH   1  17
ATOM     17  C   UNK d   1     -20.032  -3.795 -29.838  0.00  0.00     0.074 A 
ATOM     18  C   UNK d   1     -20.820  -3.397 -28.581  0.00  0.00     0.032 A 
ATOM     19  C   UNK d   1     -20.428  -4.789 -28.814  0.00  0.00     0.023 A 
BRANCH  18  20
ATOM     20  C   UNK d   1     -19.987  -2.589 -27.604  0.00  0.00    -0.045 A 
ATOM     21  C   UNK d   1     -19.730  -1.276 -27.804  0.00  0.00     0.034 A 
ATOM     22  C   UNK d   1     -18.972  -0.645 -26.853  0.00  0.00     0.051 A 
ATOM     23  S   UNK d   1     -18.645  -1.874 -25.728  0.00  0.00    -0.094 SA
ATOM     24 Br   UNK d   1     -18.429   1.208 -26.837  0.00  0.00    -0.043 Br
ATOM     25  C   UNK d   1     -19.469  -3.160 -26.476  0.00  0.00     0.058 A 
ENDBRANCH  18  20
ENDBRANCH   1  17
TORSDOF 5
ENDMDL
