/Users/jonathanwahrer/Desktop/Msc/3_Semester/Drug_Design_Praktikum/waehrer_HTS_screening/HTS_experiment/out/docking_results/vina_output/5l4q/1177_docked.pdbqt
 OpenBabel03212218343D

 33 36  0  0  1  0  0  0  0  0999 V2000
  -21.5230   -0.7320  -35.2420 C   0  0  2  0  0  3  0  0  0  0  0  0
  -20.0800   -0.5600  -34.8660 C   0  0  2  0  0  3  0  0  0  0  0  0
  -20.0370   -0.9560  -33.4930 N   0  0  0  0  0  0  0  0  0  0  0  0
  -21.0210   -2.0230  -33.3960 C   0  0  0  0  0  0  0  0  0  0  0  0
  -21.0030   -2.8890  -32.4800 O   0  0  0  0  0  0  0  0  0  0  0  0
  -21.9660   -1.9000  -34.4920 C   0  0  0  0  0  0  0  0  0  0  0  0
  -22.9650   -2.6510  -34.7460 O   0  0  0  0  0  0  0  0  0  0  0  0
  -19.2100   -0.5280  -32.4030 C   0  0  0  0  0  2  0  0  0  0  0  0
  -19.8650    0.3350  -31.3740 C   0  0  0  0  0  2  0  0  0  0  0  0
  -20.2730   -0.4960  -30.1470 C   0  0  0  0  0  2  0  0  0  0  0  0
  -19.1280   -1.2090  -29.6900 N   0  0  0  0  0  4  0  0  0  0  0  0
  -18.4140   -0.6290  -28.5990 C   0  0  0  0  0  2  0  0  0  0  0  0
  -19.1060   -0.8000  -27.2680 C   0  0  0  0  0  2  0  0  0  0  0  0
  -20.3310   -1.4560  -27.5270 O   0  0  0  0  0  0  0  0  0  0  0  0
  -19.9610   -2.7470  -27.9550 C   0  0  0  0  0  2  0  0  0  0  0  0
  -19.4330   -2.5910  -29.3660 C   0  0  0  0  0  2  0  0  0  0  0  0
  -18.4470   -1.2570  -30.5070 H   0  0  0  0  0  0  0  0  0  0  0  0
  -19.5860    0.7700  -35.1960 C   0  0  0  0  0  0  0  0  0  0  0  0
  -20.2300    1.8720  -34.6120 C   0  0  0  0  0  3  0  0  0  0  0  0
  -19.8420    3.1700  -34.8260 C   0  0  0  0  0  0  0  0  0  0  0  0
  -18.7730    3.4310  -35.6480 C   0  0  0  0  0  3  0  0  0  0  0  0
  -20.7370    4.6510  -34.0180 Br  0  0  0  0  0  0  0  0  0  0  0  0
  -18.1100    2.3680  -36.2420 C   0  0  0  0  0  3  0  0  0  0  0  0
  -18.5290    1.0760  -36.0040 C   0  0  0  0  0  3  0  0  0  0  0  0
  -22.2340   -0.0310  -36.1040 C   0  0  1  0  0  3  0  0  0  0  0  0
  -23.0250    1.0390  -35.6270 O   0  0  0  0  0  1  0  0  0  0  0  0
  -22.2130   -0.3440  -37.5310 C   0  0  0  0  0  0  0  0  0  0  0  0
  -21.1310    0.2830  -38.7000 S   0  0  0  0  0  0  0  0  0  0  0  0
  -21.7680   -0.4830  -40.0840 C   0  0  0  0  0  0  0  0  0  0  0  0
  -22.7730   -1.1760  -39.5820 N   0  0  0  0  0  0  0  0  0  0  0  0
  -21.3040   -0.3940  -41.5200 C   0  0  0  0  0  1  0  0  0  0  0  0
  -23.0250   -1.1290  -38.3070 C   0  0  0  0  0  0  0  0  0  0  0  0
  -24.2120   -1.8980  -37.7410 C   0  0  0  0  0  1  0  0  0  0  0  0
  1 25  1  6  0  0  0
  1  2  1  0  0  0  0
  1  6  1  0  0  0  0
  2 18  1  1  0  0  0
  2  3  1  0  0  0  0
  3  4  1  0  0  0  0
  3  8  1  0  0  0  0
  4  5  2  0  0  0  0
  6  4  1  0  0  0  0
  7  6  2  0  0  0  0
  8  9  1  0  0  0  0
  9 10  1  0  0  0  0
 10 11  1  0  0  0  0
 11 16  1  0  0  0  0
 11 12  1  0  0  0  0
 12 13  1  0  0  0  0
 14 13  1  0  0  0  0
 15 14  1  0  0  0  0
 16 15  1  0  0  0  0
 17 11  1  0  0  0  0
 18 19  1  0  0  0  0
 20 19  2  0  0  0  0
 20 22  1  0  0  0  0
 21 20  1  0  0  0  0
 23 24  1  0  0  0  0
 23 21  2  0  0  0  0
 24 18  2  0  0  0  0
 25 26  1  6  0  0  0
 27 25  1  0  0  0  0
 28 27  1  0  0  0  0
 29 30  2  0  0  0  0
 29 28  1  0  0  0  0
 30 32  1  0  0  0  0
 31 29  1  0  0  0  0
 32 33  1  0  0  0  0
 32 27  2  0  0  0  0
M  END
>  <Pose>
1

>  <Score>
-7.937

$$$$
