MODEL 1
REMARK VINA RESULT:    -7.530      0.000      0.000
REMARK INTER + INTRA:         -11.697
REMARK INTER:                 -10.611
REMARK INTRA:                  -1.086
REMARK UNBOUND:                -1.086
REMARK  7 active torsions:
REMARK  status: ('A' for Active; 'I' for Inactive)
REMARK    1  A    between atoms: C_5  and  C_6 
REMARK    2  A    between atoms: C_6  and  C_7 
REMARK    3  A    between atoms: C_8  and  C_23 
REMARK    4  A    between atoms: N_9  and  C_14 
REMARK    5  A    between atoms: C_14  and  C_15 
REMARK    6  A    between atoms: C_15  and  C_16 
REMARK    7  A    between atoms: C_16  and  N_17 
ROOT
ATOM      1  C   UNK d   1     -22.507  -0.365 -36.938  0.00  0.00     0.063 C 
ATOM      2  C   UNK d   1     -22.193   0.509 -35.764  0.00  0.00     0.161 C 
ATOM      3  N   UNK d   1     -21.907  -0.448 -34.729  0.00  0.00    -0.332 N 
ATOM      4  C   UNK d   1     -22.791  -1.550 -34.976  0.00  0.00     0.295 C 
ATOM      5  O   UNK d   1     -23.161  -2.394 -34.140  0.00  0.00    -0.264 OA
ATOM      6  C   UNK d   1     -23.192  -1.522 -36.376  0.00  0.00     0.250 C 
ATOM      7  O   UNK d   1     -23.955  -2.280 -37.034  0.00  0.00    -0.282 OA
ENDROOT
BRANCH   3   8
ATOM      8  C   UNK d   1     -20.947  -0.275 -33.680  0.00  0.00     0.129 C 
BRANCH   8   9
ATOM      9  C   UNK d   1     -19.923  -1.326 -33.575  0.00  0.00     0.048 C 
BRANCH   9  10
ATOM     10  C   UNK d   1     -19.969  -2.222 -32.448  0.00  0.00     0.236 C 
BRANCH  10  11
ATOM     11  N   UNK d   1     -21.014  -2.503 -31.583  0.00  0.00    -0.067 N 
ATOM     12  C   UNK d   1     -20.681  -2.047 -30.182  0.00  0.00     0.261 C 
ATOM     13  C   UNK d   1     -19.791  -3.058 -29.538  0.00  0.00     0.195 C 
ATOM     14  O   UNK d   1     -20.547  -4.206 -29.336  0.00  0.00    -0.388 OA
ATOM     15  C   UNK d   1     -20.757  -4.746 -30.625  0.00  0.00     0.195 C 
ATOM     16  C   UNK d   1     -21.571  -3.806 -31.470  0.00  0.00     0.261 C 
ATOM     17  H   UNK d   1     -21.825  -1.872 -31.788  0.00  0.00     0.280 HD
ENDBRANCH  10  11
ENDBRANCH   9  10
ENDBRANCH   8   9
ENDBRANCH   3   8
BRANCH   2  18
ATOM     18  C   UNK d   1     -21.109   1.450 -36.082  0.00  0.00    -0.030 A 
ATOM     19  C   UNK d   1     -19.836   1.128 -36.467  0.00  0.00     0.011 A 
ATOM     20  C   UNK d   1     -18.847   2.042 -36.752  0.00  0.00     0.019 A 
ATOM     21  C   UNK d   1     -19.140   3.378 -36.649  0.00  0.00     0.011 A 
ATOM     22  C   UNK d   1     -20.398   3.765 -36.267  0.00  0.00     0.019 A 
ATOM     23 Br   UNK d   1     -17.761   4.648 -37.049  0.00  0.00    -0.051 Br
ATOM     24  C   UNK d   1     -21.363   2.825 -35.990  0.00  0.00     0.011 A 
ENDBRANCH   2  18
BRANCH   1  25
ATOM     25  C   UNK d   1     -22.243  -0.078 -38.179  0.00  0.00     0.139 C 
ATOM     26  O   UNK d   1     -21.395  -0.923 -38.915  0.00  0.00    -0.190 OA
BRANCH  25  27
ATOM     27  C   UNK d   1     -22.825   1.123 -38.817  0.00  0.00     0.068 A 
ATOM     28  S   UNK d   1     -22.064   2.315 -39.783  0.00  0.00    -0.070 SA
ATOM     29  C   UNK d   1     -23.430   3.264 -40.149  0.00  0.00     0.072 A 
ATOM     30  N   UNK d   1     -24.396   2.627 -39.519  0.00  0.00    -0.250 NA
ATOM     31  C   UNK d   1     -23.549   4.517 -40.974  0.00  0.00     0.078 C 
ATOM     32  C   UNK d   1     -24.130   1.551 -38.843  0.00  0.00     0.051 A 
ATOM     33  C   UNK d   1     -25.231   0.762 -38.138  0.00  0.00     0.072 C 
ENDBRANCH  25  27
ENDBRANCH   1  25
TORSDOF 7
ENDMDL
