MODEL 1
REMARK VINA RESULT:    -8.509      0.000      0.000
REMARK INTER + INTRA:          -9.065
REMARK INTER:                  -9.006
REMARK INTRA:                  -0.058
REMARK UNBOUND:                -0.058
REMARK  1 active torsions:
REMARK  status: ('A' for Active; 'I' for Inactive)
REMARK    1  A    between atoms: C_14  and  C_16 
ROOT
ATOM      1  S   UNK d   1     -23.703   1.853 -38.892  0.00  0.00    -0.074 SA
ATOM      2  C   UNK d   1     -23.738   0.246 -38.284  0.00  0.00     0.088 A 
ATOM      3  C   UNK d   1     -23.007  -0.439 -39.216  0.00  0.00     0.073 A 
ATOM      4  C   UNK d   1     -22.509   0.258 -40.249  0.00  0.00    -0.023 A 
ATOM      5  C   UNK d   1     -22.772   1.601 -40.290  0.00  0.00     0.018 A 
ATOM      6  C   UNK d   1     -22.206   2.363 -41.452  0.00  0.00     0.281 C 
ATOM      7  N   UNK d   1     -20.767   2.109 -41.497  0.00  0.00    -0.070 N 
ATOM      8  C   UNK d   1     -20.438   0.718 -41.520  0.00  0.00     0.239 C 
ATOM      9  C   UNK d   1     -21.668  -0.180 -41.439  0.00  0.00     0.068 C 
ATOM     10  C   UNK d   1     -20.230   2.668 -40.256  0.00  0.00     0.270 C 
ATOM     11  C   UNK d   1     -22.872  -1.896 -38.938  0.00  0.00     0.256 C 
ATOM     12  O   UNK d   1     -22.219  -2.646 -39.722  0.00  0.00    -0.267 OA
ATOM     13  N   UNK d   1     -23.489  -2.429 -37.777  0.00  0.00    -0.332 N 
ATOM     14  C   UNK d   1     -23.852  -1.661 -36.622  0.00  0.00     0.219 C 
ATOM     15  N   UNK d   1     -24.332  -0.382 -37.123  0.00  0.00    -0.358 N 
ATOM     16  H   UNK d   1     -20.331   2.658 -42.265  0.00  0.00     0.279 HD
ATOM     17  H   UNK d   1     -23.688  -3.470 -37.781  0.00  0.00     0.165 HD
ATOM     18  H   UNK d   1     -25.115   0.132 -36.671  0.00  0.00     0.162 HD
ENDROOT
BRANCH  14  19
ATOM     19  C   UNK d   1     -22.711  -1.434 -35.701  0.00  0.00    -0.013 A 
ATOM     20  C   UNK d   1     -21.827  -0.390 -35.879  0.00  0.00     0.033 A 
ATOM     21  C   UNK d   1     -20.764  -0.163 -35.034  0.00  0.00     0.049 A 
ATOM     22  C   UNK d   1     -20.552  -1.003 -33.960  0.00  0.00     0.141 A 
ATOM     23 Br   UNK d   1     -19.557   1.275 -35.289  0.00  0.00    -0.048 Br
ATOM     24  C   UNK d   1     -21.420  -2.050 -33.762  0.00  0.00     0.049 A 
ATOM     25  O   UNK d   1     -19.482  -0.780 -33.104  0.00  0.00    -0.189 OA
ATOM     26  C   UNK d   1     -22.485  -2.270 -34.614  0.00  0.00     0.033 A 
ATOM     27 Br   UNK d   1     -21.087  -3.192 -32.254  0.00  0.00    -0.048 Br
ENDBRANCH  14  19
TORSDOF 1
ENDMDL
