MODEL 1
REMARK VINA RESULT:    -7.121      0.000      0.000
REMARK INTER + INTRA:          -8.539
REMARK INTER:                  -8.370
REMARK INTRA:                  -0.169
REMARK UNBOUND:                -0.169
REMARK  3 active torsions:
REMARK  status: ('A' for Active; 'I' for Inactive)
REMARK    1  A    between atoms: C_14  and  C_16 
REMARK    2  A    between atoms: C_20  and  O_22 
REMARK    3  A    between atoms: O_22  and  C_23 
ROOT
ATOM      1  S   UNK d   1     -23.721  -1.557 -36.796  0.00  0.00    -0.074 SA
ATOM      2  C   UNK d   1     -23.555  -0.252 -35.709  0.00  0.00     0.088 A 
ATOM      3  C   UNK d   1     -22.856   0.670 -36.438  0.00  0.00     0.073 A 
ATOM      4  C   UNK d   1     -22.519   0.325 -37.707  0.00  0.00    -0.023 A 
ATOM      5  C   UNK d   1     -22.911  -0.917 -38.140  0.00  0.00     0.018 A 
ATOM      6  C   UNK d   1     -22.599  -1.415 -39.513  0.00  0.00     0.281 C 
ATOM      7  N   UNK d   1     -22.546  -0.395 -40.503  0.00  0.00    -0.070 N 
ATOM      8  C   UNK d   1     -22.477   0.946 -40.032  0.00  0.00     0.239 C 
ATOM      9  C   UNK d   1     -21.746   1.150 -38.743  0.00  0.00     0.068 C 
ATOM     10  C   UNK d   1     -21.509  -0.676 -41.489  0.00  0.00     0.270 C 
ATOM     11  C   UNK d   1     -22.582   1.938 -35.696  0.00  0.00     0.256 C 
ATOM     12  O   UNK d   1     -21.936   2.875 -36.269  0.00  0.00    -0.267 OA
ATOM     13  N   UNK d   1     -23.039   2.088 -34.366  0.00  0.00    -0.332 N 
ATOM     14  C   UNK d   1     -23.226   0.934 -33.514  0.00  0.00     0.219 C 
ATOM     15  N   UNK d   1     -23.976  -0.013 -34.339  0.00  0.00    -0.358 N 
ATOM     16  H   UNK d   1     -23.456  -0.469 -41.058  0.00  0.00     0.279 HD
ATOM     17  H   UNK d   1     -23.246   3.040 -33.990  0.00  0.00     0.165 HD
ATOM     18  H   UNK d   1     -24.804  -0.541 -34.019  0.00  0.00     0.162 HD
ENDROOT
BRANCH  14  19
ATOM     19  C   UNK d   1     -21.878   0.385 -33.212  0.00  0.00    -0.012 A 
ATOM     20  C   UNK d   1     -20.740   1.058 -33.601  0.00  0.00     0.033 A 
ATOM     21  C   UNK d   1     -19.481   0.566 -33.330  0.00  0.00     0.051 A 
ATOM     22  C   UNK d   1     -19.351  -0.638 -32.650  0.00  0.00     0.157 A 
ATOM     23 Br   UNK d   1     -17.899   1.486 -33.861  0.00  0.00    -0.048 Br
ATOM     24  C   UNK d   1     -20.471  -1.333 -32.250  0.00  0.00     0.107 A 
ATOM     25  O   UNK d   1     -18.089  -1.155 -32.366  0.00  0.00    -0.188 OA
ATOM     26  C   UNK d   1     -21.699  -0.821 -32.531  0.00  0.00     0.050 A 
BRANCH  24  27
ATOM     27  O   UNK d   1     -20.288  -2.526 -31.576  0.00  0.00    -0.348 OA
BRANCH  27  28
ATOM     28  C   UNK d   1     -20.735  -2.817 -30.289  0.00  0.00     0.171 C 
ATOM     29  C   UNK d   1     -19.898  -2.118 -29.240  0.00  0.00     0.034 C 
ENDBRANCH  27  28
ENDBRANCH  24  27
ENDBRANCH  14  19
TORSDOF 3
ENDMDL
