/Users/jonathanwahrer/Desktop/Msc/3_Semester/Drug_Design_Praktikum/waehrer_HTS_screening/HTS_experiment/out/docking_results/vina_output/5l4q/1193_docked.pdbqt
 OpenBabel03212218353D

 29 32  0  0  1  0  0  0  0  0999 V2000
  -23.7210   -1.5570  -36.7960 S   0  0  0  0  0  0  0  0  0  0  0  0
  -23.5550   -0.2520  -35.7090 C   0  0  0  0  0  0  0  0  0  0  0  0
  -22.8560    0.6700  -36.4380 C   0  0  0  0  0  0  0  0  0  0  0  0
  -22.5190    0.3250  -37.7070 C   0  0  0  0  0  0  0  0  0  0  0  0
  -22.9110   -0.9170  -38.1400 C   0  0  0  0  0  0  0  0  0  0  0  0
  -22.5990   -1.4150  -39.5130 C   0  0  0  0  0  2  0  0  0  0  0  0
  -22.5460   -0.3950  -40.5030 N   0  0  0  0  0  4  0  0  0  0  0  0
  -22.4770    0.9460  -40.0320 C   0  0  0  0  0  2  0  0  0  0  0  0
  -21.7460    1.1500  -38.7430 C   0  0  0  0  0  2  0  0  0  0  0  0
  -21.5090   -0.6760  -41.4890 C   0  0  0  0  0  1  0  0  0  0  0  0
  -22.5820    1.9380  -35.6960 C   0  0  0  0  0  0  0  0  0  0  0  0
  -21.9360    2.8750  -36.2690 O   0  0  0  0  0  0  0  0  0  0  0  0
  -23.0390    2.0880  -34.3660 N   0  0  0  0  0  0  0  0  0  0  0  0
  -23.2260    0.9340  -33.5140 C   0  0  1  0  0  3  0  0  0  0  0  0
  -23.9760   -0.0130  -34.3390 N   0  0  0  0  0  0  0  0  0  0  0  0
  -23.4560   -0.4690  -41.0580 H   0  0  0  0  0  0  0  0  0  0  0  0
  -23.2460    3.0400  -33.9900 H   0  0  0  0  0  0  0  0  0  0  0  0
  -24.8040   -0.5410  -34.0190 H   0  0  0  0  0  0  0  0  0  0  0  0
  -21.8780    0.3850  -33.2120 C   0  0  0  0  0  0  0  0  0  0  0  0
  -20.7400    1.0580  -33.6010 C   0  0  0  0  0  3  0  0  0  0  0  0
  -19.4810    0.5660  -33.3300 C   0  0  0  0  0  0  0  0  0  0  0  0
  -19.3510   -0.6380  -32.6500 C   0  0  0  0  0  0  0  0  0  0  0  0
  -17.8990    1.4860  -33.8610 Br  0  0  0  0  0  0  0  0  0  0  0  0
  -20.4710   -1.3330  -32.2500 C   0  0  0  0  0  0  0  0  0  0  0  0
  -18.0890   -1.1550  -32.3660 O   0  0  0  0  0  1  0  0  0  0  0  0
  -21.6990   -0.8210  -32.5310 C   0  0  0  0  0  3  0  0  0  0  0  0
  -20.2880   -2.5260  -31.5760 O   0  0  0  0  0  0  0  0  0  0  0  0
  -20.7350   -2.8170  -30.2890 C   0  0  0  0  0  2  0  0  0  0  0  0
  -19.8980   -2.1180  -29.2400 C   0  0  0  0  0  1  0  0  0  0  0  0
  1  2  1  0  0  0  0
  2 15  1  0  0  0  0
  3  2  2  0  0  0  0
  3 11  1  0  0  0  0
  4  3  1  0  0  0  0
  5  4  2  0  0  0  0
  5  1  1  0  0  0  0
  6  5  1  0  0  0  0
  7  8  1  0  0  0  0
  7  6  1  0  0  0  0
  8  9  1  0  0  0  0
  9  4  1  0  0  0  0
 10  7  1  0  0  0  0
 11 13  1  0  0  0  0
 12 11  2  0  0  0  0
 13 17  1  0  0  0  0
 13 14  1  0  0  0  0
 14 19  1  6  0  0  0
 15 18  1  0  0  0  0
 15 14  1  0  0  0  0
 16  7  1  0  0  0  0
 19 26  1  0  0  0  0
 20 21  1  0  0  0  0
 20 19  2  0  0  0  0
 21 22  2  0  0  0  0
 22 25  1  0  0  0  0
 22 24  1  0  0  0  0
 23 21  1  0  0  0  0
 24 27  1  0  0  0  0
 26 24  2  0  0  0  0
 27 28  1  0  0  0  0
 28 29  1  0  0  0  0
M  END
>  <Pose>
1

>  <Score>
-7.121

$$$$
