MODEL 1
REMARK VINA RESULT:    -8.133      0.000      0.000
REMARK INTER + INTRA:          -9.824
REMARK INTER:                  -9.559
REMARK INTRA:                  -0.265
REMARK UNBOUND:                -0.265
REMARK  3 active torsions:
REMARK  status: ('A' for Active; 'I' for Inactive)
REMARK    1  A    between atoms: N_6  and  C_18 
REMARK    2  A    between atoms: C_8  and  C_9 
REMARK    3  A    between atoms: C_12  and  N_15 
ROOT
ATOM      1  S   UNK d   1     -21.368  -3.482 -30.551  0.00  0.00    -0.087 SA
ATOM      2  C   UNK d   1     -20.904  -4.238 -28.972  0.00  0.00     0.069 C 
ATOM      3  C   UNK d   1     -20.700  -2.991 -28.156  0.00  0.00     0.146 C 
ATOM      4  N   UNK d   1     -20.191  -1.908 -28.941  0.00  0.00    -0.324 N 
ATOM      5  C   UNK d   1     -20.421  -1.992 -30.262  0.00  0.00     0.154 A 
ATOM      6  N   UNK d   1     -19.872  -0.936 -30.873  0.00  0.00    -0.300 N 
ATOM      7  C   UNK d   1     -19.280  -0.158 -29.940  0.00  0.00     0.130 A 
ATOM      8  C   UNK d   1     -19.473  -0.755 -28.717  0.00  0.00     0.062 A 
ATOM      9  C   UNK d   1     -19.576  -4.949 -29.072  0.00  0.00     0.023 C 
ENDROOT
BRANCH   8  10
ATOM     10  C   UNK d   1     -18.978  -0.230 -27.466  0.00  0.00    -0.008 A 
ATOM     11  C   UNK d   1     -18.865   1.165 -27.340  0.00  0.00     0.016 A 
ATOM     12  C   UNK d   1     -18.441   1.733 -26.166  0.00  0.00     0.037 A 
ATOM     13  C   UNK d   1     -18.105   0.995 -25.059  0.00  0.00     0.102 A 
ATOM     14  C   UNK d   1     -18.208  -0.373 -25.156  0.00  0.00     0.037 A 
ATOM     15  C   UNK d   1     -18.641  -0.954 -26.354  0.00  0.00     0.016 A 
BRANCH  13  16
ATOM     16  N   UNK d   1     -17.675   1.657 -23.885  0.00  0.00    -0.116 N 
ATOM     17  O   UNK d   1     -17.058   1.047 -23.004  0.00  0.00    -0.532 OA
ATOM     18  O   UNK d   1     -17.945   2.982 -23.729  0.00  0.00    -0.532 OA
ENDBRANCH  13  16
ENDBRANCH   8  10
BRANCH   6  19
ATOM     19  C   UNK d   1     -19.894  -0.656 -32.268  0.00  0.00     0.041 A 
ATOM     20  C   UNK d   1     -19.082   0.299 -32.834  0.00  0.00     0.031 A 
ATOM     21  C   UNK d   1     -19.084   0.589 -34.182  0.00  0.00     0.021 A 
ATOM     22  C   UNK d   1     -19.933  -0.097 -35.022  0.00  0.00     0.011 A 
ATOM     23  C   UNK d   1     -20.766  -1.065 -34.489  0.00  0.00     0.021 A 
ATOM     24 Br   UNK d   1     -19.964   0.278 -36.898  0.00  0.00    -0.051 Br
ATOM     25  C   UNK d   1     -20.743  -1.336 -33.136  0.00  0.00     0.031 A 
ENDBRANCH   6  19
TORSDOF 3
ENDMDL
