MODEL 1
REMARK VINA RESULT:    -7.738      0.000      0.000
REMARK INTER + INTRA:         -10.012
REMARK INTER:                  -9.095
REMARK INTRA:                  -0.918
REMARK UNBOUND:                -0.918
REMARK  3 active torsions:
REMARK  status: ('A' for Active; 'I' for Inactive)
REMARK    1  A    between atoms: N_7  and  C_18 
REMARK    2  A    between atoms: C_8  and  C_10 
REMARK    3  A    between atoms: C_13  and  O_16 
ROOT
ATOM      1  S   UNK d   1     -20.939  -4.068 -30.897  0.00  0.00    -0.093 SA
ATOM      2  C   UNK d   1     -20.542  -5.750 -30.343  0.00  0.00     0.084 C 
ATOM      3  C   UNK d   1     -19.962  -5.637 -28.945  0.00  0.00     0.031 C 
ATOM      4  C   UNK d   1     -20.791  -4.682 -28.111  0.00  0.00     0.131 C 
ATOM      5  N   UNK d   1     -20.292  -3.345 -28.389  0.00  0.00    -0.335 N 
ATOM      6  C   UNK d   1     -20.311  -2.943 -29.662  0.00  0.00     0.154 A 
ATOM      7  N   UNK d   1     -19.804  -1.662 -29.728  0.00  0.00    -0.290 N 
ATOM      8  C   UNK d   1     -19.473  -1.271 -28.508  0.00  0.00     0.067 A 
ATOM      9  C   UNK d   1     -19.788  -2.344 -27.678  0.00  0.00     0.124 A 
ENDROOT
BRANCH   8  10
ATOM     10  C   UNK d   1     -18.903  -0.022 -28.028  0.00  0.00    -0.007 A 
ATOM     11  C   UNK d   1     -17.694  -0.049 -27.317  0.00  0.00     0.016 A 
ATOM     12  C   UNK d   1     -17.110   1.092 -26.841  0.00  0.00     0.037 A 
ATOM     13  C   UNK d   1     -17.656   2.342 -27.022  0.00  0.00     0.068 A 
ATOM     14  C   UNK d   1     -18.838   2.379 -27.716  0.00  0.00     0.037 A 
ATOM     15  C   UNK d   1     -19.455   1.222 -28.213  0.00  0.00     0.016 A 
BRANCH  13  16
ATOM     16  O   UNK d   1     -17.033   3.478 -26.524  0.00  0.00    -0.356 OA
ATOM     17  C   UNK d   1     -16.945   4.649 -27.314  0.00  0.00     0.210 C 
ENDBRANCH  13  16
ENDBRANCH   8  10
BRANCH   7  18
ATOM     18  C   UNK d   1     -19.695  -0.957 -30.962  0.00  0.00     0.042 A 
ATOM     19  C   UNK d   1     -20.809  -0.388 -31.555  0.00  0.00     0.031 A 
ATOM     20  C   UNK d   1     -20.733   0.325 -32.734  0.00  0.00     0.021 A 
ATOM     21  C   UNK d   1     -19.495   0.465 -33.329  0.00  0.00     0.011 A 
ATOM     22  C   UNK d   1     -18.391  -0.106 -32.732  0.00  0.00     0.021 A 
ATOM     23 Br   UNK d   1     -19.290   1.440 -34.971  0.00  0.00    -0.051 Br
ATOM     24  C   UNK d   1     -18.444  -0.821 -31.556  0.00  0.00     0.031 A 
ENDBRANCH   7  18
TORSDOF 3
ENDMDL
