/Users/jonathanwahrer/Desktop/Msc/3_Semester/Drug_Design_Praktikum/waehrer_HTS_screening/HTS_experiment/out/docking_results/vina_output/5l4q/1211_docked.pdbqt
 OpenBabel03212218353D

 26 29  0  0  1  0  0  0  0  0999 V2000
  -19.5870    0.5340  -35.4630 S   0  0  0  0  0  0  0  0  0  0  0  0
  -19.1360    2.2920  -35.7410 C   0  0  0  0  0  2  0  0  0  0  0  0
  -20.1290    3.0780  -34.8820 C   0  0  0  0  0  2  0  0  0  0  0  0
  -21.5170    2.8840  -35.4850 C   0  0  0  0  0  2  0  0  0  0  0  0
  -22.0390    1.6430  -34.9670 N   0  0  1  0  0  0  0  0  0  0  0  0
  -21.2880    0.5740  -34.9130 C   0  0  2  0  0  3  0  0  0  0  0  0
  -22.0920   -0.4870  -34.3320 N   0  0  0  0  0  0  0  0  0  0  0  0
  -23.3940   -0.1970  -34.8910 C   0  0  2  0  0  0  0  0  0  0  0  0
  -23.3560    1.3040  -34.4190 C   0  0  0  0  0  2  0  0  0  0  0  0
  -24.4420   -0.8670  -34.3440 O   0  0  0  0  0  0  0  0  0  0  0  0
  -24.1570   -1.8180  -34.1750 H   0  0  0  0  0  0  0  0  0  0  0  0
  -23.3180   -0.2140  -36.3570 C   0  0  0  0  0  0  0  0  0  0  0  0
  -23.9550    0.7190  -37.1570 C   0  0  0  0  0  3  0  0  0  0  0  0
  -23.8620    0.6170  -38.5540 C   0  0  0  0  0  3  0  0  0  0  0  0
  -23.1710   -0.3630  -39.1600 C   0  0  0  0  0  0  0  0  0  0  0  0
  -22.5070   -1.3280  -38.3750 C   0  0  0  0  0  3  0  0  0  0  0  0
  -22.6240   -1.1920  -37.0020 C   0  0  0  0  0  3  0  0  0  0  0  0
  -23.0550   -0.5020  -40.5680 O   0  0  0  0  0  0  0  0  0  0  0  0
  -21.7820   -0.5800  -41.1740 C   0  0  0  0  0  1  0  0  0  0  0  0
  -21.6700   -1.4620  -33.4060 C   0  0  0  0  0  0  0  0  0  0  0  0
  -22.0860   -2.7990  -33.6230 C   0  0  0  0  0  3  0  0  0  0  0  0
  -21.7660   -3.8150  -32.7390 C   0  0  0  0  0  3  0  0  0  0  0  0
  -21.0320   -3.5650  -31.6120 C   0  0  0  0  0  0  0  0  0  0  0  0
  -20.6120   -2.2730  -31.3720 C   0  0  0  0  0  3  0  0  0  0  0  0
  -20.5830   -4.9300  -30.3530 Br  0  0  0  0  0  0  0  0  0  0  0  0
  -20.9400   -1.2450  -32.2770 C   0  0  0  0  0  3  0  0  0  0  0  0
  2  1  1  0  0  0  0
  2  3  1  0  0  0  0
  4  3  1  0  0  0  0
  5  4  1  1  0  0  0
  5  6  1  0  0  0  0
  5  9  1  0  0  0  0
  6  1  1  1  0  0  0
  6  7  1  0  0  0  0
  7 20  1  0  0  0  0
  8  9  1  0  0  0  0
  8 10  1  1  0  0  0
  8  7  1  0  0  0  0
 10 11  1  0  0  0  0
 12  8  1  0  0  0  0
 13 12  2  0  0  0  0
 14 13  1  0  0  0  0
 15 14  2  0  0  0  0
 15 16  1  0  0  0  0
 16 17  2  0  0  0  0
 17 12  1  0  0  0  0
 18 15  1  0  0  0  0
 19 18  1  0  0  0  0
 20 26  1  0  0  0  0
 21 20  2  0  0  0  0
 21 22  1  0  0  0  0
 22 23  2  0  0  0  0
 23 24  1  0  0  0  0
 23 25  1  0  0  0  0
 26 24  2  0  0  0  0
M  END
>  <Pose>
1

>  <Score>
-7.011

$$$$
