MODEL 1
REMARK VINA RESULT:    -7.011      0.000      0.000
REMARK INTER + INTRA:          -8.394
REMARK INTER:                  -8.445
REMARK INTRA:                   0.052
REMARK UNBOUND:                 0.052
REMARK  4 active torsions:
REMARK  status: ('A' for Active; 'I' for Inactive)
REMARK    1  A    between atoms: N_7  and  C_19 
REMARK    2  A    between atoms: C_8  and  O_10 
REMARK    3  A    between atoms: C_8  and  C_11 
REMARK    4  A    between atoms: C_14  and  O_17 
ROOT
ATOM      1  S   UNK d   1     -19.587   0.534 -35.463  0.00  0.00    -0.094 SA
ATOM      2  C   UNK d   1     -19.136   2.292 -35.741  0.00  0.00     0.084 C 
ATOM      3  C   UNK d   1     -20.129   3.078 -34.882  0.00  0.00     0.030 C 
ATOM      4  C   UNK d   1     -21.517   2.884 -35.485  0.00  0.00     0.126 C 
ATOM      5  N   UNK d   1     -22.039   1.643 -34.967  0.00  0.00    -0.356 N 
ATOM      6  C   UNK d   1     -21.288   0.574 -34.913  0.00  0.00     0.148 C 
ATOM      7  N   UNK d   1     -22.092  -0.487 -34.332  0.00  0.00    -0.289 N 
ATOM      8  C   UNK d   1     -23.394  -0.197 -34.891  0.00  0.00     0.185 C 
ATOM      9  C   UNK d   1     -23.356   1.304 -34.419  0.00  0.00     0.192 C 
ENDROOT
BRANCH   8  10
ATOM     10  O   UNK d   1     -24.442  -0.867 -34.344  0.00  0.00    -0.365 OA
ATOM     11  H   UNK d   1     -24.157  -1.818 -34.175  0.00  0.00     0.213 HD
ENDBRANCH   8  10
BRANCH   8  12
ATOM     12  C   UNK d   1     -23.318  -0.214 -36.357  0.00  0.00    -0.001 A 
ATOM     13  C   UNK d   1     -23.955   0.719 -37.157  0.00  0.00     0.015 A 
ATOM     14  C   UNK d   1     -23.862   0.617 -38.554  0.00  0.00     0.037 A 
ATOM     15  C   UNK d   1     -23.171  -0.363 -39.160  0.00  0.00     0.068 A 
ATOM     16  C   UNK d   1     -22.507  -1.328 -38.375  0.00  0.00     0.037 A 
ATOM     17  C   UNK d   1     -22.624  -1.192 -37.002  0.00  0.00     0.015 A 
BRANCH  15  18
ATOM     18  O   UNK d   1     -23.055  -0.502 -40.568  0.00  0.00    -0.356 OA
ATOM     19  C   UNK d   1     -21.782  -0.580 -41.174  0.00  0.00     0.210 C 
ENDBRANCH  15  18
ENDBRANCH   8  12
BRANCH   7  20
ATOM     20  C   UNK d   1     -21.670  -1.462 -33.406  0.00  0.00     0.040 A 
ATOM     21  C   UNK d   1     -22.086  -2.799 -33.623  0.00  0.00     0.031 A 
ATOM     22  C   UNK d   1     -21.766  -3.815 -32.739  0.00  0.00     0.021 A 
ATOM     23  C   UNK d   1     -21.032  -3.565 -31.612  0.00  0.00     0.011 A 
ATOM     24  C   UNK d   1     -20.612  -2.273 -31.372  0.00  0.00     0.021 A 
ATOM     25 Br   UNK d   1     -20.583  -4.930 -30.353  0.00  0.00    -0.051 Br
ATOM     26  C   UNK d   1     -20.940  -1.245 -32.277  0.00  0.00     0.031 A 
ENDBRANCH   7  20
TORSDOF 4
ENDMDL
