MODEL 1
REMARK VINA RESULT:    -7.425      0.000      0.000
REMARK INTER + INTRA:         -10.372
REMARK INTER:                  -9.378
REMARK INTRA:                  -0.994
REMARK UNBOUND:                -0.994
REMARK  5 active torsions:
REMARK  status: ('A' for Active; 'I' for Inactive)
REMARK    1  A    between atoms: C_6  and  O_20 
REMARK    2  A    between atoms: C_6  and  C_21 
REMARK    3  A    between atoms: N_8  and  C_10 
REMARK    4  A    between atoms: C_11  and  O_18 
REMARK    5  A    between atoms: C_14  and  O_16 
ROOT
ATOM      1  S   UNK d   1     -19.218   1.690 -37.025  0.00  0.00    -0.094 SA
ATOM      2  C   UNK d   1     -18.241   2.603 -35.857  0.00  0.00     0.084 C 
ATOM      3  C   UNK d   1     -18.832   2.450 -34.470  0.00  0.00     0.030 C 
ATOM      4  C   UNK d   1     -20.249   2.997 -34.466  0.00  0.00     0.129 C 
ATOM      5  N   UNK d   1     -21.136   2.071 -35.132  0.00  0.00    -0.324 N 
ATOM      6  C   UNK d   1     -22.335   1.425 -34.706  0.00  0.00     0.181 C 
ATOM      7  C   UNK d   1     -23.082   1.375 -36.030  0.00  0.00     0.198 C 
ATOM      8  N   UNK d   1     -22.026   1.143 -36.990  0.00  0.00    -0.320 N 
ATOM      9  C   UNK d   1     -20.936   1.594 -36.475  0.00  0.00     0.148 C 
ENDROOT
BRANCH   8  10
ATOM     10  C   UNK d   1     -22.133   0.503 -38.253  0.00  0.00     0.072 A 
ATOM     11  C   UNK d   1     -22.118   1.318 -39.378  0.00  0.00     0.095 A 
ATOM     12  C   UNK d   1     -22.244   0.764 -40.655  0.00  0.00     0.042 A 
ATOM     13  C   UNK d   1     -22.389  -0.605 -40.797  0.00  0.00     0.039 A 
ATOM     14  C   UNK d   1     -22.408  -1.441 -39.707  0.00  0.00     0.070 A 
ATOM     15  C   UNK d   1     -22.275  -0.821 -38.449  0.00  0.00     0.069 A 
BRANCH  11  16
ATOM     16  O   UNK d   1     -21.977   2.681 -39.231  0.00  0.00    -0.354 OA
ATOM     17  C   UNK d   1     -23.009   3.626 -39.391  0.00  0.00     0.210 C 
ENDBRANCH  11  16
BRANCH  14  18
ATOM     18  O   UNK d   1     -22.549  -2.816 -39.782  0.00  0.00    -0.356 OA
ATOM     19  C   UNK d   1     -23.692  -3.545 -39.440  0.00  0.00     0.210 C 
ENDBRANCH  14  18
ENDBRANCH   8  10
BRANCH   6  20
ATOM     20  O   UNK d   1     -23.009   2.217 -33.782  0.00  0.00    -0.365 OA
ATOM     21  H   UNK d   1     -22.385   2.849 -33.357  0.00  0.00     0.213 HD
ENDBRANCH   6  20
BRANCH   6  22
ATOM     22  C   UNK d   1     -22.179   0.036 -34.232  0.00  0.00    -0.002 A 
ATOM     23  C   UNK d   1     -22.904  -1.040 -34.637  0.00  0.00     0.013 A 
ATOM     24  C   UNK d   1     -22.696  -2.308 -34.092  0.00  0.00     0.020 A 
ATOM     25  C   UNK d   1     -21.744  -2.520 -33.117  0.00  0.00     0.011 A 
ATOM     26  C   UNK d   1     -21.012  -1.449 -32.704  0.00  0.00     0.020 A 
ATOM     27 Br   UNK d   1     -21.474  -4.267 -32.373  0.00  0.00    -0.051 Br
ATOM     28  C   UNK d   1     -21.216  -0.207 -33.237  0.00  0.00     0.013 A 
ENDBRANCH   6  22
TORSDOF 5
ENDMDL
