/Users/jonathanwahrer/Desktop/Msc/3_Semester/Drug_Design_Praktikum/waehrer_HTS_screening/HTS_experiment/out/docking_results/vina_output/5l4q/1219_docked.pdbqt
 OpenBabel03212218363D

 27 30  0  0  1  0  0  0  0  0999 V2000
  -18.7100    0.9120  -36.2260 S   0  0  0  0  0  0  0  0  0  0  0  0
  -18.0980    2.6470  -36.2350 C   0  0  0  0  0  2  0  0  0  0  0  0
  -19.2320    3.5700  -36.6470 C   0  0  0  0  0  2  0  0  0  0  0  0
  -19.9680    3.0240  -37.8430 C   0  0  0  0  0  2  0  0  0  0  0  0
  -20.9050    2.0300  -37.4250 N   0  0  2  0  0  0  0  0  0  0  0  0
  -22.2760    1.6710  -37.7360 C   0  0  1  0  0  0  0  0  0  0  0  0
  -22.7630    1.0330  -36.4470 C   0  0  0  0  0  2  0  0  0  0  0  0
  -21.5020    0.5070  -35.8890 N   0  0  0  0  0  0  0  0  0  0  0  0
  -20.5000    1.0720  -36.4340 C   0  0  1  0  0  3  0  0  0  0  0  0
  -23.0380    2.7640  -38.1000 O   0  0  0  0  0  0  0  0  0  0  0  0
  -23.8650    2.5720  -38.5640 H   0  0  0  0  0  0  0  0  0  0  0  0
  -22.3450    0.6460  -38.8050 C   0  0  0  0  0  0  0  0  0  0  0  0
  -22.8750   -0.5990  -38.5270 C   0  0  0  0  0  3  0  0  0  0  0  0
  -22.9210   -1.5320  -39.5630 C   0  0  0  0  0  0  0  0  0  0  0  0
  -22.4590   -1.2290  -40.8080 C   0  0  0  0  0  3  0  0  0  0  0  0
  -21.9270    0.0140  -41.1000 C   0  0  0  0  0  3  0  0  0  0  0  0
  -21.8840    0.9460  -40.0560 C   0  0  0  0  0  3  0  0  0  0  0  0
  -23.4640   -2.8130  -39.2880 N   0  0  0  0  0  0  0  0  0  0  0  0
  -23.3390   -3.7640  -40.0830 O   0  0  0  0  0  0  0  0  0  0  0  0
  -24.1510   -3.0580  -38.1330 O   0  0  0  0  0  0  0  0  0  0  0  0
  -21.4330   -0.4830  -34.8660 C   0  0  0  0  0  0  0  0  0  0  0  0
  -20.6960   -0.4100  -33.7210 C   0  0  0  0  0  3  0  0  0  0  0  0
  -20.6900   -1.4070  -32.7550 C   0  0  0  0  0  3  0  0  0  0  0  0
  -21.4580   -2.5390  -32.9390 C   0  0  0  0  0  0  0  0  0  0  0  0
  -22.2220   -2.6490  -34.0950 C   0  0  0  0  0  3  0  0  0  0  0  0
  -21.5120   -3.9690  -31.6690 Br  0  0  0  0  0  0  0  0  0  0  0  0
  -22.2110   -1.6370  -35.0470 C   0  0  0  0  0  3  0  0  0  0  0  0
  2  1  1  0  0  0  0
  3  2  1  0  0  0  0
  4  3  1  0  0  0  0
  5  4  1  1  0  0  0
  5  9  1  0  0  0  0
  6 10  1  6  0  0  0
  6  5  1  0  0  0  0
  6  7  1  0  0  0  0
  7  8  1  0  0  0  0
  8 21  1  0  0  0  0
  9  1  1  6  0  0  0
  9  8  1  0  0  0  0
 11 10  1  0  0  0  0
 12 13  1  0  0  0  0
 12  6  1  0  0  0  0
 14 18  1  0  0  0  0
 14 13  2  0  0  0  0
 15 14  1  0  0  0  0
 16 15  2  0  0  0  0
 16 17  1  0  0  0  0
 17 12  2  0  0  0  0
 18 20  2  0  0  0  0
 19 18  2  0  0  0  0
 21 22  1  0  0  0  0
 22 23  2  0  0  0  0
 24 23  1  0  0  0  0
 24 26  1  0  0  0  0
 25 24  2  0  0  0  0
 27 21  2  0  0  0  0
 27 25  1  0  0  0  0
M  END
>  <Pose>
1

>  <Score>
-7.948

$$$$
