MODEL 1
REMARK VINA RESULT:    -7.948      0.000      0.000
REMARK INTER + INTRA:         -10.122
REMARK INTER:                  -9.574
REMARK INTRA:                  -0.548
REMARK UNBOUND:                -0.548
REMARK  4 active torsions:
REMARK  status: ('A' for Active; 'I' for Inactive)
REMARK    1  A    between atoms: C_6  and  O_17 
REMARK    2  A    between atoms: C_6  and  C_18 
REMARK    3  A    between atoms: N_8  and  C_10 
REMARK    4  A    between atoms: C_20  and  N_24 
ROOT
ATOM      1  S   UNK d   1     -18.710   0.912 -36.226  0.00  0.00    -0.094 SA
ATOM      2  C   UNK d   1     -18.098   2.647 -36.235  0.00  0.00     0.084 C 
ATOM      3  C   UNK d   1     -19.232   3.570 -36.647  0.00  0.00     0.030 C 
ATOM      4  C   UNK d   1     -19.968   3.024 -37.843  0.00  0.00     0.129 C 
ATOM      5  N   UNK d   1     -20.905   2.030 -37.425  0.00  0.00    -0.324 N 
ATOM      6  C   UNK d   1     -22.276   1.671 -37.736  0.00  0.00     0.181 C 
ATOM      7  C   UNK d   1     -22.763   1.033 -36.447  0.00  0.00     0.198 C 
ATOM      8  N   UNK d   1     -21.502   0.507 -35.889  0.00  0.00    -0.323 N 
ATOM      9  C   UNK d   1     -20.500   1.072 -36.434  0.00  0.00     0.147 C 
ENDROOT
BRANCH   6  10
ATOM     10  O   UNK d   1     -23.038   2.764 -38.100  0.00  0.00    -0.365 OA
ATOM     11  H   UNK d   1     -23.865   2.572 -38.564  0.00  0.00     0.213 HD
ENDBRANCH   6  10
BRANCH   6  12
ATOM     12  C   UNK d   1     -22.345   0.646 -38.805  0.00  0.00     0.001 A 
ATOM     13  C   UNK d   1     -22.875  -0.599 -38.527  0.00  0.00     0.048 A 
ATOM     14  C   UNK d   1     -22.921  -1.532 -39.563  0.00  0.00     0.103 A 
ATOM     15  C   UNK d   1     -22.459  -1.229 -40.808  0.00  0.00     0.036 A 
ATOM     16  C   UNK d   1     -21.927   0.014 -41.100  0.00  0.00     0.003 A 
ATOM     17  C   UNK d   1     -21.884   0.946 -40.056  0.00  0.00     0.012 A 
BRANCH  14  18
ATOM     18  N   UNK d   1     -23.464  -2.813 -39.288  0.00  0.00    -0.116 N 
ATOM     19  O   UNK d   1     -23.339  -3.764 -40.083  0.00  0.00    -0.532 OA
ATOM     20  O   UNK d   1     -24.151  -3.058 -38.133  0.00  0.00    -0.532 OA
ENDBRANCH  14  18
ENDBRANCH   6  12
BRANCH   8  21
ATOM     21  C   UNK d   1     -21.433  -0.483 -34.866  0.00  0.00     0.036 A 
ATOM     22  C   UNK d   1     -20.696  -0.410 -33.721  0.00  0.00     0.031 A 
ATOM     23  C   UNK d   1     -20.690  -1.407 -32.755  0.00  0.00     0.021 A 
ATOM     24  C   UNK d   1     -21.458  -2.539 -32.939  0.00  0.00     0.011 A 
ATOM     25  C   UNK d   1     -22.222  -2.649 -34.095  0.00  0.00     0.021 A 
ATOM     26 Br   UNK d   1     -21.512  -3.969 -31.669  0.00  0.00    -0.051 Br
ATOM     27  C   UNK d   1     -22.211  -1.637 -35.047  0.00  0.00     0.031 A 
ENDBRANCH   8  21
TORSDOF 4
ENDMDL
