MODEL 1
REMARK VINA RESULT:    -7.852      0.000      0.000
REMARK INTER + INTRA:         -10.192
REMARK INTER:                  -9.458
REMARK INTRA:                  -0.733
REMARK UNBOUND:                -0.733
REMARK  4 active torsions:
REMARK  status: ('A' for Active; 'I' for Inactive)
REMARK    1  A    between atoms: C_6  and  O_17 
REMARK    2  A    between atoms: C_6  and  C_18 
REMARK    3  A    between atoms: N_8  and  C_10 
REMARK    4  A    between atoms: C_21  and  N_24 
ROOT
ATOM      1  S   UNK d   1     -21.734  -3.775 -33.267  0.00  0.00    -0.094 SA
ATOM      2  C   UNK d   1     -22.498  -4.535 -31.778  0.00  0.00     0.084 C 
ATOM      3  C   UNK d   1     -21.891  -4.090 -30.514  0.00  0.00     0.030 C 
ATOM      4  C   UNK d   1     -20.633  -3.322 -30.542  0.00  0.00     0.129 C 
ATOM      5  N   UNK d   1     -20.540  -2.222 -31.410  0.00  0.00    -0.324 N 
ATOM      6  C   UNK d   1     -19.806  -0.993 -31.390  0.00  0.00     0.181 C 
ATOM      7  C   UNK d   1     -20.786  -0.070 -32.081  0.00  0.00     0.198 C 
ATOM      8  N   UNK d   1     -21.399  -0.959 -33.044  0.00  0.00    -0.323 N 
ATOM      9  C   UNK d   1     -21.267  -2.142 -32.663  0.00  0.00     0.147 C 
ENDROOT
BRANCH   6  10
ATOM     10  O   UNK d   1     -18.703  -1.103 -32.241  0.00  0.00    -0.365 OA
ATOM     11  H   UNK d   1     -18.706  -1.984 -32.650  0.00  0.00     0.213 HD
ENDBRANCH   6  10
BRANCH   6  12
ATOM     12  C   UNK d   1     -19.418  -0.486 -30.060  0.00  0.00    -0.001 A 
ATOM     13  C   UNK d   1     -20.340   0.313 -29.391  0.00  0.00     0.014 A 
ATOM     14  C   UNK d   1     -20.071   0.831 -28.143  0.00  0.00     0.037 A 
ATOM     15  C   UNK d   1     -18.874   0.582 -27.494  0.00  0.00     0.102 A 
ATOM     16  C   UNK d   1     -17.957  -0.213 -28.154  0.00  0.00     0.037 A 
ATOM     17  C   UNK d   1     -18.232  -0.737 -29.421  0.00  0.00     0.014 A 
BRANCH  15  18
ATOM     18  N   UNK d   1     -18.624   1.124 -26.211  0.00  0.00    -0.116 N 
ATOM     19  O   UNK d   1     -18.623   2.337 -25.969  0.00  0.00    -0.532 OA
ATOM     20  O   UNK d   1     -18.370   0.271 -25.168  0.00  0.00    -0.532 OA
ENDBRANCH  15  18
ENDBRANCH   6  12
BRANCH   8  21
ATOM     21  C   UNK d   1     -22.040  -0.541 -34.255  0.00  0.00     0.036 A 
ATOM     22  C   UNK d   1     -23.399  -0.264 -34.222  0.00  0.00     0.031 A 
ATOM     23  C   UNK d   1     -24.093   0.128 -35.365  0.00  0.00     0.021 A 
ATOM     24  C   UNK d   1     -23.443   0.250 -36.573  0.00  0.00     0.011 A 
ATOM     25  C   UNK d   1     -22.097  -0.021 -36.621  0.00  0.00     0.021 A 
ATOM     26 Br   UNK d   1     -24.411   0.775 -38.150  0.00  0.00    -0.051 Br
ATOM     27  C   UNK d   1     -21.426  -0.414 -35.456  0.00  0.00     0.031 A 
ENDBRANCH   8  21
TORSDOF 4
ENDMDL
