MODEL 1
REMARK VINA RESULT:    -7.500      0.000      0.000
REMARK INTER + INTRA:          -9.208
REMARK INTER:                  -8.596
REMARK INTRA:                  -0.612
REMARK UNBOUND:                -0.612
REMARK  3 active torsions:
REMARK  status: ('A' for Active; 'I' for Inactive)
REMARK    1  A    between atoms: C_6  and  O_17 
REMARK    2  A    between atoms: C_6  and  C_18 
REMARK    3  A    between atoms: N_8  and  C_10 
ROOT
ATOM      1  S   UNK d   1     -19.954   0.703 -37.288  0.00  0.00    -0.094 SA
ATOM      2  C   UNK d   1     -19.605   2.495 -37.585  0.00  0.00     0.084 C 
ATOM      3  C   UNK d   1     -20.836   3.186 -38.112  0.00  0.00     0.030 C 
ATOM      4  C   UNK d   1     -21.762   2.277 -38.891  0.00  0.00     0.129 C 
ATOM      5  N   UNK d   1     -22.463   1.345 -38.097  0.00  0.00    -0.324 N 
ATOM      6  C   UNK d   1     -23.784   0.700 -37.995  0.00  0.00     0.181 C 
ATOM      7  C   UNK d   1     -23.875   0.660 -36.488  0.00  0.00     0.198 C 
ATOM      8  N   UNK d   1     -22.524   0.254 -36.129  0.00  0.00    -0.323 N 
ATOM      9  C   UNK d   1     -21.753   0.718 -36.994  0.00  0.00     0.147 C 
ENDROOT
BRANCH   6  10
ATOM     10  O   UNK d   1     -24.791   1.452 -38.518  0.00  0.00    -0.365 OA
ATOM     11  H   UNK d   1     -25.701   1.073 -38.445  0.00  0.00     0.213 HD
ENDBRANCH   6  10
BRANCH   6  12
ATOM     12  C   UNK d   1     -23.731  -0.700 -38.531  0.00  0.00    -0.002 A 
ATOM     13  C   UNK d   1     -22.952  -1.060 -39.614  0.00  0.00     0.012 A 
ATOM     14  C   UNK d   1     -22.956  -2.381 -40.042  0.00  0.00     0.001 A 
ATOM     15  C   UNK d   1     -23.712  -3.369 -39.425  0.00  0.00     0.000 A 
ATOM     16  C   UNK d   1     -24.485  -3.020 -38.351  0.00  0.00     0.001 A 
ATOM     17  C   UNK d   1     -24.487  -1.694 -37.921  0.00  0.00     0.012 A 
ENDBRANCH   6  12
BRANCH   8  18
ATOM     18  C   UNK d   1     -22.174  -0.589 -35.011  0.00  0.00     0.036 A 
ATOM     19  C   UNK d   1     -21.437  -0.201 -33.936  0.00  0.00     0.031 A 
ATOM     20  C   UNK d   1     -21.082  -1.058 -32.902  0.00  0.00     0.021 A 
ATOM     21  C   UNK d   1     -21.482  -2.368 -32.944  0.00  0.00     0.011 A 
ATOM     22  C   UNK d   1     -22.232  -2.766 -34.033  0.00  0.00     0.021 A 
ATOM     23 Br   UNK d   1     -21.036  -3.626 -31.564  0.00  0.00    -0.051 Br
ATOM     24  C   UNK d   1     -22.580  -1.921 -35.050  0.00  0.00     0.031 A 
ENDBRANCH   8  18
TORSDOF 3
ENDMDL
