MODEL 1
REMARK VINA RESULT:    -7.229      0.000      0.000
REMARK INTER + INTRA:          -8.964
REMARK INTER:                  -8.285
REMARK INTRA:                  -0.678
REMARK UNBOUND:                -0.678
REMARK  3 active torsions:
REMARK  status: ('A' for Active; 'I' for Inactive)
REMARK    1  A    between atoms: C_6  and  O_16 
REMARK    2  A    between atoms: C_6  and  C_17 
REMARK    3  A    between atoms: N_8  and  C_10 
ROOT
ATOM      1  S   UNK d   1     -22.207   1.769 -34.782  0.00  0.00    -0.094 SA
ATOM      2  C   UNK d   1     -23.515   0.630 -35.316  0.00  0.00     0.084 C 
ATOM      3  C   UNK d   1     -22.865  -0.754 -35.403  0.00  0.00     0.030 C 
ATOM      4  C   UNK d   1     -22.456  -1.172 -33.982  0.00  0.00     0.129 C 
ATOM      5  N   UNK d   1     -21.149  -0.568 -33.698  0.00  0.00    -0.324 N 
ATOM      6  C   UNK d   1     -19.979  -1.045 -33.081  0.00  0.00     0.181 C 
ATOM      7  C   UNK d   1     -18.905  -0.026 -33.444  0.00  0.00     0.198 C 
ATOM      8  N   UNK d   1     -19.632   1.061 -34.024  0.00  0.00    -0.323 N 
ATOM      9  C   UNK d   1     -20.861   0.756 -34.125  0.00  0.00     0.147 C 
ENDROOT
BRANCH   6  10
ATOM     10  O   UNK d   1     -19.580  -2.249 -33.704  0.00  0.00    -0.365 OA
ATOM     11  H   UNK d   1     -18.818  -2.596 -33.169  0.00  0.00     0.213 HD
ENDBRANCH   6  10
BRANCH   6  12
ATOM     12  C   UNK d   1     -19.969  -1.247 -31.633  0.00  0.00    -0.002 A 
ATOM     13  C   UNK d   1     -20.377  -2.501 -31.182  0.00  0.00     0.013 A 
ATOM     14  C   UNK d   1     -20.395  -2.868 -29.849  0.00  0.00     0.020 A 
ATOM     15  C   UNK d   1     -20.000  -1.974 -28.893  0.00  0.00     0.011 A 
ATOM     16  C   UNK d   1     -19.591  -0.724 -29.320  0.00  0.00     0.020 A 
ATOM     17 Br   UNK d   1     -19.989  -2.426 -27.017  0.00  0.00    -0.051 Br
ATOM     18  C   UNK d   1     -19.576  -0.368 -30.666  0.00  0.00     0.013 A 
ENDBRANCH   6  12
BRANCH   8  19
ATOM     19  C   UNK d   1     -18.986   2.271 -34.453  0.00  0.00     0.036 A 
ATOM     20  C   UNK d   1     -18.813   3.279 -33.561  0.00  0.00     0.029 A 
ATOM     21  C   UNK d   1     -18.159   4.428 -33.995  0.00  0.00     0.002 A 
ATOM     22  C   UNK d   1     -17.685   4.578 -35.278  0.00  0.00     0.000 A 
ATOM     23  C   UNK d   1     -17.886   3.527 -36.149  0.00  0.00     0.002 A 
ATOM     24  C   UNK d   1     -18.529   2.379 -35.755  0.00  0.00     0.029 A 
ENDBRANCH   8  19
TORSDOF 3
ENDMDL
