MODEL 1
REMARK VINA RESULT:    -8.811      0.000      0.000
REMARK INTER + INTRA:         -14.765
REMARK INTER:                 -13.189
REMARK INTRA:                  -1.576
REMARK UNBOUND:                -1.576
REMARK  9 active torsions:
REMARK  status: ('A' for Active; 'I' for Inactive)
REMARK    1  A    between atoms: C_5  and  S_6 
REMARK    2  A    between atoms: S_6  and  C_7 
REMARK    3  A    between atoms: C_7  and  C_8 
REMARK    4  A    between atoms: N_9  and  C_28 
REMARK    5  A    between atoms: C_12  and  C_13 
REMARK       I    between atoms: C_13  and  N_15 
REMARK    6  A    between atoms: N_15  and  N_16 
REMARK    7  A    between atoms: C_17  and  C_18 
REMARK    8  A    between atoms: C_22  and  O_24 
REMARK    9  A    between atoms: C_32  and  N_33 
ROOT
ATOM      1  C   UNK d   1     -23.292  -0.252 -35.343  0.00  0.00     0.086 A 
ATOM      2  N   UNK d   1     -23.680  -0.422 -36.613  0.00  0.00    -0.192 N 
ATOM      3  N   UNK d   1     -23.317  -1.676 -36.936  0.00  0.00    -0.058 NA
ATOM      4  N   UNK d   1     -22.743  -2.264 -35.948  0.00  0.00    -0.124 NA
ATOM      5  C   UNK d   1     -22.680  -1.414 -34.860  0.00  0.00     0.175 A 
ENDROOT
BRANCH   5   6
ATOM      6  C   UNK d   1     -22.108  -1.776 -33.590  0.00  0.00     0.294 C 
ATOM      7  O   UNK d   1     -22.449  -2.928 -33.109  0.00  0.00    -0.264 OA
ATOM      8  N   UNK d   1     -21.227  -1.048 -32.796  0.00  0.00    -0.242 N 
ATOM      9  H   UNK d   1     -20.826  -0.111 -32.967  0.00  0.00     0.192 HD
BRANCH   8  10
ATOM     10  N   UNK d   1     -20.767  -1.599 -31.550  0.00  0.00    -0.183 NA
ATOM     11  C   UNK d   1     -20.591  -0.874 -30.517  0.00  0.00     0.150 C 
BRANCH  11  12
ATOM     12  C   UNK d   1     -20.128  -1.392 -29.237  0.00  0.00    -0.013 A 
ATOM     13  C   UNK d   1     -19.507  -0.585 -28.311  0.00  0.00     0.035 A 
ATOM     14  C   UNK d   1     -19.069  -1.059 -27.092  0.00  0.00     0.051 A 
ATOM     15  C   UNK d   1     -19.236  -2.376 -26.749  0.00  0.00     0.157 A 
ATOM     16 Br   UNK d   1     -18.212   0.102 -25.839  0.00  0.00    -0.048 Br
ATOM     17  C   UNK d   1     -19.865  -3.229 -27.669  0.00  0.00     0.106 A 
ATOM     18  O   UNK d   1     -18.787  -2.832 -25.518  0.00  0.00    -0.188 OA
ATOM     19  C   UNK d   1     -20.292  -2.724 -28.879  0.00  0.00     0.052 A 
BRANCH  17  20
ATOM     20  O   UNK d   1     -20.000  -4.535 -27.262  0.00  0.00    -0.353 OA
ATOM     21  C   UNK d   1     -20.350  -5.621 -28.084  0.00  0.00     0.210 C 
ENDBRANCH  17  20
ENDBRANCH  11  12
ENDBRANCH   8  10
ENDBRANCH   5   6
BRANCH   1  22
ATOM     22  C   UNK d   1     -23.481   0.946 -34.510  0.00  0.00     0.143 C 
BRANCH  22  23
ATOM     23  S   UNK d   1     -22.240   2.218 -34.620  0.00  0.00    -0.098 SA
BRANCH  23  24
ATOM     24  C   UNK d   1     -20.722   1.641 -35.369  0.00  0.00     0.125 C 
ATOM     25  S   UNK d   1     -19.148   1.693 -34.511  0.00  0.00    -0.102 SA
ATOM     26  C   UNK d   1     -18.144   1.191 -35.943  0.00  0.00     0.103 C 
ATOM     27  C   UNK d   1     -19.231   0.765 -36.877  0.00  0.00     0.161 C 
ATOM     28  N   UNK d   1     -20.488   1.153 -36.482  0.00  0.00    -0.275 NA
ENDBRANCH  23  24
ENDBRANCH  22  23
ENDBRANCH   1  22
BRANCH   2  29
ATOM     29  C   UNK d   1     -24.364   0.430 -37.529  0.00  0.00     0.237 A 
ATOM     30  N   UNK d   1     -25.694   0.605 -37.676  0.00  0.00    -0.081 NA
ATOM     31  O   UNK d   1     -25.970   1.469 -38.580  0.00  0.00    -0.103 OA
ATOM     32  N   UNK d   1     -24.853   1.905 -39.071  0.00  0.00    -0.075 NA
ATOM     33  C   UNK d   1     -23.804   1.290 -38.449  0.00  0.00     0.300 A 
BRANCH  33  34
ATOM     34  N   UNK d   1     -22.430   1.515 -38.696  0.00  0.00    -0.026 N 
ATOM     35  H   UNK d   1     -21.888   0.722 -38.263  0.00  0.00     0.283 HD
ATOM     36  H   UNK d   1     -22.073   2.423 -38.351  0.00  0.00     0.283 HD
ATOM     37  H   UNK d   1     -22.257   1.452 -39.736  0.00  0.00     0.283 HD
ENDBRANCH  33  34
ENDBRANCH   2  29
TORSDOF 9
ENDMDL
