/Users/jonathanwahrer/Desktop/Msc/3_Semester/Drug_Design_Praktikum/waehrer_HTS_screening/HTS_experiment/out/docking_results/vina_output/5l4q/1236_docked.pdbqt
 OpenBabel03212218373D

 30 34  0  0  1  0  0  0  0  0999 V2000
  -21.7550    0.3910  -36.2070 C   0  0  2  0  0  3  0  0  0  0  0  0
  -22.8760    0.0200  -35.3020 C   0  0  1  0  0  3  0  0  0  0  0  0
  -23.1130   -1.4410  -35.4620 C   0  0  0  0  0  0  0  0  0  0  0  0
  -22.2160   -2.3320  -34.7690 N   0  0  0  0  0  0  0  0  0  0  0  0
  -24.0630   -1.8450  -36.1760 O   0  0  0  0  0  0  0  0  0  0  0  0
  -21.5440   -1.9750  -33.7590 C   0  0  0  0  0  0  0  0  0  0  0  0
  -20.3780   -2.8210  -32.7110 S   0  0  0  0  0  0  0  0  0  0  0  0
  -21.6560   -0.6740  -33.2280 N   0  0  0  0  0  0  0  0  0  0  0  0
  -20.6100   -1.6560  -31.2840 C   0  0  0  0  0  2  0  0  0  0  0  0
  -20.8140   -0.4030  -32.0980 C   0  0  0  0  0  2  0  0  0  0  0  0
  -22.5700    0.2520  -33.8720 C   0  0  0  0  0  0  0  0  0  0  0  0
  -23.0410    1.1850  -33.1780 O   0  0  0  0  0  0  0  0  0  0  0  0
  -20.9190    1.5420  -35.7040 C   0  0  2  0  0  3  0  0  0  0  0  0
  -21.4500    2.8720  -36.0430 C   0  0  0  0  0  0  0  0  0  0  0  0
  -22.4470    3.3460  -35.3920 O   0  0  0  0  0  0  0  0  0  0  0  0
  -20.8520    3.6470  -37.1120 N   0  0  0  0  0  0  0  0  0  0  0  0
  -21.3910    4.8360  -37.7130 C   0  0  0  0  0  2  0  0  0  0  0  0
  -19.6020    3.2360  -37.6230 C   0  0  0  0  0  0  0  0  0  0  0  0
  -20.9760    4.9390  -39.1590 C   0  0  0  0  0  2  0  0  0  0  0  0
  -19.2170    4.4030  -38.9260 S   0  0  0  0  0  0  0  0  0  0  0  0
  -18.9750    2.2150  -37.1820 N   0  0  0  0  0  0  0  0  0  0  0  0
  -19.5030    1.3980  -36.1250 C   0  0  0  0  0  0  0  0  0  0  0  0
  -18.7290    0.5720  -35.5790 O   0  0  0  0  0  0  0  0  0  0  0  0
  -22.2920    0.6410  -37.5640 C   0  0  0  0  0  0  0  0  0  0  0  0
  -21.5770    0.2630  -38.6940 C   0  0  0  0  0  3  0  0  0  0  0  0
  -22.0690    0.4880  -39.9620 C   0  0  0  0  0  0  0  0  0  0  0  0
  -23.2920    1.0960  -40.1370 C   0  0  0  0  0  3  0  0  0  0  0  0
  -21.0940   -0.0280  -41.5200 Br  0  0  0  0  0  0  0  0  0  0  0  0
  -23.9910    1.4660  -39.0290 C   0  0  0  0  0  3  0  0  0  0  0  0
  -23.5120    1.2480  -37.7530 C   0  0  0  0  0  3  0  0  0  0  0  0
  1 24  1  6  0  0  0
  2  1  1  6  0  0  0
  2 11  1  0  0  0  0
  3  2  1  0  0  0  0
  3  4  1  0  0  0  0
  4  6  2  0  0  0  0
  5  3  2  0  0  0  0
  6  8  1  0  0  0  0
  6  7  1  0  0  0  0
  7  9  1  0  0  0  0
  8 10  1  0  0  0  0
 10  9  1  0  0  0  0
 11  8  1  0  0  0  0
 11 12  2  0  0  0  0
 13  1  1  6  0  0  0
 14 13  1  0  0  0  0
 14 15  2  0  0  0  0
 16 14  1  0  0  0  0
 17 16  1  0  0  0  0
 18 21  2  0  0  0  0
 18 16  1  0  0  0  0
 19 20  1  0  0  0  0
 19 17  1  0  0  0  0
 20 18  1  0  0  0  0
 21 22  1  0  0  0  0
 22 13  1  0  0  0  0
 22 23  2  0  0  0  0
 25 24  2  0  0  0  0
 26 25  1  0  0  0  0
 27 26  2  0  0  0  0
 27 29  1  0  0  0  0
 28 26  1  0  0  0  0
 29 30  2  0  0  0  0
 30 24  1  0  0  0  0
M  END
>  <Pose>
1

>  <Score>
-7.177

$$$$
