MODEL 1
REMARK VINA RESULT:    -7.177      0.000      0.000
REMARK INTER + INTRA:          -9.246
REMARK INTER:                  -8.436
REMARK INTRA:                  -0.810
REMARK UNBOUND:                -0.810
REMARK  3 active torsions:
REMARK  status: ('A' for Active; 'I' for Inactive)
REMARK    1  A    between atoms: C_9  and  C_12 
REMARK    2  A    between atoms: C_12  and  C_13 
REMARK    3  A    between atoms: C_12  and  C_24 
ROOT
ATOM      1  C   UNK d   1     -21.755   0.391 -36.207  0.00  0.00     0.063 C 
ENDROOT
BRANCH   1   2
ATOM      2  C   UNK d   1     -22.876   0.020 -35.302  0.00  0.00     0.182 C 
ATOM      3  C   UNK d   1     -23.113  -1.441 -35.462  0.00  0.00     0.259 C 
ATOM      4  N   UNK d   1     -22.216  -2.332 -34.769  0.00  0.00    -0.188 NA
ATOM      5  O   UNK d   1     -24.063  -1.845 -36.176  0.00  0.00    -0.270 OA
ATOM      6  C   UNK d   1     -21.544  -1.975 -33.759  0.00  0.00     0.174 C 
ATOM      7  S   UNK d   1     -20.378  -2.821 -32.711  0.00  0.00    -0.090 SA
ATOM      8  N   UNK d   1     -21.656  -0.674 -33.228  0.00  0.00    -0.295 N 
ATOM      9  C   UNK d   1     -20.610  -1.656 -31.284  0.00  0.00     0.103 C 
ATOM     10  C   UNK d   1     -20.814  -0.403 -32.098  0.00  0.00     0.144 C 
ATOM     11  C   UNK d   1     -22.570   0.252 -33.872  0.00  0.00     0.239 C 
ATOM     12  O   UNK d   1     -23.041   1.185 -33.178  0.00  0.00    -0.272 OA
ENDBRANCH   1   2
BRANCH   1  13
ATOM     13  C   UNK d   1     -20.919   1.542 -35.704  0.00  0.00     0.182 C 
ATOM     14  C   UNK d   1     -21.450   2.872 -36.043  0.00  0.00     0.239 C 
ATOM     15  O   UNK d   1     -22.447   3.346 -35.392  0.00  0.00    -0.272 OA
ATOM     16  N   UNK d   1     -20.852   3.647 -37.112  0.00  0.00    -0.295 N 
ATOM     17  C   UNK d   1     -21.391   4.836 -37.713  0.00  0.00     0.144 C 
ATOM     18  C   UNK d   1     -19.602   3.236 -37.623  0.00  0.00     0.174 C 
ATOM     19  C   UNK d   1     -20.976   4.939 -39.159  0.00  0.00     0.103 C 
ATOM     20  S   UNK d   1     -19.217   4.403 -38.926  0.00  0.00    -0.090 SA
ATOM     21  N   UNK d   1     -18.975   2.215 -37.182  0.00  0.00    -0.188 NA
ATOM     22  C   UNK d   1     -19.503   1.398 -36.125  0.00  0.00     0.259 C 
ATOM     23  O   UNK d   1     -18.729   0.572 -35.579  0.00  0.00    -0.270 OA
ENDBRANCH   1  13
BRANCH   1  24
ATOM     24  C   UNK d   1     -22.292   0.641 -37.564  0.00  0.00    -0.050 A 
ATOM     25  C   UNK d   1     -21.577   0.263 -38.694  0.00  0.00     0.026 A 
ATOM     26  C   UNK d   1     -22.069   0.488 -39.962  0.00  0.00     0.011 A 
ATOM     27  C   UNK d   1     -23.292   1.096 -40.137  0.00  0.00     0.019 A 
ATOM     28 Br   UNK d   1     -21.094  -0.028 -41.520  0.00  0.00    -0.051 Br
ATOM     29  C   UNK d   1     -23.991   1.466 -39.029  0.00  0.00     0.002 A 
ATOM     30  C   UNK d   1     -23.512   1.248 -37.753  0.00  0.00     0.007 A 
ENDBRANCH   1  24
TORSDOF 3
ENDMDL
