MODEL 1
REMARK VINA RESULT:    -8.631      0.000      0.000
REMARK INTER + INTRA:         -10.628
REMARK INTER:                 -10.145
REMARK INTRA:                  -0.483
REMARK UNBOUND:                -0.483
REMARK  3 active torsions:
REMARK  status: ('A' for Active; 'I' for Inactive)
REMARK    1  A    between atoms: C_9  and  C_12 
REMARK    2  A    between atoms: C_12  and  C_13 
REMARK    3  A    between atoms: C_12  and  C_24 
ROOT
ATOM      1  C   UNK d   1     -22.869  -0.475 -36.542  0.00  0.00     0.063 C 
ENDROOT
BRANCH   1   2
ATOM      2  C   UNK d   1     -23.808  -0.562 -37.670  0.00  0.00     0.182 C 
ATOM      3  C   UNK d   1     -24.577   0.556 -38.139  0.00  0.00     0.259 C 
ATOM      4  N   UNK d   1     -23.991   1.369 -39.193  0.00  0.00    -0.188 NA
ATOM      5  O   UNK d   1     -25.711   0.959 -37.782  0.00  0.00    -0.270 OA
ATOM      6  C   UNK d   1     -23.119   0.863 -40.006  0.00  0.00     0.174 C 
ATOM      7  S   UNK d   1     -22.219   1.594 -41.399  0.00  0.00    -0.090 SA
ATOM      8  N   UNK d   1     -22.636  -0.460 -39.929  0.00  0.00    -0.295 N 
ATOM      9  C   UNK d   1     -20.896   0.306 -41.411  0.00  0.00     0.103 C 
ATOM     10  C   UNK d   1     -21.699  -0.854 -40.912  0.00  0.00     0.144 C 
ATOM     11  C   UNK d   1     -23.179  -1.260 -38.854  0.00  0.00     0.239 C 
ATOM     12  O   UNK d   1     -23.123  -2.501 -38.914  0.00  0.00    -0.272 OA
ENDBRANCH   1   2
BRANCH   1  13
ATOM     13  C   UNK d   1     -23.309  -0.640 -35.150  0.00  0.00     0.182 C 
ATOM     14  C   UNK d   1     -22.418  -1.708 -34.515  0.00  0.00     0.239 C 
ATOM     15  O   UNK d   1     -22.632  -2.919 -34.750  0.00  0.00    -0.272 OA
ATOM     16  N   UNK d   1     -21.330  -1.320 -33.645  0.00  0.00    -0.295 N 
ATOM     17  C   UNK d   1     -20.221  -2.113 -33.240  0.00  0.00     0.144 C 
ATOM     18  C   UNK d   1     -21.369  -0.008 -33.112  0.00  0.00     0.174 C 
ATOM     19  C   UNK d   1     -19.005  -1.262 -32.971  0.00  0.00     0.103 C 
ATOM     20  S   UNK d   1     -19.885   0.140 -32.134  0.00  0.00    -0.090 SA
ATOM     21  N   UNK d   1     -22.297   0.832 -33.350  0.00  0.00    -0.188 NA
ATOM     22  C   UNK d   1     -23.406   0.453 -34.221  0.00  0.00     0.259 C 
ATOM     23  O   UNK d   1     -24.433   1.142 -34.091  0.00  0.00    -0.270 OA
ENDBRANCH   1  13
BRANCH   1  24
ATOM     24  C   UNK d   1     -21.848   0.626 -36.724  0.00  0.00    -0.051 A 
ATOM     25  C   UNK d   1     -20.536   0.334 -37.012  0.00  0.00     0.009 A 
ATOM     26  C   UNK d   1     -19.638   1.360 -37.165  0.00  0.00     0.019 A 
ATOM     27  C   UNK d   1     -19.983   2.669 -37.046  0.00  0.00     0.011 A 
ATOM     28  C   UNK d   1     -21.286   2.993 -36.758  0.00  0.00     0.019 A 
ATOM     29 Br   UNK d   1     -18.720   4.097 -37.262  0.00  0.00    -0.051 Br
ATOM     30  C   UNK d   1     -22.199   1.950 -36.602  0.00  0.00     0.009 A 
ENDBRANCH   1  24
TORSDOF 3
ENDMDL
