/Users/jonathanwahrer/Desktop/Msc/3_Semester/Drug_Design_Praktikum/waehrer_HTS_screening/HTS_experiment/out/docking_results/vina_output/5l4q/1248_docked.pdbqt
 OpenBabel03212218373D

 21 24  0  0  0  0  0  0  0  0999 V2000
  -20.2690   -4.6550  -28.0280 S   0  0  0  0  0  0  0  0  0  0  0  0
  -19.5890   -3.7620  -26.7280 C   0  0  0  0  0  0  0  0  0  0  0  0
  -19.4010   -2.5740  -27.3020 N   0  0  0  0  0  0  0  0  0  0  0  0
  -18.8530   -1.8040  -26.3010 C   0  0  0  0  0  0  0  0  0  0  0  0
  -18.7340   -2.5340  -25.1930 N   0  0  0  0  0  0  0  0  0  0  0  0
  -19.1800   -3.7530  -25.4190 N   0  0  0  0  0  0  0  0  0  0  0  0
  -19.7300   -2.4150  -28.5190 N   0  0  0  0  0  0  0  0  0  0  0  0
  -20.2520   -3.4050  -29.2160 C   0  0  0  0  0  0  0  0  0  0  0  0
  -20.6990   -3.4480  -30.6130 C   0  0  0  0  0  0  0  0  0  0  0  0
  -21.1360   -4.5220  -31.2810 N   0  0  0  0  0  0  0  0  0  0  0  0
  -21.4530   -4.1620  -32.5350 N   0  0  0  0  0  0  0  0  0  0  0  0
  -21.2190   -2.8430  -32.6800 C   0  0  0  0  0  3  0  0  0  0  0  0
  -21.8200   -4.8140  -33.2650 H   0  0  0  0  0  0  0  0  0  0  0  0
  -20.7370   -2.3880  -31.4500 C   0  0  0  0  0  0  0  0  0  0  0  0
  -20.2510   -0.5980  -31.1100 Br  0  0  0  0  0  0  0  0  0  0  0  0
  -18.4510   -0.3870  -26.4160 C   0  0  0  0  0  0  0  0  0  0  0  0
  -18.4510    0.4250  -25.3430 N   0  0  0  0  0  0  0  0  0  0  0  0
  -18.0820    1.7200  -25.4620 C   0  0  0  0  0  3  0  0  0  0  0  0
  -17.7020    2.2230  -26.6760 C   0  0  0  0  0  3  0  0  0  0  0  0
  -17.7060    1.4050  -27.7300 N   0  0  0  0  0  0  0  0  0  0  0  0
  -18.0710    0.1080  -27.6400 C   0  0  0  0  0  3  0  0  0  0  0  0
  1  2  1  0  0  0  0
  2  6  2  0  0  0  0
  3  2  1  0  0  0  0
  3  4  1  0  0  0  0
  4  5  2  0  0  0  0
  6  5  1  0  0  0  0
  7  3  1  0  0  0  0
  8  7  2  0  0  0  0
  8  1  1  0  0  0  0
  9  8  1  0  0  0  0
 10  9  2  0  0  0  0
 11 10  1  0  0  0  0
 12 11  1  0  0  0  0
 12 14  2  0  0  0  0
 13 11  1  0  0  0  0
 14 15  1  0  0  0  0
 14  9  1  0  0  0  0
 16  4  1  0  0  0  0
 16 17  1  0  0  0  0
 18 17  2  0  0  0  0
 19 18  1  0  0  0  0
 20 21  1  0  0  0  0
 20 19  2  0  0  0  0
 21 16  2  0  0  0  0
M  END
>  <Pose>
1

>  <Score>
-8.042

$$$$
