MODEL 1
REMARK VINA RESULT:    -8.026      0.000      0.000
REMARK INTER + INTRA:          -9.898
REMARK INTER:                  -9.433
REMARK INTRA:                  -0.465
REMARK UNBOUND:                -0.465
REMARK  3 active torsions:
REMARK  status: ('A' for Active; 'I' for Inactive)
REMARK    1  A    between atoms: C_6  and  C_13 
REMARK    2  A    between atoms: C_13  and  C_14 
REMARK    3  A    between atoms: C_13  and  C_26 
ROOT
ATOM      1  C   UNK d   1     -21.564   0.421 -35.613  0.00  0.00     0.063 C 
ENDROOT
BRANCH   1   2
ATOM      2  C   UNK d   1     -23.041   0.671 -35.727  0.00  0.00     0.184 C 
ATOM      3  C   UNK d   1     -23.772  -0.627 -35.385  0.00  0.00     0.259 C 
ATOM      4  N   UNK d   1     -23.570  -1.732 -36.296  0.00  0.00    -0.186 NA
ATOM      5  O   UNK d   1     -24.472  -0.650 -34.374  0.00  0.00    -0.270 OA
ATOM      6  C   UNK d   1     -23.325  -1.494 -37.544  0.00  0.00     0.200 A 
ATOM      7  S   UNK d   1     -23.031  -2.604 -38.911  0.00  0.00    -0.032 SA
ATOM      8  N   UNK d   1     -23.254  -0.192 -38.084  0.00  0.00    -0.197 N 
ATOM      9  C   UNK d   1     -22.828  -1.317 -40.134  0.00  0.00     0.083 A 
ATOM     10  N   UNK d   1     -22.997  -0.108 -39.426  0.00  0.00    -0.283 N 
ATOM     11  C   UNK d   1     -22.572  -1.499 -41.426  0.00  0.00     0.052 C 
ATOM     12  H   UNK d   1     -22.926   0.825 -39.967  0.00  0.00     0.188 HD
ATOM     13  C   UNK d   1     -23.476   0.896 -37.141  0.00  0.00     0.259 C 
ATOM     14  O   UNK d   1     -24.018   1.968 -37.537  0.00  0.00    -0.270 OA
ENDBRANCH   1   2
BRANCH   1  15
ATOM     15  C   UNK d   1     -20.663   1.581 -35.765  0.00  0.00     0.184 C 
ATOM     16  C   UNK d   1     -21.076   2.654 -36.657  0.00  0.00     0.259 C 
ATOM     17  O   UNK d   1     -21.560   3.734 -36.177  0.00  0.00    -0.270 OA
ATOM     18  N   UNK d   1     -20.950   2.536 -38.098  0.00  0.00    -0.197 N 
ATOM     19  N   UNK d   1     -21.652   3.194 -39.056  0.00  0.00    -0.283 N 
ATOM     20  C   UNK d   1     -19.969   1.624 -38.538  0.00  0.00     0.200 A 
ATOM     21  C   UNK d   1     -21.335   2.908 -40.408  0.00  0.00     0.083 A 
ATOM     22  H   UNK d   1     -22.428   3.919 -38.869  0.00  0.00     0.188 HD
ATOM     23  C   UNK d   1     -21.850   3.402 -41.513  0.00  0.00     0.052 C 
ATOM     24  S   UNK d   1     -20.033   1.682 -40.319  0.00  0.00    -0.032 SA
ATOM     25  N   UNK d   1     -19.224   0.934 -37.750  0.00  0.00    -0.186 NA
ATOM     26  C   UNK d   1     -19.353   1.053 -36.323  0.00  0.00     0.259 C 
ATOM     27  O   UNK d   1     -18.465   0.753 -35.512  0.00  0.00    -0.270 OA
ENDBRANCH   1  15
BRANCH   1  28
ATOM     28  C   UNK d   1     -21.233  -0.324 -34.364  0.00  0.00    -0.051 A 
ATOM     29  C   UNK d   1     -20.866  -1.649 -34.400  0.00  0.00     0.009 A 
ATOM     30  C   UNK d   1     -20.560  -2.342 -33.252  0.00  0.00     0.019 A 
ATOM     31  C   UNK d   1     -20.621  -1.699 -32.036  0.00  0.00     0.011 A 
ATOM     32  C   UNK d   1     -20.988  -0.354 -31.954  0.00  0.00     0.019 A 
ATOM     33 Br   UNK d   1     -20.201  -2.634 -30.421  0.00  0.00    -0.051 Br
ATOM     34  C   UNK d   1     -21.287   0.305 -33.129  0.00  0.00     0.009 A 
ENDBRANCH   1  28
TORSDOF 3
ENDMDL
