/Users/jonathanwahrer/Desktop/Msc/3_Semester/Drug_Design_Praktikum/waehrer_HTS_screening/HTS_experiment/out/docking_results/vina_output/5l4q/1266_docked.pdbqt
 OpenBabel03212218383D

 28 31  0  0  1  0  0  0  0  0999 V2000
  -18.8900   -1.2090  -28.7340 C   0  0  2  0  0  3  0  0  0  0  0  0
  -19.9810   -0.4050  -28.1970 N   0  0  0  0  0  0  0  0  0  0  0  0
  -20.7120    0.4080  -29.0500 C   0  0  0  0  0  2  0  0  0  0  0  0
  -20.7990    0.0550  -30.5190 C   0  0  0  0  0  2  0  0  0  0  0  0
  -19.7010   -0.6710  -30.9890 N   0  0  0  0  0  0  0  0  0  0  0  0
  -18.5820   -0.8560  -30.1160 C   0  0  0  0  0  2  0  0  0  0  0  0
  -19.5730   -1.2630  -32.2720 C   0  0  0  0  0  0  0  0  0  0  0  0
  -18.3670   -1.7450  -32.4690 O   0  0  0  0  0  0  0  0  0  0  0  0
  -20.5720   -0.9760  -27.5590 H   0  0  0  0  0  0  0  0  0  0  0  0
  -20.4690   -1.4420  -33.3560 C   0  0  0  0  0  0  0  0  0  0  0  0
  -21.4170   -2.4880  -33.2470 C   0  0  0  0  0  3  0  0  0  0  0  0
  -22.3800   -2.6440  -34.1550 N   0  0  0  0  0  0  0  0  0  0  0  0
  -22.4970   -1.8280  -35.2040 C   0  0  0  0  0  0  0  0  0  0  0  0
  -21.6100   -0.7980  -35.3630 C   0  0  0  0  0  0  0  0  0  0  0  0
  -23.5130   -2.0100  -36.1490 O   0  0  0  0  0  0  0  0  0  0  0  0
  -20.5880   -0.6020  -34.4370 C   0  0  0  0  0  3  0  0  0  0  0  0
  -21.7470    0.1040  -36.4650 N   0  0  0  0  0  0  0  0  0  0  0  0
  -22.8230   -0.0990  -37.3820 C   0  0  0  0  0  0  0  0  0  0  0  0
  -21.0970    0.8920  -36.6060 H   0  0  0  0  0  0  0  0  0  0  0  0
  -23.3180    0.7970  -38.0970 O   0  0  0  0  0  0  0  0  0  0  0  0
  -23.3820   -1.4830  -37.4790 C   0  0  0  0  0  2  0  0  0  0  0  0
  -19.3460   -2.6320  -28.5480 C   0  0  0  0  0  0  0  0  0  0  0  0
  -19.2710   -3.1740  -27.2550 C   0  0  0  0  0  0  0  0  0  0  0  0
  -18.4970   -2.1800  -26.0040 Cl  0  0  0  0  0  0  0  0  0  0  0  0
  -19.7610   -4.4210  -26.9320 C   0  0  0  0  0  3  0  0  0  0  0  0
  -20.3610   -5.1900  -27.9230 C   0  0  0  0  0  3  0  0  0  0  0  0
  -20.4340   -4.6520  -29.1970 C   0  0  0  0  0  3  0  0  0  0  0  0
  -19.9380   -3.3990  -29.5080 C   0  0  0  0  0  3  0  0  0  0  0  0
  1 22  1  6  0  0  0
  1  2  1  0  0  0  0
  2  9  1  0  0  0  0
  3  2  1  0  0  0  0
  4  3  1  0  0  0  0
  5  4  1  0  0  0  0
  5  6  1  0  0  0  0
  6  1  1  0  0  0  0
  7  5  1  0  0  0  0
  8  7  2  0  0  0  0
 10 11  2  0  0  0  0
 10  7  1  0  0  0  0
 12 11  1  0  0  0  0
 13 12  2  0  0  0  0
 14 13  1  0  0  0  0
 14 16  2  0  0  0  0
 15 13  1  0  0  0  0
 16 10  1  0  0  0  0
 17 14  1  0  0  0  0
 18 17  1  0  0  0  0
 19 17  1  0  0  0  0
 20 18  2  0  0  0  0
 21 18  1  0  0  0  0
 21 15  1  0  0  0  0
 22 23  1  0  0  0  0
 23 25  2  0  0  0  0
 23 24  1  0  0  0  0
 26 25  1  0  0  0  0
 27 26  2  0  0  0  0
 28 27  1  0  0  0  0
 28 22  2  0  0  0  0
M  END
>  <Pose>
1

>  <Score>
-8.644

$$$$
