MODEL 1
REMARK VINA RESULT:    -8.644      0.000      0.000
REMARK INTER + INTRA:          -9.915
REMARK INTER:                  -9.654
REMARK INTRA:                  -0.261
REMARK UNBOUND:                -0.261
REMARK  2 active torsions:
REMARK  status: ('A' for Active; 'I' for Inactive)
REMARK    1  A    between atoms: C_3  and  C_8 
REMARK       I    between atoms: N_12  and  C_14 
REMARK    2  A    between atoms: C_14  and  C_16 
ROOT
ATOM      1  C   UNK d   1     -18.890  -1.209 -28.734  0.00  0.00     0.273 C 
ATOM      2  N   UNK d   1     -19.981  -0.405 -28.197  0.00  0.00     0.095 NA
ATOM      3  C   UNK d   1     -20.712   0.408 -29.050  0.00  0.00     0.290 C 
ATOM      4  C   UNK d   1     -20.799   0.055 -30.519  0.00  0.00     0.155 C 
ATOM      5  N   UNK d   1     -19.701  -0.671 -30.989  0.00  0.00    -0.355 N 
ATOM      6  C   UNK d   1     -18.582  -0.856 -30.116  0.00  0.00     0.165 C 
ATOM      7  C   UNK d   1     -19.573  -1.263 -32.272  0.00  0.00     0.189 C 
ATOM      8  O   UNK d   1     -18.367  -1.745 -32.469  0.00  0.00    -0.171 OA
ATOM      9  H   UNK d   1     -20.572  -0.976 -27.559  0.00  0.00     0.316 HD
ENDROOT
BRANCH   7  10
ATOM     10  C   UNK d   1     -20.469  -1.442 -33.356  0.00  0.00     0.038 A 
ATOM     11  C   UNK d   1     -21.417  -2.488 -33.247  0.00  0.00     0.135 A 
ATOM     12  N   UNK d   1     -22.380  -2.644 -34.155  0.00  0.00    -0.234 NA
ATOM     13  C   UNK d   1     -22.497  -1.828 -35.204  0.00  0.00     0.192 A 
ATOM     14  C   UNK d   1     -21.610  -0.798 -35.363  0.00  0.00     0.089 A 
ATOM     15  O   UNK d   1     -23.513  -2.010 -36.149  0.00  0.00    -0.323 OA
ATOM     16  C   UNK d   1     -20.588  -0.602 -34.437  0.00  0.00     0.051 A 
ATOM     17  N   UNK d   1     -21.747   0.104 -36.465  0.00  0.00    -0.322 N 
ATOM     18  C   UNK d   1     -22.823  -0.099 -37.382  0.00  0.00     0.246 C 
ATOM     19  H   UNK d   1     -21.097   0.892 -36.606  0.00  0.00     0.169 HD
ATOM     20  O   UNK d   1     -23.318   0.797 -38.097  0.00  0.00    -0.271 OA
ATOM     21  C   UNK d   1     -23.382  -1.483 -37.479  0.00  0.00     0.280 C 
ENDBRANCH   7  10
BRANCH   1  22
ATOM     22  C   UNK d   1     -19.346  -2.632 -28.548  0.00  0.00    -0.002 A 
ATOM     23  C   UNK d   1     -19.271  -3.174 -27.255  0.00  0.00     0.042 A 
ATOM     24 Cl   UNK d   1     -18.497  -2.180 -26.004  0.00  0.00    -0.084 Cl
ATOM     25  C   UNK d   1     -19.761  -4.421 -26.932  0.00  0.00     0.024 A 
ATOM     26  C   UNK d   1     -20.361  -5.190 -27.923  0.00  0.00     0.002 A 
ATOM     27  C   UNK d   1     -20.434  -4.652 -29.197  0.00  0.00     0.001 A 
ATOM     28  C   UNK d   1     -19.938  -3.399 -29.508  0.00  0.00     0.011 A 
ENDBRANCH   1  22
TORSDOF 2
ENDMDL
