MODEL 1
REMARK VINA RESULT:    -9.120      0.000      0.000
REMARK INTER + INTRA:         -14.386
REMARK INTER:                 -13.118
REMARK INTRA:                  -1.268
REMARK UNBOUND:                -1.268
REMARK  8 active torsions:
REMARK  status: ('A' for Active; 'I' for Inactive)
REMARK    1  A    between atoms: C_4  and  C_8 
REMARK    2  A    between atoms: C_8  and  N_10 
REMARK    3  A    between atoms: N_10  and  N_11 
REMARK       I    between atoms: N_11  and  C_12 
REMARK    4  A    between atoms: C_12  and  C_14 
REMARK    5  A    between atoms: N_17  and  C_26 
REMARK    6  A    between atoms: C_18  and  C_19 
REMARK    7  A    between atoms: C_19  and  N_20 
REMARK    8  A    between atoms: C_30  and  N_31 
ROOT
ATOM      1  C   UNK d   1     -22.526  -0.853 -35.033  0.00  0.00     0.176 A 
ATOM      2  N   UNK d   1     -23.401  -1.855 -35.193  0.00  0.00    -0.124 NA
ATOM      3  N   UNK d   1     -23.539  -2.027 -36.483  0.00  0.00    -0.058 NA
ATOM      4  N   UNK d   1     -22.778  -1.164 -37.152  0.00  0.00    -0.191 N 
ATOM      5  C   UNK d   1     -22.117  -0.400 -36.297  0.00  0.00     0.104 A 
ENDROOT
BRANCH   1   6
ATOM      6  C   UNK d   1     -22.085  -0.355 -33.743  0.00  0.00     0.292 C 
ATOM      7  N   UNK d   1     -21.092  -1.005 -32.973  0.00  0.00    -0.264 N 
ATOM      8  H   UNK d   1     -20.621  -1.893 -33.294  0.00  0.00     0.190 HD
ATOM      9  O   UNK d   1     -22.608   0.693 -33.299  0.00  0.00    -0.264 OA
BRANCH   7  10
ATOM     10  N   UNK d   1     -20.671  -0.513 -31.737  0.00  0.00    -0.298 N 
ATOM     11  H   UNK d   1     -21.104   0.276 -31.228  0.00  0.00     0.187 HD
BRANCH  10  12
ATOM     12  C   UNK d   1     -19.541  -1.149 -31.103  0.00  0.00     0.049 C 
ATOM     13  C   UNK d   1     -18.336  -0.824 -31.500  0.00  0.00     0.045 C 
BRANCH  12  14
ATOM     14  C   UNK d   1     -19.792  -2.131 -30.067  0.00  0.00    -0.008 A 
ATOM     15  C   UNK d   1     -19.392  -1.880 -28.755  0.00  0.00     0.032 A 
ATOM     16  C   UNK d   1     -19.637  -2.794 -27.760  0.00  0.00     0.011 A 
ATOM     17 Br   UNK d   1     -19.095  -2.464 -25.967  0.00  0.00    -0.051 Br
ATOM     18  C   UNK d   1     -20.285  -3.990 -28.018  0.00  0.00     0.019 A 
ATOM     19  C   UNK d   1     -20.680  -4.247 -29.295  0.00  0.00     0.002 A 
ATOM     20  C   UNK d   1     -20.429  -3.314 -30.301  0.00  0.00     0.014 A 
ENDBRANCH  12  14
ENDBRANCH  10  12
ENDBRANCH   7  10
ENDBRANCH   1   6
BRANCH   5  21
ATOM     21  C   UNK d   1     -21.203   0.706 -36.465  0.00  0.00     0.334 C 
BRANCH  21  22
ATOM     22  N   UNK d   1     -19.859   0.370 -36.893  0.00  0.00     0.094 NA
ATOM     23  C   UNK d   1     -19.556   0.988 -38.181  0.00  0.00     0.273 C 
ATOM     24  C   UNK d   1     -19.939   2.451 -38.208  0.00  0.00     0.030 C 
ATOM     25  C   UNK d   1     -19.231   3.192 -37.088  0.00  0.00     0.003 C 
ATOM     26  C   UNK d   1     -18.343   2.265 -36.308  0.00  0.00     0.030 C 
ATOM     27  C   UNK d   1     -18.896   0.942 -35.957  0.00  0.00     0.273 C 
ENDBRANCH  21  22
ENDBRANCH   5  21
BRANCH   4  28
ATOM     28  C   UNK d   1     -22.734  -1.090 -38.565  0.00  0.00     0.229 A 
ATOM     29  N   UNK d   1     -22.743   0.089 -39.246  0.00  0.00    -0.081 NA
ATOM     30  O   UNK d   1     -22.698  -0.189 -40.510  0.00  0.00    -0.103 OA
ATOM     31  N   UNK d   1     -22.664  -1.457 -40.712  0.00  0.00    -0.083 NA
ATOM     32  C   UNK d   1     -22.684  -2.064 -39.518  0.00  0.00     0.201 A 
BRANCH  32  33
ATOM     33  N   UNK d   1     -22.659  -3.443 -39.261  0.00  0.00    -0.379 N 
ATOM     34  H   UNK d   1     -23.270  -3.954 -38.586  0.00  0.00     0.158 HD
ATOM     35  H   UNK d   1     -21.975  -4.035 -39.780  0.00  0.00     0.158 HD
ENDBRANCH  32  33
ENDBRANCH   4  28
TORSDOF 8
ENDMDL
