MODEL 1
REMARK VINA RESULT:    -8.452      0.000      0.000
REMARK INTER + INTRA:         -13.901
REMARK INTER:                 -11.911
REMARK INTRA:                  -1.990
REMARK UNBOUND:                -1.990
REMARK  7 active torsions:
REMARK  status: ('A' for Active; 'I' for Inactive)
REMARK    1  A    between atoms: C_4  and  C_8 
REMARK    2  A    between atoms: N_9  and  C_29 
REMARK    3  A    between atoms: C_15  and  C_17 
REMARK    4  A    between atoms: N_19  and  C_22 
REMARK    5  A    between atoms: C_29  and  C_30 
REMARK    6  A    between atoms: C_30  and  C_31 
REMARK    7  A    between atoms: C_31  and  N_32 
ROOT
ATOM      1  C   UNK d   1     -21.826   0.095 -34.448  0.00  0.00     0.161 C 
ATOM      2  N   UNK d   1     -22.614  -1.032 -34.782  0.00  0.00    -0.332 N 
ATOM      3  C   UNK d   1     -22.118  -2.178 -34.109  0.00  0.00     0.295 C 
ATOM      4  O   UNK d   1     -22.550  -3.362 -34.272  0.00  0.00    -0.264 OA
ATOM      5  C   UNK d   1     -21.058  -1.765 -33.216  0.00  0.00     0.250 C 
ATOM      6  O   UNK d   1     -20.438  -2.593 -32.496  0.00  0.00    -0.282 OA
ATOM      7  C   UNK d   1     -20.910  -0.329 -33.358  0.00  0.00     0.062 C 
ATOM      8  C   UNK d   1     -20.069   0.406 -32.666  0.00  0.00     0.133 C 
ATOM      9  O   UNK d   1     -19.973   1.751 -32.938  0.00  0.00    -0.190 OA
ENDROOT
BRANCH   1  10
ATOM     10  C   UNK d   1     -21.097   0.591 -35.620  0.00  0.00    -0.029 A 
ATOM     11  C   UNK d   1     -21.476   1.806 -36.164  0.00  0.00     0.028 A 
ATOM     12  C   UNK d   1     -20.892   2.413 -37.234  0.00  0.00     0.011 A 
ATOM     13 Br   UNK d   1     -21.456   4.093 -37.944  0.00  0.00    -0.051 Br
ATOM     14  C   UNK d   1     -19.814   1.737 -37.827  0.00  0.00     0.019 A 
ATOM     15  C   UNK d   1     -19.410   0.519 -37.307  0.00  0.00     0.002 A 
ATOM     16  C   UNK d   1     -20.026  -0.068 -36.218  0.00  0.00     0.009 A 
ENDBRANCH   1  10
BRANCH   8  17
ATOM     17  C   UNK d   1     -19.254  -0.170 -31.625  0.00  0.00     0.045 A 
ATOM     18  C   UNK d   1     -19.630  -0.222 -30.271  0.00  0.00     0.047 A 
ATOM     19  N   UNK d   1     -18.675  -0.849 -29.575  0.00  0.00    -0.238 N 
ATOM     20  C   UNK d   1     -20.905   0.343 -29.742  0.00  0.00     0.071 C 
ATOM     21  N   UNK d   1     -17.728  -1.185 -30.432  0.00  0.00    -0.179 NA
ATOM     22  C   UNK d   1     -18.039  -0.796 -31.677  0.00  0.00     0.155 A 
BRANCH  19  23
ATOM     23  C   UNK d   1     -18.666  -1.124 -28.181  0.00  0.00     0.058 A 
ATOM     24  C   UNK d   1     -19.292  -2.277 -27.724  0.00  0.00     0.031 A 
ATOM     25  C   UNK d   1     -19.313  -2.612 -26.385  0.00  0.00     0.002 A 
ATOM     26  C   UNK d   1     -18.701  -1.799 -25.431  0.00  0.00     0.000 A 
ATOM     27  C   UNK d   1     -18.077  -0.651 -25.886  0.00  0.00     0.002 A 
ATOM     28  C   UNK d   1     -18.070  -0.339 -27.221  0.00  0.00     0.031 A 
ENDBRANCH  19  23
ENDBRANCH   8  17
BRANCH   2  29
ATOM     29  C   UNK d   1     -23.806  -1.057 -35.675  0.00  0.00     0.129 C 
BRANCH  29  30
ATOM     30  C   UNK d   1     -23.422  -1.629 -37.015  0.00  0.00     0.048 C 
BRANCH  30  31
ATOM     31  C   UNK d   1     -23.727  -0.719 -38.163  0.00  0.00     0.235 C 
BRANCH  31  32
ATOM     32  N   UNK d   1     -22.609  -0.264 -38.922  0.00  0.00    -0.079 N 
ATOM     33  C   UNK d   1     -21.912  -1.250 -39.679  0.00  0.00     0.269 C 
ATOM     34  C   UNK d   1     -23.027   0.798 -39.852  0.00  0.00     0.269 C 
ATOM     35  H   UNK d   1     -21.913   0.218 -38.276  0.00  0.00     0.278 HD
ENDBRANCH  31  32
ENDBRANCH  30  31
ENDBRANCH  29  30
ENDBRANCH   2  29
TORSDOF 7
ENDMDL
