/Users/jonathanwahrer/Desktop/Msc/3_Semester/Drug_Design_Praktikum/waehrer_HTS_screening/HTS_experiment/out/docking_results/vina_output/5l4q/1285_docked.pdbqt
 OpenBabel03212218403D

 34 37  0  0  1  0  0  0  0  0999 V2000
  -21.4790   -0.7710  -32.2970 C   0  0  1  0  0  3  0  0  0  0  0  0
  -20.2180   -0.1930  -31.8760 N   0  0  0  0  0  0  0  0  0  0  0  0
  -19.3020   -0.2670  -32.9910 C   0  0  0  0  0  0  0  0  0  0  0  0
  -18.0660   -0.2760  -32.9580 O   0  0  0  0  0  0  0  0  0  0  0  0
  -20.1610   -0.3310  -34.1700 C   0  0  0  0  0  0  0  0  0  0  0  0
  -19.8220   -0.4120  -35.3880 O   0  0  0  0  0  0  0  0  0  0  0  0
  -21.5440   -0.2900  -33.7240 C   0  0  0  0  0  0  0  0  0  0  0  0
  -22.6230    0.0420  -34.4130 C   0  0  0  0  0  0  0  0  0  0  0  0
  -23.8820   -0.0620  -33.7560 O   0  0  0  0  0  1  0  0  0  0  0  0
  -21.5290   -2.2380  -32.2450 C   0  0  0  0  0  0  0  0  0  0  0  0
  -20.9830   -2.8700  -31.1240 C   0  0  0  0  0  3  0  0  0  0  0  0
  -21.0000   -4.2250  -31.0140 C   0  0  0  0  0  0  0  0  0  0  0  0
  -20.2480   -5.0680  -29.4730 Br  0  0  0  0  0  0  0  0  0  0  0  0
  -21.5530   -5.0070  -32.0000 C   0  0  0  0  0  3  0  0  0  0  0  0
  -22.0990   -4.4170  -33.1150 C   0  0  0  0  0  3  0  0  0  0  0  0
  -22.0820   -3.0320  -33.2270 C   0  0  0  0  0  3  0  0  0  0  0  0
  -22.5420    0.5040  -35.7770 C   0  0  0  0  0  0  0  0  0  0  0  0
  -22.7630   -0.1910  -36.9120 N   0  0  0  0  0  0  0  0  0  0  0  0
  -22.6090    0.6480  -37.9660 C   0  0  0  0  0  0  0  0  0  0  0  0
  -23.0690   -1.4720  -37.1820 C   0  0  0  0  0  3  0  0  0  0  0  0
  -22.2880    1.8900  -37.5090 N   0  0  0  0  0  0  0  0  0  0  0  0
  -22.7460    0.2800  -39.2790 C   0  0  0  0  0  0  0  0  0  0  0  0
  -22.2490    1.7880  -36.1590 C   0  0  0  0  0  0  0  0  0  0  0  0
  -21.9310    2.9220  -35.2480 C   0  0  0  0  0  1  0  0  0  0  0  0
  -23.0600   -1.0340  -39.5450 C   0  0  0  0  0  3  0  0  0  0  0  0
  -22.5680    1.2470  -40.4010 C   0  0  0  0  0  1  0  0  0  0  0  0
  -23.2160   -1.8930  -38.4760 C   0  0  0  0  0  3  0  0  0  0  0  0
  -19.9080    0.3600  -30.5690 C   0  0  0  0  0  2  0  0  0  0  0  0
  -19.0850   -0.5320  -29.7040 C   0  0  0  0  0  2  0  0  0  0  0  0
  -19.6070   -0.7090  -28.3000 C   0  0  0  0  0  2  0  0  0  0  0  0
  -18.7340   -1.5920  -27.5630 N   0  0  0  0  0  4  0  0  0  0  0  0
  -17.9220   -0.8370  -26.6260 C   0  0  0  0  0  1  0  0  0  0  0  0
  -19.5520   -2.4900  -26.7720 C   0  0  0  0  0  1  0  0  0  0  0  0
  -18.1560   -2.1960  -28.1870 H   0  0  0  0  0  0  0  0  0  0  0  0
  1 10  1  6  0  0  0
  1  2  1  0  0  0  0
  2 28  1  0  0  0  0
  3  4  2  0  0  0  0
  3  2  1  0  0  0  0
  5  7  1  0  0  0  0
  5  3  1  0  0  0  0
  6  5  2  0  0  0  0
  7  1  1  0  0  0  0
  8  9  1  0  0  0  0
  8  7  2  0  0  0  0
 10 11  1  0  0  0  0
 11 12  2  0  0  0  0
 12 13  1  0  0  0  0
 14 12  1  0  0  0  0
 15 14  2  0  0  0  0
 16 15  1  0  0  0  0
 16 10  2  0  0  0  0
 17  8  1  0  0  0  0
 18 17  1  0  0  0  0
 19 21  2  0  0  0  0
 19 18  1  0  0  0  0
 20 18  1  0  0  0  0
 21 23  1  0  0  0  0
 22 19  1  0  0  0  0
 23 17  2  0  0  0  0
 23 24  1  0  0  0  0
 25 22  2  0  0  0  0
 25 27  1  0  0  0  0
 26 22  1  0  0  0  0
 27 20  2  0  0  0  0
 28 29  1  0  0  0  0
 29 30  1  0  0  0  0
 30 31  1  0  0  0  0
 31 33  1  0  0  0  0
 31 32  1  0  0  0  0
 34 31  1  0  0  0  0
M  END
>  <Pose>
1

>  <Score>
-8.580

$$$$
