MODEL 1
REMARK VINA RESULT:    -8.108      0.000      0.000
REMARK INTER + INTRA:          -8.785
REMARK INTER:                  -8.582
REMARK INTRA:                  -0.203
REMARK UNBOUND:                -0.203
REMARK  1 active torsions:
REMARK  status: ('A' for Active; 'I' for Inactive)
REMARK    1  A    between atoms: C_5  and  C_8 
ROOT
ATOM      1  C   UNK d   1     -22.125  -0.153 -38.637  0.00  0.00     0.102 A 
ATOM      2  C   UNK d   1     -22.027  -0.033 -37.199  0.00  0.00     0.068 A 
ATOM      3  C   UNK d   1     -22.533  -0.996 -36.372  0.00  0.00     0.124 A 
ATOM      4  N   UNK d   1     -23.163  -2.181 -36.876  0.00  0.00    -0.343 N 
ATOM      5  C   UNK d   1     -23.227  -2.294 -38.292  0.00  0.00     0.048 A 
ATOM      6  C   UNK d   1     -22.749  -1.391 -39.102  0.00  0.00     0.055 A 
ATOM      7  C   UNK d   1     -22.957  -1.851 -40.510  0.00  0.00     0.292 A 
ATOM      8  O   UNK d   1     -22.592  -1.174 -41.517  0.00  0.00    -0.259 OA
ATOM      9  O   UNK d   1     -23.575  -3.055 -40.422  0.00  0.00    -0.312 OA
ATOM     10  C   UNK d   1     -23.832  -3.422 -39.109  0.00  0.00     0.237 A 
ATOM     11  N   UNK d   1     -22.430  -0.840 -35.012  0.00  0.00    -0.289 N 
ATOM     12  C   UNK d   1     -21.841   0.243 -34.494  0.00  0.00     0.332 A 
ATOM     13  O   UNK d   1     -21.757   0.366 -33.239  0.00  0.00    -0.246 OA
ATOM     14  N   UNK d   1     -21.346   1.184 -35.315  0.00  0.00    -0.270 N 
ATOM     15  C   UNK d   1     -21.405   1.108 -36.643  0.00  0.00     0.262 A 
ATOM     16  O   UNK d   1     -20.945   1.983 -37.418  0.00  0.00    -0.267 OA
ATOM     17  C   UNK d   1     -20.710   2.351 -34.702  0.00  0.00     0.164 C 
ATOM     18  C   UNK d   1     -22.989  -1.900 -34.186  0.00  0.00     0.163 C 
ATOM     19  H   UNK d   1     -23.535  -2.886 -36.215  0.00  0.00     0.167 HD
ENDROOT
BRANCH   1  20
ATOM     20  C   UNK d   1     -22.608   1.031 -39.341  0.00  0.00    -0.045 A 
ATOM     21  C   UNK d   1     -21.827   1.733 -40.210  0.00  0.00     0.009 A 
ATOM     22  C   UNK d   1     -22.318   2.873 -40.870  0.00  0.00     0.019 A 
ATOM     23  C   UNK d   1     -23.605   3.285 -40.637  0.00  0.00     0.011 A 
ATOM     24 Br   UNK d   1     -24.322   4.838 -41.517  0.00  0.00    -0.051 Br
ATOM     25  C   UNK d   1     -24.397   2.591 -39.770  0.00  0.00     0.019 A 
ATOM     26  C   UNK d   1     -23.894   1.453 -39.116  0.00  0.00     0.009 A 
ENDBRANCH   1  20
TORSDOF 1
ENDMDL
