/Users/jonathanwahrer/Desktop/Msc/3_Semester/Drug_Design_Praktikum/waehrer_HTS_screening/HTS_experiment/out/docking_results/vina_output/5l4q/1295_docked.pdbqt
 OpenBabel03212218403D

 26 29  0  0  1  0  0  0  0  0999 V2000
  -22.1250   -0.1530  -38.6370 C   0  0  0  0  0  0  0  0  0  0  0  0
  -22.0270   -0.0330  -37.1990 C   0  0  0  0  0  0  0  0  0  0  0  0
  -22.5330   -0.9960  -36.3720 C   0  0  1  0  0  3  0  0  0  0  0  0
  -23.1630   -2.1810  -36.8760 N   0  0  0  0  0  0  0  0  0  0  0  0
  -23.2270   -2.2940  -38.2920 C   0  0  0  0  0  0  0  0  0  0  0  0
  -22.7490   -1.3910  -39.1020 C   0  0  0  0  0  0  0  0  0  0  0  0
  -22.9570   -1.8510  -40.5100 C   0  0  0  0  0  0  0  0  0  0  0  0
  -22.5920   -1.1740  -41.5170 O   0  0  0  0  0  0  0  0  0  0  0  0
  -23.5750   -3.0550  -40.4220 O   0  0  0  0  0  0  0  0  0  0  0  0
  -23.8320   -3.4220  -39.1090 C   0  0  0  0  0  2  0  0  0  0  0  0
  -22.4300   -0.8400  -35.0120 N   0  0  0  0  0  0  0  0  0  0  0  0
  -21.8410    0.2430  -34.4940 C   0  0  0  0  0  0  0  0  0  0  0  0
  -21.7570    0.3660  -33.2390 O   0  0  0  0  0  0  0  0  0  0  0  0
  -21.3460    1.1840  -35.3150 N   0  0  0  0  0  0  0  0  0  0  0  0
  -21.4050    1.1080  -36.6430 C   0  0  0  0  0  0  0  0  0  0  0  0
  -20.9450    1.9830  -37.4180 O   0  0  0  0  0  0  0  0  0  0  0  0
  -20.7100    2.3510  -34.7020 C   0  0  0  0  0  1  0  0  0  0  0  0
  -22.9890   -1.9000  -34.1860 C   0  0  0  0  0  1  0  0  0  0  0  0
  -23.5350   -2.8860  -36.2150 H   0  0  0  0  0  0  0  0  0  0  0  0
  -22.6080    1.0310  -39.3410 C   0  0  0  0  0  0  0  0  0  0  0  0
  -21.8270    1.7330  -40.2100 C   0  0  0  0  0  3  0  0  0  0  0  0
  -22.3180    2.8730  -40.8700 C   0  0  0  0  0  3  0  0  0  0  0  0
  -23.6050    3.2850  -40.6370 C   0  0  0  0  0  0  0  0  0  0  0  0
  -24.3220    4.8380  -41.5170 Br  0  0  0  0  0  0  0  0  0  0  0  0
  -24.3970    2.5910  -39.7700 C   0  0  0  0  0  3  0  0  0  0  0  0
  -23.8940    1.4530  -39.1160 C   0  0  0  0  0  3  0  0  0  0  0  0
  1  2  2  0  0  0  0
  2 15  1  0  0  0  0
  3  2  1  6  0  0  0
  3 11  1  0  0  0  0
  4  3  1  0  0  0  0
  4 19  1  0  0  0  0
  5  4  1  0  0  0  0
  6  1  1  0  0  0  0
  6  5  2  0  0  0  0
  7  9  1  0  0  0  0
  7  6  1  0  0  0  0
  8  7  2  0  0  0  0
  9 10  1  0  0  0  0
 10  5  1  0  0  0  0
 11 12  1  0  0  0  0
 11 18  1  0  0  0  0
 12 13  2  0  0  0  0
 14 17  1  0  0  0  0
 14 12  1  0  0  0  0
 15 14  1  0  0  0  0
 16 15  2  0  0  0  0
 20 26  1  0  0  0  0
 20  1  1  0  0  0  0
 21 20  2  0  0  0  0
 22 23  2  0  0  0  0
 22 21  1  0  0  0  0
 23 25  1  0  0  0  0
 24 23  1  0  0  0  0
 25 26  2  0  0  0  0
M  END
>  <Pose>
1

>  <Score>
-8.108

$$$$
