MODEL 1
REMARK VINA RESULT:    -8.104      0.000      0.000
REMARK INTER + INTRA:         -12.849
REMARK INTER:                 -11.420
REMARK INTRA:                  -1.428
REMARK UNBOUND:                -1.428
REMARK  8 active torsions:
REMARK  status: ('A' for Active; 'I' for Inactive)
REMARK    1  A    between atoms: C_3  and  O_32 
REMARK    2  A    between atoms: C_6  and  C_8 
REMARK    3  A    between atoms: N_9  and  N_10 
REMARK       I    between atoms: N_10  and  C_11 
REMARK    4  A    between atoms: C_11  and  C_13 
REMARK    5  A    between atoms: N_14  and  C_25 
REMARK    6  A    between atoms: C_17  and  C_18 
REMARK    7  A    between atoms: C_18  and  N_19 
REMARK    8  A    between atoms: C_29  and  N_30 
ROOT
ATOM      1  C   UNK d   1     -20.400   1.540 -35.334  0.00  0.00     0.160 A 
ATOM      2  N   UNK d   1     -19.948   2.835 -35.303  0.00  0.00    -0.184 N 
ATOM      3  N   UNK d   1     -20.137   3.304 -36.518  0.00  0.00    -0.058 NA
ATOM      4  N   UNK d   1     -20.665   2.420 -37.299  0.00  0.00    -0.132 NA
ATOM      5  C   UNK d   1     -20.857   1.269 -36.595  0.00  0.00     0.121 A 
ENDROOT
BRANCH   1   6
ATOM      6  C   UNK d   1     -20.341   0.708 -34.139  0.00  0.00     0.292 C 
ATOM      7  N   UNK d   1     -19.224  -0.017 -33.665  0.00  0.00    -0.242 N 
ATOM      8  H   UNK d   1     -18.281  -0.053 -34.111  0.00  0.00     0.192 HD
ATOM      9  O   UNK d   1     -21.392   0.585 -33.400  0.00  0.00    -0.264 OA
BRANCH   7  10
ATOM     10  N   UNK d   1     -19.416  -0.768 -32.457  0.00  0.00    -0.183 NA
ATOM     11  C   UNK d   1     -18.914  -0.389 -31.347  0.00  0.00     0.150 C 
BRANCH  11  12
ATOM     12  C   UNK d   1     -19.110  -1.160 -30.110  0.00  0.00    -0.014 A 
ATOM     13  C   UNK d   1     -19.578  -2.436 -30.142  0.00  0.00     0.035 A 
ATOM     14  C   UNK d   1     -19.762  -3.160 -28.978  0.00  0.00     0.046 A 
ATOM     15  C   UNK d   1     -19.480  -2.614 -27.751  0.00  0.00     0.100 A 
ATOM     16 Br   UNK d   1     -20.423  -4.965 -29.037  0.00  0.00    -0.048 Br
ATOM     17  C   UNK d   1     -19.006  -1.319 -27.714  0.00  0.00     0.046 A 
ATOM     18 Br   UNK d   1     -18.610  -0.549 -26.013  0.00  0.00    -0.048 Br
ATOM     19  C   UNK d   1     -18.825  -0.604 -28.882  0.00  0.00     0.035 A 
BRANCH  15  20
ATOM     20  O   UNK d   1     -19.677  -3.372 -26.606  0.00  0.00    -0.358 OA
ATOM     21  H   UNK d   1     -19.100  -4.155 -26.355  0.00  0.00     0.217 HD
ENDBRANCH  15  20
ENDBRANCH  11  12
ENDBRANCH   7  10
ENDBRANCH   1   6
BRANCH   2  22
ATOM     22  C   UNK d   1     -19.395   3.518 -34.197  0.00  0.00     0.230 A 
ATOM     23  N   UNK d   1     -18.267   3.253 -33.491  0.00  0.00    -0.081 NA
ATOM     24  O   UNK d   1     -18.139   4.131 -32.563  0.00  0.00    -0.103 OA
ATOM     25  N   UNK d   1     -19.101   4.998 -32.568  0.00  0.00    -0.083 NA
ATOM     26  C   UNK d   1     -19.923   4.644 -33.593  0.00  0.00     0.201 A 
BRANCH  26  27
ATOM     27  N   UNK d   1     -21.106   5.341 -33.945  0.00  0.00    -0.379 N 
ATOM     28  H   UNK d   1     -21.959   4.784 -34.140  0.00  0.00     0.158 HD
ATOM     29  H   UNK d   1     -21.170   6.372 -34.019  0.00  0.00     0.158 HD
ENDBRANCH  26  27
ENDBRANCH   2  22
BRANCH   5  30
ATOM     30  C   UNK d   1     -21.415   0.002 -37.066  0.00  0.00     0.336 C 
BRANCH  30  31
ATOM     31  N   UNK d   1     -22.800   0.090 -37.505  0.00  0.00     0.098 N 
ATOM     32  C   UNK d   1     -23.109  -1.007 -38.414  0.00  0.00     0.299 C 
ATOM     33  C   UNK d   1     -23.653  -2.202 -37.683  0.00  0.00     0.198 C 
ATOM     34  O   UNK d   1     -23.310  -2.250 -36.344  0.00  0.00    -0.388 OA
ATOM     35  C   UNK d   1     -23.718  -1.151 -35.605  0.00  0.00     0.198 C 
ATOM     36  C   UNK d   1     -23.743   0.117 -36.414  0.00  0.00     0.299 C 
ENDBRANCH  30  31
ENDBRANCH   5  30
TORSDOF 8
ENDMDL
