/Users/jonathanwahrer/Desktop/Msc/3_Semester/Drug_Design_Praktikum/waehrer_HTS_screening/HTS_experiment/out/docking_results/vina_output/5l4q/1300_docked.pdbqt
 OpenBabel03212218413D

 22 25  0  0  1  0  0  0  0  0999 V2000
  -22.1240   -0.4090  -34.8350 N   0  0  0  0  0  0  0  0  0  0  0  0
  -23.2090    0.4980  -34.8730 C   0  0  0  0  0  0  0  0  0  0  0  0
  -23.9990    0.7540  -33.9410 O   0  0  0  0  0  0  0  0  0  0  0  0
  -23.3030    1.1360  -36.2040 C   0  0  2  0  0  3  0  0  0  0  0  0
  -24.3110    0.3350  -37.0000 C   0  0  2  0  0  3  0  0  0  0  0  0
  -23.5370   -0.8230  -37.2760 O   0  0  0  0  0  0  0  0  0  0  0  0
  -22.5080   -0.1540  -37.9910 C   0  0  2  0  0  3  0  0  0  0  0  0
  -22.0030    0.7700  -36.9160 C   0  0  2  0  0  3  0  0  0  0  0  0
  -21.2680   -0.0400  -35.9200 C   0  0  0  0  0  0  0  0  0  0  0  0
  -20.0410   -0.3700  -36.0090 O   0  0  0  0  0  0  0  0  0  0  0  0
  -23.3250    0.5510  -39.0010 C   0  0  0  0  0  2  0  0  0  0  0  0
  -24.4480    0.8870  -38.3710 C   0  0  0  0  0  2  0  0  0  0  0  0
  -21.8440   -1.4870  -33.9540 C   0  0  0  0  0  0  0  0  0  0  0  0
  -21.0330   -1.3290  -32.8540 C   0  0  0  0  0  0  0  0  0  0  0  0
  -20.3080    0.4200  -32.5640 Br  0  0  0  0  0  0  0  0  0  0  0  0
  -20.7380   -2.3710  -31.9780 C   0  0  0  0  0  3  0  0  0  0  0  0
  -21.2620   -3.6310  -32.1860 C   0  0  0  0  0  0  0  0  0  0  0  0
  -22.0790   -3.7910  -33.2930 C   0  0  0  0  0  3  0  0  0  0  0  0
  -22.3710   -2.7630  -34.1580 C   0  0  0  0  0  3  0  0  0  0  0  0
  -20.9770   -4.7150  -31.3100 N   0  0  0  0  0  0  0  0  0  0  0  0
  -21.0110   -5.8690  -31.7710 O   0  0  0  0  0  0  0  0  0  0  0  0
  -20.6650   -4.5740  -29.9850 O   0  0  0  0  0  0  0  0  0  0  0  0
  1 13  1  0  0  0  0
  2  1  1  0  0  0  0
  2  3  2  0  0  0  0
  4  2  1  1  0  0  0
  5 12  1  6  0  0  0
  5  4  1  0  0  0  0
  6  5  1  0  0  0  0
  7 11  1  6  0  0  0
  7  6  1  0  0  0  0
  7  8  1  0  0  0  0
  8  4  1  0  0  0  0
  8  9  1  1  0  0  0
  9  1  1  0  0  0  0
 10  9  2  0  0  0  0
 11 12  1  0  0  0  0
 13 14  1  0  0  0  0
 14 15  1  0  0  0  0
 14 16  2  0  0  0  0
 17 16  1  0  0  0  0
 17 20  1  0  0  0  0
 18 17  2  0  0  0  0
 19 13  2  0  0  0  0
 19 18  1  0  0  0  0
 20 22  2  0  0  0  0
 21 20  2  0  0  0  0
M  END
>  <Pose>
1

>  <Score>
-7.559

$$$$
