MODEL 1
REMARK VINA RESULT:    -7.559      0.000      0.000
REMARK INTER + INTRA:          -8.932
REMARK INTER:                  -8.442
REMARK INTRA:                  -0.490
REMARK UNBOUND:                -0.490
REMARK  2 active torsions:
REMARK  status: ('A' for Active; 'I' for Inactive)
REMARK    1  A    between atoms: C_3  and  N_11 
REMARK    2  A    between atoms: C_6  and  N_8 
ROOT
ATOM      1  N   UNK d   1     -22.124  -0.409 -34.835  0.00  0.00    -0.250 N 
ATOM      2  C   UNK d   1     -23.209   0.498 -34.873  0.00  0.00     0.239 C 
ATOM      3  O   UNK d   1     -23.999   0.754 -33.941  0.00  0.00    -0.272 OA
ATOM      4  C   UNK d   1     -23.303   1.136 -36.204  0.00  0.00     0.127 C 
ATOM      5  C   UNK d   1     -24.311   0.335 -37.000  0.00  0.00     0.159 C 
ATOM      6  O   UNK d   1     -23.537  -0.823 -37.276  0.00  0.00    -0.371 OA
ATOM      7  C   UNK d   1     -22.508  -0.154 -37.991  0.00  0.00     0.159 C 
ATOM      8  C   UNK d   1     -22.003   0.770 -36.916  0.00  0.00     0.127 C 
ATOM      9  C   UNK d   1     -21.268  -0.040 -35.920  0.00  0.00     0.239 C 
ATOM     10  O   UNK d   1     -20.041  -0.370 -36.009  0.00  0.00    -0.272 OA
ATOM     11  C   UNK d   1     -23.325   0.551 -39.001  0.00  0.00     0.004 C 
ATOM     12  C   UNK d   1     -24.448   0.887 -38.371  0.00  0.00     0.004 C 
ENDROOT
BRANCH   1  13
ATOM     13  C   UNK d   1     -21.844  -1.487 -33.954  0.00  0.00     0.062 A 
ATOM     14  C   UNK d   1     -21.033  -1.329 -32.854  0.00  0.00     0.040 A 
ATOM     15 Br   UNK d   1     -20.308   0.420 -32.564  0.00  0.00    -0.049 Br
ATOM     16  C   UNK d   1     -20.738  -2.371 -31.978  0.00  0.00     0.057 A 
ATOM     17  C   UNK d   1     -21.262  -3.631 -32.186  0.00  0.00     0.104 A 
ATOM     18  C   UNK d   1     -22.079  -3.791 -33.293  0.00  0.00     0.038 A 
ATOM     19  C   UNK d   1     -22.371  -2.763 -34.158  0.00  0.00     0.034 A 
BRANCH  17  20
ATOM     20  N   UNK d   1     -20.977  -4.715 -31.310  0.00  0.00    -0.116 N 
ATOM     21  O   UNK d   1     -21.011  -5.869 -31.771  0.00  0.00    -0.532 OA
ATOM     22  O   UNK d   1     -20.665  -4.574 -29.985  0.00  0.00    -0.532 OA
ENDBRANCH  17  20
ENDBRANCH   1  13
TORSDOF 2
ENDMDL
