/Users/jonathanwahrer/Desktop/Msc/3_Semester/Drug_Design_Praktikum/waehrer_HTS_screening/HTS_experiment/out/docking_results/vina_output/5l4q/1301_docked.pdbqt
 OpenBabel03212218413D

 24 27  0  0  1  0  0  0  0  0999 V2000
  -20.5080   -0.9540  -32.8720 N   0  0  0  0  0  0  0  0  0  0  0  0
  -21.5500   -1.3670  -33.7480 C   0  0  0  0  0  0  0  0  0  0  0  0
  -22.2610   -2.3900  -33.6550 O   0  0  0  0  0  0  0  0  0  0  0  0
  -21.6950   -0.3690  -34.8510 C   0  0  1  0  0  3  0  0  0  0  0  0
  -22.6130    0.7480  -34.4810 C   0  0  1  0  0  0  0  0  0  0  0  0
  -21.8040    1.5670  -33.6550 O   0  0  0  0  0  0  0  0  0  0  0  0
  -20.7680    1.7640  -34.6030 C   0  0  1  0  0  0  0  0  0  0  0  0
  -20.3490    0.3520  -34.8520 C   0  0  1  0  0  3  0  0  0  0  0  0
  -19.6230   -0.1870  -33.6780 C   0  0  0  0  0  0  0  0  0  0  0  0
  -18.4130    0.0050  -33.4360 O   0  0  0  0  0  0  0  0  0  0  0  0
  -21.5830    2.2820  -35.7430 C   0  0  0  0  0  2  0  0  0  0  0  0
  -22.7640    1.6450  -35.6580 C   0  0  0  0  0  2  0  0  0  0  0  0
  -19.7170    2.6770  -34.1330 C   0  0  0  0  0  1  0  0  0  0  0  0
  -20.4280   -1.2670  -31.4880 C   0  0  0  0  0  0  0  0  0  0  0  0
  -20.3800   -0.3000  -30.5050 C   0  0  0  0  0  3  0  0  0  0  0  0
  -20.3020   -0.6100  -29.1430 C   0  0  0  0  0  3  0  0  0  0  0  0
  -20.2680   -1.9190  -28.7220 C   0  0  0  0  0  0  0  0  0  0  0  0
  -20.3160   -2.8950  -29.6900 C   0  0  0  0  0  0  0  0  0  0  0  0
  -20.1820   -2.2470  -27.2680 C   0  0  0  0  0  1  0  0  0  0  0  0
  -20.2710   -4.7180  -29.1470 Br  0  0  0  0  0  0  0  0  0  0  0  0
  -20.3940   -2.5790  -31.0490 C   0  0  0  0  0  3  0  0  0  0  0  0
  -23.8830    0.3530  -33.8460 C   0  0  0  0  0  2  0  0  0  0  0  0
  -24.5280    1.4340  -33.2500 O   0  0  0  0  0  0  0  0  0  0  0  0
  -24.0080    1.8310  -32.4970 H   0  0  0  0  0  0  0  0  0  0  0  0
  1 14  1  0  0  0  0
  2  3  2  0  0  0  0
  2  1  1  0  0  0  0
  4  5  1  0  0  0  0
  4  2  1  1  0  0  0
  5 22  1  1  0  0  0
  5  6  1  0  0  0  0
  7 13  1  1  0  0  0
  7  6  1  0  0  0  0
  8  4  1  0  0  0  0
  8  7  1  0  0  0  0
  8  9  1  1  0  0  0
  9 10  2  0  0  0  0
  9  1  1  0  0  0  0
 11 12  1  0  0  0  0
 11  7  1  0  0  0  0
 12  5  1  0  0  0  0
 14 21  2  0  0  0  0
 14 15  1  0  0  0  0
 15 16  2  0  0  0  0
 16 17  1  0  0  0  0
 17 19  1  0  0  0  0
 18 20  1  0  0  0  0
 18 17  2  0  0  0  0
 21 18  1  0  0  0  0
 22 23  1  0  0  0  0
 23 24  1  0  0  0  0
M  END
>  <Pose>
1

>  <Score>
-8.134

$$$$
