MODEL 1
REMARK VINA RESULT:    -8.134      0.000      0.000
REMARK INTER + INTRA:          -9.814
REMARK INTER:                  -9.322
REMARK INTRA:                  -0.491
REMARK UNBOUND:                -0.491
REMARK  3 active torsions:
REMARK  status: ('A' for Active; 'I' for Inactive)
REMARK    1  A    between atoms: C_6  and  N_8 
REMARK    2  A    between atoms: C_12  and  C_21 
REMARK    3  A    between atoms: C_21  and  O_22 
ROOT
ATOM      1  N   UNK d   1     -20.508  -0.954 -32.872  0.00  0.00    -0.252 N 
ATOM      2  C   UNK d   1     -21.550  -1.367 -33.748  0.00  0.00     0.239 C 
ATOM      3  O   UNK d   1     -22.261  -2.390 -33.655  0.00  0.00    -0.272 OA
ATOM      4  C   UNK d   1     -21.695  -0.369 -34.851  0.00  0.00     0.136 C 
ATOM      5  C   UNK d   1     -22.613   0.748 -34.481  0.00  0.00     0.114 C 
ATOM      6  O   UNK d   1     -21.804   1.567 -33.655  0.00  0.00    -0.358 OA
ATOM      7  C   UNK d   1     -20.768   1.764 -34.603  0.00  0.00     0.089 C 
ATOM      8  C   UNK d   1     -20.349   0.352 -34.852  0.00  0.00     0.133 C 
ATOM      9  C   UNK d   1     -19.623  -0.187 -33.678  0.00  0.00     0.239 C 
ATOM     10  O   UNK d   1     -18.413   0.005 -33.436  0.00  0.00    -0.272 OA
ATOM     11  C   UNK d   1     -21.583   2.282 -35.743  0.00  0.00     0.010 C 
ATOM     12  C   UNK d   1     -22.764   1.645 -35.658  0.00  0.00     0.013 C 
ATOM     13  C   UNK d   1     -19.717   2.677 -34.133  0.00  0.00     0.051 C 
ENDROOT
BRANCH   1  14
ATOM     14  C   UNK d   1     -20.428  -1.267 -31.488  0.00  0.00     0.046 A 
ATOM     15  C   UNK d   1     -20.380  -0.300 -30.505  0.00  0.00     0.031 A 
ATOM     16  C   UNK d   1     -20.302  -0.610 -29.143  0.00  0.00     0.010 A 
ATOM     17  C   UNK d   1     -20.268  -1.919 -28.722  0.00  0.00    -0.044 A 
ATOM     18  C   UNK d   1     -20.316  -2.895 -29.690  0.00  0.00     0.019 A 
ATOM     19  C   UNK d   1     -20.182  -2.247 -27.268  0.00  0.00     0.049 C 
ATOM     20 Br   UNK d   1     -20.271  -4.718 -29.147  0.00  0.00    -0.051 Br
ATOM     21  C   UNK d   1     -20.394  -2.579 -31.049  0.00  0.00     0.050 A 
ENDBRANCH   1  14
BRANCH   5  22
ATOM     22  C   UNK d   1     -23.883   0.353 -33.846  0.00  0.00     0.207 C 
BRANCH  22  23
ATOM     23  O   UNK d   1     -24.528   1.434 -33.250  0.00  0.00    -0.398 OA
ATOM     24  H   UNK d   1     -24.008   1.831 -32.497  0.00  0.00     0.209 HD
ENDBRANCH  22  23
ENDBRANCH   5  22
TORSDOF 3
ENDMDL
