/Users/jonathanwahrer/Desktop/Msc/3_Semester/Drug_Design_Praktikum/waehrer_HTS_screening/HTS_experiment/out/docking_results/vina_output/5l4q/1315_docked.pdbqt
 OpenBabel03212218423D

 30 33  0  0  1  0  0  0  0  0999 V2000
  -19.1220   -1.3400  -31.7260 N   0  0  0  0  0  0  0  0  0  0  0  0
  -20.1700   -2.2220  -31.8000 C   0  0  0  0  0  0  0  0  0  0  0  0
  -20.7080   -2.0790  -33.0470 C   0  0  0  0  0  0  0  0  0  0  0  0
  -21.8110   -2.8580  -33.4120 C   0  0  0  0  0  3  0  0  0  0  0  0
  -22.3360   -3.7570  -32.5080 C   0  0  0  0  0  3  0  0  0  0  0  0
  -21.7940   -3.9050  -31.2500 C   0  0  0  0  0  3  0  0  0  0  0  0
  -20.6930   -3.1220  -30.8960 C   0  0  0  0  0  3  0  0  0  0  0  0
  -19.9940   -1.1360  -33.6990 N   0  0  0  0  0  0  0  0  0  0  0  0
  -19.0210   -0.6760  -32.9090 C   0  0  2  0  0  3  0  0  0  0  0  0
  -18.2420   -1.2190  -30.5830 C   0  0  0  0  0  2  0  0  0  0  0  0
  -18.8430   -0.5200  -29.4400 C   0  0  1  0  0  3  0  0  0  0  0  0
  -19.5620    0.5400  -29.7350 O   0  0  0  0  0  1  0  0  0  0  0  0
  -18.7790   -0.8010  -28.0290 C   0  0  0  0  0  0  0  0  0  0  0  0
  -18.3980    0.0770  -27.0550 C   0  0  0  0  0  3  0  0  0  0  0  0
  -18.3780   -0.2590  -25.7320 C   0  0  0  0  0  0  0  0  0  0  0  0
  -17.8380    1.0240  -24.3870 Br  0  0  0  0  0  0  0  0  0  0  0  0
  -18.7520   -1.5260  -25.3450 C   0  0  0  0  0  3  0  0  0  0  0  0
  -19.1470   -2.4550  -26.2790 C   0  0  0  0  0  3  0  0  0  0  0  0
  -19.1550   -2.0820  -27.5950 C   0  0  0  0  0  3  0  0  0  0  0  0
  -18.0860    0.1800  -33.2560 N   0  0  0  0  0  0  0  0  0  0  0  0
  -17.0930   -0.0340  -33.2230 H   0  0  0  0  0  0  0  0  0  0  0  0
  -18.3730    1.1240  -33.5470 H   0  0  0  0  0  0  0  0  0  0  0  0
  -20.2830   -0.7730  -35.0750 C   0  0  0  0  0  2  0  0  0  0  0  0
  -20.6510    0.6350  -35.3080 C   0  0  0  0  0  2  0  0  0  0  0  0
  -21.8950    0.9400  -35.9160 N   0  0  0  0  0  0  0  0  0  0  0  0
  -22.1910    2.3900  -35.7940 C   0  0  0  0  0  2  0  0  0  0  0  0
  -22.1690    2.8500  -34.3730 C   0  0  0  0  0  2  0  0  0  0  0  0
  -23.2550    2.2510  -33.7340 O   0  0  0  0  0  0  0  0  0  0  0  0
  -23.2020    0.8810  -33.8120 C   0  0  0  0  0  2  0  0  0  0  0  0
  -23.0280    0.3290  -35.2010 C   0  0  0  0  0  2  0  0  0  0  0  0
  1 10  1  0  0  0  0
  2  1  1  0  0  0  0
  2  7  1  0  0  0  0
  3  2  2  0  0  0  0
  4  3  1  0  0  0  0
  4  5  2  0  0  0  0
  5  6  1  0  0  0  0
  6  7  2  0  0  0  0
  8  3  1  0  0  0  0
  8  9  1  0  0  0  0
  9 20  1  6  0  0  0
  9  1  1  0  0  0  0
 10 11  1  0  0  0  0
 11 12  1  6  0  0  0
 11 13  1  0  0  0  0
 13 19  2  0  0  0  0
 13 14  1  0  0  0  0
 14 15  2  0  0  0  0
 15 17  1  0  0  0  0
 15 16  1  0  0  0  0
 18 17  2  0  0  0  0
 19 18  1  0  0  0  0
 20 21  1  0  0  0  0
 22 20  1  0  0  0  0
 23  8  1  0  0  0  0
 24 23  1  0  0  0  0
 25 26  1  0  0  0  0
 25 24  1  0  0  0  0
 25 30  1  0  0  0  0
 26 27  1  0  0  0  0
 27 28  1  0  0  0  0
 29 28  1  0  0  0  0
 30 29  1  0  0  0  0
M  END
>  <Pose>
1

>  <Score>
-8.703

$$$$
