MODEL 1
REMARK VINA RESULT:    -8.703      0.000      0.000
REMARK INTER + INTRA:         -13.059
REMARK INTER:                 -12.010
REMARK INTRA:                  -1.049
REMARK UNBOUND:                -1.049
REMARK  7 active torsions:
REMARK  status: ('A' for Active; 'I' for Inactive)
REMARK    1  A    between atoms: C_4  and  C_8 
REMARK    2  A    between atoms: C_8  and  C_10 
REMARK    3  A    between atoms: C_10  and  N_11 
REMARK    4  A    between atoms: N_18  and  C_21 
REMARK    5  A    between atoms: C_19  and  N_20 
REMARK    6  A    between atoms: C_21  and  C_22 
REMARK    7  A    between atoms: C_22  and  N_23 
ROOT
ATOM      1  N   UNK d   1     -19.122  -1.340 -31.726  0.00  0.00    -0.175 N 
ATOM      2  C   UNK d   1     -20.170  -2.222 -31.800  0.00  0.00     0.079 A 
ATOM      3  C   UNK d   1     -20.708  -2.079 -33.047  0.00  0.00     0.079 A 
ATOM      4  C   UNK d   1     -21.811  -2.858 -33.412  0.00  0.00     0.032 A 
ATOM      5  C   UNK d   1     -22.336  -3.757 -32.508  0.00  0.00     0.002 A 
ATOM      6  C   UNK d   1     -21.794  -3.905 -31.250  0.00  0.00     0.002 A 
ATOM      7  C   UNK d   1     -20.693  -3.122 -30.896  0.00  0.00     0.032 A 
ATOM      8  N   UNK d   1     -19.994  -1.136 -33.699  0.00  0.00    -0.179 N 
ATOM      9  C   UNK d   1     -19.021  -0.676 -32.909  0.00  0.00     0.681 A 
ENDROOT
BRANCH   1  10
ATOM     10  C   UNK d   1     -18.242  -1.219 -30.583  0.00  0.00     0.216 C 
BRANCH  10  11
ATOM     11  C   UNK d   1     -18.843  -0.520 -29.440  0.00  0.00     0.113 C 
ATOM     12  O   UNK d   1     -19.562   0.540 -29.735  0.00  0.00    -0.194 OA
BRANCH  11  13
ATOM     13  C   UNK d   1     -18.779  -0.801 -28.029  0.00  0.00    -0.001 A 
ATOM     14  C   UNK d   1     -18.398   0.077 -27.055  0.00  0.00     0.033 A 
ATOM     15  C   UNK d   1     -18.378  -0.259 -25.732  0.00  0.00     0.011 A 
ATOM     16 Br   UNK d   1     -17.838   1.024 -24.387  0.00  0.00    -0.051 Br
ATOM     17  C   UNK d   1     -18.752  -1.526 -25.345  0.00  0.00     0.019 A 
ATOM     18  C   UNK d   1     -19.147  -2.455 -26.279  0.00  0.00     0.002 A 
ATOM     19  C   UNK d   1     -19.155  -2.082 -27.595  0.00  0.00     0.014 A 
ENDBRANCH  11  13
ENDBRANCH  10  11
ENDBRANCH   1  10
BRANCH   9  20
ATOM     20  N   UNK d   1     -18.086   0.180 -33.256  0.00  0.00    -0.234 N 
ATOM     21  H   UNK d   1     -17.093  -0.034 -33.223  0.00  0.00     0.174 HD
ATOM     22  H   UNK d   1     -18.373   1.124 -33.547  0.00  0.00     0.174 HD
ENDBRANCH   9  20
BRANCH   8  23
ATOM     23  C   UNK d   1     -20.283  -0.773 -35.075  0.00  0.00     0.178 C 
BRANCH  23  24
ATOM     24  C   UNK d   1     -20.651   0.635 -35.308  0.00  0.00     0.293 C 
BRANCH  24  25
ATOM     25  N   UNK d   1     -21.895   0.940 -35.916  0.00  0.00     0.094 N 
ATOM     26  C   UNK d   1     -22.191   2.390 -35.794  0.00  0.00     0.298 C 
ATOM     27  C   UNK d   1     -22.169   2.850 -34.373  0.00  0.00     0.198 C 
ATOM     28  O   UNK d   1     -23.255   2.251 -33.734  0.00  0.00    -0.388 OA
ATOM     29  C   UNK d   1     -23.202   0.881 -33.812  0.00  0.00     0.198 C 
ATOM     30  C   UNK d   1     -23.028   0.329 -35.201  0.00  0.00     0.298 C 
ENDBRANCH  24  25
ENDBRANCH  23  24
ENDBRANCH   8  23
TORSDOF 7
ENDMDL
