MODEL 1
REMARK VINA RESULT:    -7.796      0.000      0.000
REMARK INTER + INTRA:         -10.128
REMARK INTER:                 -10.075
REMARK INTRA:                  -0.053
REMARK UNBOUND:                -0.053
REMARK  5 active torsions:
REMARK  status: ('A' for Active; 'I' for Inactive)
REMARK    1  A    between atoms: C_5  and  C_8 
REMARK    2  A    between atoms: N_9  and  C_26 
REMARK    3  A    between atoms: C_15  and  C_17 
REMARK    4  A    between atoms: C_26  and  C_27 
REMARK    5  A    between atoms: C_27  and  N_28 
ROOT
ATOM      1  C   UNK d   1     -22.014   0.474 -36.131  0.00  0.00     0.161 C 
ATOM      2  N   UNK d   1     -22.322  -0.530 -37.106  0.00  0.00    -0.331 N 
ATOM      3  C   UNK d   1     -23.149  -1.479 -36.368  0.00  0.00     0.295 C 
ATOM      4  O   UNK d   1     -24.002  -2.251 -36.858  0.00  0.00    -0.264 OA
ATOM      5  C   UNK d   1     -22.798  -1.364 -34.965  0.00  0.00     0.251 C 
ATOM      6  O   UNK d   1     -23.267  -1.994 -33.970  0.00  0.00    -0.282 OA
ATOM      7  C   UNK d   1     -21.756  -0.334 -34.905  0.00  0.00     0.064 C 
ATOM      8  C   UNK d   1     -20.874  -0.189 -33.954  0.00  0.00     0.153 C 
ATOM      9  O   UNK d   1     -19.984   0.889 -34.031  0.00  0.00    -0.188 OA
ENDROOT
BRANCH   1  10
ATOM     10  C   UNK d   1     -21.007   1.458 -36.437  0.00  0.00    -0.030 A 
ATOM     11  C   UNK d   1     -21.326   2.812 -36.225  0.00  0.00     0.011 A 
ATOM     12  C   UNK d   1     -20.442   3.834 -36.463  0.00  0.00     0.019 A 
ATOM     13  C   UNK d   1     -19.179   3.572 -36.930  0.00  0.00     0.011 A 
ATOM     14 Br   UNK d   1     -17.919   4.974 -37.274  0.00  0.00    -0.051 Br
ATOM     15  C   UNK d   1     -18.860   2.250 -37.140  0.00  0.00     0.019 A 
ATOM     16  C   UNK d   1     -19.750   1.221 -36.900  0.00  0.00     0.011 A 
ENDBRANCH   1  10
BRANCH   8  17
ATOM     17  C   UNK d   1     -20.793  -1.132 -32.821  0.00  0.00     0.114 A 
ATOM     18  O   UNK d   1     -20.840  -2.456 -32.917  0.00  0.00    -0.307 OA
ATOM     19  C   UNK d   1     -20.747  -3.025 -31.743  0.00  0.00     0.086 A 
ATOM     20  C   UNK d   1     -20.631  -2.059 -30.766  0.00  0.00     0.001 A 
ATOM     21  C   UNK d   1     -20.746  -4.358 -31.318  0.00  0.00     0.038 A 
ATOM     22  C   UNK d   1     -20.663  -0.872 -31.478  0.00  0.00     0.054 A 
ATOM     23  C   UNK d   1     -20.517  -2.411 -29.440  0.00  0.00     0.014 A 
ATOM     24  C   UNK d   1     -20.514  -3.720 -29.011  0.00  0.00     0.001 A 
ATOM     25  C   UNK d   1     -20.632  -4.693 -29.987  0.00  0.00     0.003 A 
ENDBRANCH   8  17
BRANCH   2  26
ATOM     26  C   UNK d   1     -22.029  -0.667 -38.515  0.00  0.00     0.155 C 
BRANCH  26  27
ATOM     27  C   UNK d   1     -23.030  -0.193 -39.483  0.00  0.00     0.254 C 
BRANCH  27  28
ATOM     28  N   UNK d   1     -22.918   1.169 -39.936  0.00  0.00    -0.077 N 
ATOM     29  C   UNK d   1     -23.794   2.059 -39.230  0.00  0.00     0.269 C 
ATOM     30  C   UNK d   1     -21.573   1.645 -40.095  0.00  0.00     0.269 C 
ATOM     31  H   UNK d   1     -23.322   1.136 -40.934  0.00  0.00     0.279 HD
ENDBRANCH  27  28
ENDBRANCH  26  27
ENDBRANCH   2  26
TORSDOF 5
ENDMDL
