/Users/jonathanwahrer/Desktop/Msc/3_Semester/Drug_Design_Praktikum/waehrer_HTS_screening/HTS_experiment/out/docking_results/vina_output/5l4q/1325_docked.pdbqt
 OpenBabel03212218423D

 31 34  0  0  1  0  0  0  0  0999 V2000
  -22.0140    0.4740  -36.1310 C   0  0  1  0  0  3  0  0  0  0  0  0
  -22.3220   -0.5300  -37.1060 N   0  0  0  0  0  0  0  0  0  0  0  0
  -23.1490   -1.4790  -36.3680 C   0  0  0  0  0  0  0  0  0  0  0  0
  -24.0020   -2.2510  -36.8580 O   0  0  0  0  0  0  0  0  0  0  0  0
  -22.7980   -1.3640  -34.9650 C   0  0  0  0  0  0  0  0  0  0  0  0
  -23.2670   -1.9940  -33.9700 O   0  0  0  0  0  0  0  0  0  0  0  0
  -21.7560   -0.3340  -34.9050 C   0  0  0  0  0  0  0  0  0  0  0  0
  -20.8740   -0.1890  -33.9540 C   0  0  0  0  0  0  0  0  0  0  0  0
  -19.9840    0.8890  -34.0310 O   0  0  0  0  0  1  0  0  0  0  0  0
  -21.0070    1.4580  -36.4370 C   0  0  0  0  0  0  0  0  0  0  0  0
  -21.3260    2.8120  -36.2250 C   0  0  0  0  0  3  0  0  0  0  0  0
  -20.4420    3.8340  -36.4630 C   0  0  0  0  0  3  0  0  0  0  0  0
  -19.1790    3.5720  -36.9300 C   0  0  0  0  0  0  0  0  0  0  0  0
  -17.9190    4.9740  -37.2740 Br  0  0  0  0  0  0  0  0  0  0  0  0
  -18.8600    2.2500  -37.1400 C   0  0  0  0  0  3  0  0  0  0  0  0
  -19.7500    1.2210  -36.9000 C   0  0  0  0  0  3  0  0  0  0  0  0
  -20.7930   -1.1320  -32.8210 C   0  0  0  0  0  0  0  0  0  0  0  0
  -20.8400   -2.4560  -32.9170 O   0  0  0  0  0  0  0  0  0  0  0  0
  -20.7470   -3.0250  -31.7430 C   0  0  0  0  0  0  0  0  0  0  0  0
  -20.6310   -2.0590  -30.7660 C   0  0  0  0  0  0  0  0  0  0  0  0
  -20.7460   -4.3580  -31.3180 C   0  0  0  0  0  3  0  0  0  0  0  0
  -20.6630   -0.8720  -31.4780 C   0  0  0  0  0  3  0  0  0  0  0  0
  -20.5170   -2.4110  -29.4400 C   0  0  0  0  0  3  0  0  0  0  0  0
  -20.5140   -3.7200  -29.0110 C   0  0  0  0  0  3  0  0  0  0  0  0
  -20.6320   -4.6930  -29.9870 C   0  0  0  0  0  3  0  0  0  0  0  0
  -22.0290   -0.6670  -38.5150 C   0  0  0  0  0  2  0  0  0  0  0  0
  -23.0300   -0.1930  -39.4830 C   0  0  0  0  0  2  0  0  0  0  0  0
  -22.9180    1.1690  -39.9360 N   0  0  0  0  0  4  0  0  0  0  0  0
  -23.7940    2.0590  -39.2300 C   0  0  0  0  0  1  0  0  0  0  0  0
  -21.5730    1.6450  -40.0950 C   0  0  0  0  0  1  0  0  0  0  0  0
  -23.3220    1.1360  -40.9340 H   0  0  0  0  0  0  0  0  0  0  0  0
  1 10  1  6  0  0  0
  1  7  1  0  0  0  0
  2  3  1  0  0  0  0
  2  1  1  0  0  0  0
  3  5  1  0  0  0  0
  4  3  2  0  0  0  0
  5  7  1  0  0  0  0
  5  6  2  0  0  0  0
  7  8  2  0  0  0  0
  8 17  1  0  0  0  0
  9  8  1  0  0  0  0
 10 11  1  0  0  0  0
 12 11  2  0  0  0  0
 13 12  1  0  0  0  0
 14 13  1  0  0  0  0
 15 13  2  0  0  0  0
 15 16  1  0  0  0  0
 16 10  2  0  0  0  0
 17 22  2  0  0  0  0
 18 17  1  0  0  0  0
 18 19  1  0  0  0  0
 19 21  2  0  0  0  0
 19 20  1  0  0  0  0
 20 23  2  0  0  0  0
 21 25  1  0  0  0  0
 22 20  1  0  0  0  0
 23 24  1  0  0  0  0
 25 24  2  0  0  0  0
 26  2  1  0  0  0  0
 27 26  1  0  0  0  0
 28 27  1  0  0  0  0
 28 29  1  0  0  0  0
 30 28  1  0  0  0  0
 31 28  1  0  0  0  0
M  END
>  <Pose>
1

>  <Score>
-7.796

$$$$
