/Users/jonathanwahrer/Desktop/Msc/3_Semester/Drug_Design_Praktikum/waehrer_HTS_screening/HTS_experiment/out/docking_results/vina_output/5l4q/1329_docked.pdbqt
 OpenBabel03212218423D

 28 31  0  0  0  0  0  0  0  0999 V2000
  -19.3620   -2.2200  -26.9710 C   0  0  0  0  0  3  0  0  0  0  0  0
  -19.7980   -2.6420  -28.1600 C   0  0  0  0  0  0  0  0  0  0  0  0
  -19.9670   -1.8790  -29.3130 O   0  0  0  0  0  0  0  0  0  0  0  0
  -20.4250   -2.6530  -30.3430 C   0  0  0  0  0  0  0  0  0  0  0  0
  -20.5840   -3.9690  -29.9220 C   0  0  0  0  0  0  0  0  0  0  0  0
  -21.0370   -4.9020  -30.8420 C   0  0  0  0  0  3  0  0  0  0  0  0
  -21.3180   -4.5210  -32.1340 C   0  0  0  0  0  3  0  0  0  0  0  0
  -21.1470   -3.1890  -32.5210 C   0  0  0  0  0  0  0  0  0  0  0  0
  -20.7010   -2.2470  -31.6320 C   0  0  0  0  0  0  0  0  0  0  0  0
  -21.4560   -2.9070  -33.8420 O   0  0  0  0  0  1  0  0  0  0  0  0
  -20.1870   -4.0070  -28.5040 C   0  0  0  0  0  0  0  0  0  0  0  0
  -20.2040   -5.0370  -27.7810 O   0  0  0  0  0  0  0  0  0  0  0  0
  -20.6160   -0.8510  -32.0650 C   0  0  0  0  0  2  0  0  0  0  0  0
  -19.8420   -0.5960  -33.2250 N   0  0  0  0  0  4  0  0  0  0  0  0
  -18.5440   -0.0910  -32.8050 C   0  0  0  0  0  2  0  0  0  0  0  0
  -17.9790    0.9910  -33.6580 C   0  0  0  0  0  2  0  0  0  0  0  0
  -18.8630    2.0650  -33.9470 N   0  0  0  0  0  0  0  0  0  0  0  0
  -20.2170    1.7400  -33.6410 C   0  0  0  0  0  2  0  0  0  0  0  0
  -18.6970    2.4820  -35.3240 C   0  0  0  0  0  1  0  0  0  0  0  0
  -20.5170    0.3480  -34.0840 C   0  0  0  0  0  2  0  0  0  0  0  0
  -19.7040   -1.4620  -33.8280 H   0  0  0  0  0  0  0  0  0  0  0  0
  -18.9970   -0.8340  -26.7570 C   0  0  0  0  0  0  0  0  0  0  0  0
  -18.5120   -0.4080  -25.5400 C   0  0  0  0  0  3  0  0  0  0  0  0
  -18.1780    0.9300  -25.3440 C   0  0  0  0  0  0  0  0  0  0  0  0
  -17.5140    1.5230  -23.6530 Br  0  0  0  0  0  0  0  0  0  0  0  0
  -18.3340    1.8380  -26.3790 C   0  0  0  0  0  3  0  0  0  0  0  0
  -18.8230    1.3730  -27.5790 C   0  0  0  0  0  3  0  0  0  0  0  0
  -19.1570    0.0560  -27.7910 C   0  0  0  0  0  3  0  0  0  0  0  0
  1 22  1  0  0  0  0
  2  1  2  0  0  0  0
  3  2  1  0  0  0  0
  4  5  1  0  0  0  0
  4  3  1  0  0  0  0
  5 11  1  0  0  0  0
  6  5  2  0  0  0  0
  7  6  1  0  0  0  0
  8  7  2  0  0  0  0
  8  9  1  0  0  0  0
  9  4  2  0  0  0  0
 10  8  1  0  0  0  0
 11  2  1  0  0  0  0
 11 12  2  0  0  0  0
 13  9  1  0  0  0  0
 14 15  1  0  0  0  0
 14 13  1  0  0  0  0
 16 15  1  0  0  0  0
 17 16  1  0  0  0  0
 17 18  1  0  0  0  0
 19 17  1  0  0  0  0
 20 18  1  0  0  0  0
 20 14  1  0  0  0  0
 21 14  1  0  0  0  0
 22 23  1  0  0  0  0
 23 24  2  0  0  0  0
 24 25  1  0  0  0  0
 26 24  1  0  0  0  0
 27 26  2  0  0  0  0
 28 27  1  0  0  0  0
 28 22  2  0  0  0  0
M  END
>  <Pose>
1

>  <Score>
-9.964

$$$$
