MODEL 1
REMARK VINA RESULT:    -9.964      0.000      0.000
REMARK INTER + INTRA:         -11.879
REMARK INTER:                 -11.712
REMARK INTRA:                  -0.167
REMARK UNBOUND:                -0.167
REMARK  3 active torsions:
REMARK  status: ('A' for Active; 'I' for Inactive)
REMARK    1  A    between atoms: C_4  and  C_8 
REMARK    2  A    between atoms: C_16  and  C_17 
REMARK    3  A    between atoms: C_17  and  N_18 
ROOT
ATOM      1  C   UNK d   1     -19.362  -2.220 -26.971  0.00  0.00     0.053 C 
ATOM      2  C   UNK d   1     -19.798  -2.642 -28.160  0.00  0.00     0.127 A 
ATOM      3  O   UNK d   1     -19.967  -1.879 -29.313  0.00  0.00    -0.305 OA
ATOM      4  C   UNK d   1     -20.425  -2.653 -30.343  0.00  0.00     0.101 A 
ATOM      5  C   UNK d   1     -20.584  -3.969 -29.922  0.00  0.00     0.051 A 
ATOM      6  C   UNK d   1     -21.037  -4.902 -30.842  0.00  0.00     0.021 A 
ATOM      7  C   UNK d   1     -21.318  -4.521 -32.134  0.00  0.00     0.041 A 
ATOM      8  C   UNK d   1     -21.147  -3.189 -32.521  0.00  0.00     0.118 A 
ATOM      9  C   UNK d   1     -20.701  -2.247 -31.632  0.00  0.00     0.039 A 
ATOM     10  O   UNK d   1     -21.456  -2.907 -33.842  0.00  0.00    -0.191 OA
ATOM     11  C   UNK d   1     -20.187  -4.007 -28.504  0.00  0.00     0.218 A 
ATOM     12  O   UNK d   1     -20.204  -5.037 -27.781  0.00  0.00    -0.284 OA
ENDROOT
BRANCH   9  13
ATOM     13  C   UNK d   1     -20.616  -0.851 -32.065  0.00  0.00     0.279 C 
BRANCH  13  14
ATOM     14  N   UNK d   1     -19.842  -0.596 -33.225  0.00  0.00    -0.064 N 
ATOM     15  C   UNK d   1     -18.544  -0.091 -32.805  0.00  0.00     0.265 C 
ATOM     16  C   UNK d   1     -17.979   0.991 -33.658  0.00  0.00     0.299 C 
ATOM     17  N   UNK d   1     -18.863   2.065 -33.947  0.00  0.00     0.087 N 
ATOM     18  C   UNK d   1     -20.217   1.740 -33.641  0.00  0.00     0.299 C 
ATOM     19  C   UNK d   1     -18.697   2.482 -35.324  0.00  0.00     0.310 C 
ATOM     20  C   UNK d   1     -20.517   0.348 -34.084  0.00  0.00     0.265 C 
ATOM     21  H   UNK d   1     -19.704  -1.462 -33.828  0.00  0.00     0.280 HD
ENDBRANCH  13  14
ENDBRANCH   9  13
BRANCH   1  22
ATOM     22  C   UNK d   1     -18.997  -0.834 -26.757  0.00  0.00    -0.032 A 
ATOM     23  C   UNK d   1     -18.512  -0.408 -25.540  0.00  0.00     0.030 A 
ATOM     24  C   UNK d   1     -18.178   0.930 -25.344  0.00  0.00     0.011 A 
ATOM     25 Br   UNK d   1     -17.514   1.523 -23.653  0.00  0.00    -0.051 Br
ATOM     26  C   UNK d   1     -18.334   1.838 -26.379  0.00  0.00     0.019 A 
ATOM     27  C   UNK d   1     -18.823   1.373 -27.579  0.00  0.00     0.002 A 
ATOM     28  C   UNK d   1     -19.157   0.056 -27.791  0.00  0.00     0.011 A 
ENDBRANCH   1  22
TORSDOF 3
ENDMDL
