/Users/jonathanwahrer/Desktop/Msc/3_Semester/Drug_Design_Praktikum/waehrer_HTS_screening/HTS_experiment/out/docking_results/vina_output/5l4q/1337_docked.pdbqt
 OpenBabel03212218423D

 32 35  0  0  1  0  0  0  0  0999 V2000
  -22.1930    0.0590  -36.2080 C   0  0  2  0  0  3  0  0  0  0  0  0
  -22.9740   -0.1240  -37.2880 O   0  0  0  0  0  0  0  0  0  0  0  0
  -22.6450    0.5100  -38.4440 C   0  0  2  0  0  3  0  0  0  0  0  0
  -23.3660   -0.0960  -39.4830 O   0  0  0  0  0  0  0  0  0  0  0  0
  -22.6080   -1.1370  -39.9590 C   0  0  0  0  0  0  0  0  0  0  0  0
  -21.3510   -1.0670  -39.3930 O   0  0  0  0  0  0  0  0  0  0  0  0
  -21.2270    0.2530  -38.8990 C   0  0  2  0  0  3  0  0  0  0  0  0
  -20.2490    0.3510  -37.7930 C   0  0  1  0  0  3  0  0  0  0  0  0
  -19.4360    1.5000  -37.9240 O   0  0  0  0  0  0  0  0  0  0  0  0
  -19.3140    2.0620  -36.6790 C   0  0  0  0  0  0  0  0  0  0  0  0
  -20.4890    1.7480  -36.0460 O   0  0  0  0  0  0  0  0  0  0  0  0
  -20.7740    0.4280  -36.4250 C   0  0  1  0  0  3  0  0  0  0  0  0
  -19.1760    3.5750  -36.8870 C   0  0  0  0  0  1  0  0  0  0  0  0
  -18.0770    1.6250  -35.9400 C   0  0  0  0  0  1  0  0  0  0  0  0
  -22.4090   -1.0530  -41.4730 C   0  0  0  0  0  1  0  0  0  0  0  0
  -23.2430   -2.4920  -39.6880 C   0  0  0  0  0  1  0  0  0  0  0  0
  -22.3050   -1.1340  -35.3280 C   0  0  0  0  0  0  0  0  0  0  0  0
  -21.2120   -1.5170  -34.5120 N   0  0  0  0  0  0  0  0  0  0  0  0
  -20.3440   -0.9400  -34.5520 H   0  0  0  0  0  0  0  0  0  0  0  0
  -23.3510   -1.8360  -35.2760 O   0  0  0  0  0  0  0  0  0  0  0  0
  -21.2330   -2.6500  -33.6370 C   0  0  0  0  0  2  0  0  0  0  0  0
  -20.5810   -2.3360  -32.3390 C   0  0  0  0  0  0  0  0  0  0  0  0
  -21.0120   -2.8880  -31.1200 N   0  0  0  0  0  0  0  0  0  0  0  0
  -21.8480   -3.5540  -31.1960 H   0  0  0  0  0  0  0  0  0  0  0  0
  -19.6160   -1.5460  -32.3800 O   0  0  0  0  0  0  0  0  0  0  0  0
  -20.5020   -2.6860  -29.8420 C   0  0  0  0  0  0  0  0  0  0  0  0
  -20.4630   -3.7470  -28.9480 C   0  0  0  0  0  3  0  0  0  0  0  0
  -19.9780   -3.6490  -27.6640 C   0  0  0  0  0  3  0  0  0  0  0  0
  -19.4970   -2.4410  -27.2110 C   0  0  0  0  0  0  0  0  0  0  0  0
  -18.8270   -2.3320  -25.4190 Br  0  0  0  0  0  0  0  0  0  0  0  0
  -19.5150   -1.3750  -28.0520 C   0  0  0  0  0  3  0  0  0  0  0  0
  -20.0130   -1.4930  -29.3580 C   0  0  0  0  0  3  0  0  0  0  0  0
  1 17  1  6  0  0  0
  2  1  1  0  0  0  0
  3  4  1  6  0  0  0
  3  2  1  0  0  0  0
  5 16  1  0  0  0  0
  5  4  1  0  0  0  0
  5  6  1  0  0  0  0
  7  6  1  1  0  0  0
  7  3  1  0  0  0  0
  7  8  1  0  0  0  0
  8  9  1  6  0  0  0
  8 12  1  0  0  0  0
  9 10  1  0  0  0  0
 10 11  1  0  0  0  0
 10 14  1  0  0  0  0
 12  1  1  0  0  0  0
 12 11  1  6  0  0  0
 13 10  1  0  0  0  0
 15  5  1  0  0  0  0
 17 20  2  0  0  0  0
 17 18  1  0  0  0  0
 18 21  1  0  0  0  0
 19 18  1  0  0  0  0
 21 22  1  0  0  0  0
 22 23  1  0  0  0  0
 23 26  1  0  0  0  0
 24 23  1  0  0  0  0
 25 22  2  0  0  0  0
 26 32  2  0  0  0  0
 26 27  1  0  0  0  0
 27 28  2  0  0  0  0
 28 29  1  0  0  0  0
 29 30  1  0  0  0  0
 31 29  2  0  0  0  0
 32 31  1  0  0  0  0
M  END
>  <Pose>
1

>  <Score>
-9.618

$$$$
