/Users/jonathanwahrer/Desktop/Msc/3_Semester/Drug_Design_Praktikum/waehrer_HTS_screening/HTS_experiment/out/docking_results/vina_output/5l4q/1341_docked.pdbqt
 OpenBabel03212218423D

 28 31  0  0  0  0  0  0  0  0999 V2000
  -19.1110   -1.0640  -28.9920 C   0  0  0  0  0  0  0  0  0  0  0  0
  -19.8720   -2.1410  -29.2970 N   0  0  0  0  0  0  0  0  0  0  0  0
  -19.8880   -2.2910  -30.6370 C   0  0  0  0  0  0  0  0  0  0  0  0
  -19.1480   -1.3270  -31.2250 N   0  0  0  0  0  0  0  0  0  0  0  0
  -18.6730   -0.5770  -30.2040 C   0  0  0  0  0  3  0  0  0  0  0  0
  -20.7160   -3.4690  -31.0000 C   0  0  0  0  0  3  0  0  0  0  0  0
  -21.2910   -3.9830  -29.7250 C   0  0  0  0  0  3  0  0  0  0  0  0
  -20.6640   -3.1670  -28.6560 C   0  0  0  0  0  3  0  0  0  0  0  0
  -18.8970   -1.1170  -32.6360 C   0  0  0  0  0  2  0  0  0  0  0  0
  -20.1490   -0.6720  -33.3130 C   0  0  0  0  0  0  0  0  0  0  0  0
  -20.9340    0.0290  -32.6710 O   0  0  0  0  0  0  0  0  0  0  0  0
  -20.3570   -1.0760  -34.6330 N   0  0  0  0  0  0  0  0  0  0  0  0
  -19.6380   -1.6890  -35.1440 H   0  0  0  0  0  0  0  0  0  0  0  0
  -21.4900   -0.7320  -35.4150 C   0  0  0  0  0  0  0  0  0  0  0  0
  -21.4600    0.4540  -36.1610 C   0  0  0  0  0  3  0  0  0  0  0  0
  -22.5330    0.8240  -36.9060 C   0  0  0  0  0  3  0  0  0  0  0  0
  -23.6790    0.0470  -36.9510 C   0  0  0  0  0  0  0  0  0  0  0  0
  -23.6990   -1.1070  -36.2210 C   0  0  0  0  0  3  0  0  0  0  0  0
  -22.6080   -1.5150  -35.4430 C   0  0  0  0  0  3  0  0  0  0  0  0
  -24.8400    0.4710  -37.7740 C   0  0  0  0  0  2  0  0  0  0  0  0
  -24.3220    1.3700  -38.9010 C   0  0  0  0  0  1  0  0  0  0  0  0
  -18.7830   -0.4870  -27.6890 C   0  0  0  0  0  0  0  0  0  0  0  0
  -18.7970    0.8810  -27.4960 C   0  0  0  0  0  3  0  0  0  0  0  0
  -18.4890    1.4530  -26.2740 C   0  0  0  0  0  3  0  0  0  0  0  0
  -18.1520    0.6760  -25.1870 C   0  0  0  0  0  0  0  0  0  0  0  0
  -17.7600    1.3960  -23.6310 Cl  0  0  0  0  0  0  0  0  0  0  0  0
  -18.1330   -0.6910  -25.3650 C   0  0  0  0  0  3  0  0  0  0  0  0
  -18.4450   -1.2660  -26.6030 C   0  0  0  0  0  3  0  0  0  0  0  0
  1 22  1  0  0  0  0
  2  1  1  0  0  0  0
  2  8  1  0  0  0  0
  3  2  1  0  0  0  0
  4  3  1  0  0  0  0
  4  5  1  0  0  0  0
  5  1  2  0  0  0  0
  6  3  2  0  0  0  0
  6  7  1  0  0  0  0
  7  8  2  0  0  0  0
  9  4  1  0  0  0  0
 10 11  2  0  0  0  0
 10  9  1  0  0  0  0
 12 10  1  0  0  0  0
 13 12  1  0  0  0  0
 14 12  1  0  0  0  0
 15 14  2  0  0  0  0
 16 15  1  0  0  0  0
 17 16  2  0  0  0  0
 17 18  1  0  0  0  0
 18 19  2  0  0  0  0
 19 14  1  0  0  0  0
 20 17  1  0  0  0  0
 21 20  1  0  0  0  0
 22 23  2  0  0  0  0
 22 28  1  0  0  0  0
 23 24  1  0  0  0  0
 24 25  2  0  0  0  0
 25 26  1  0  0  0  0
 27 25  1  0  0  0  0
 28 27  2  0  0  0  0
M  END
>  <Pose>
1

>  <Score>
-9.005

$$$$
