MODEL 1
REMARK VINA RESULT:    -9.005      0.000      0.000
REMARK INTER + INTRA:         -12.285
REMARK INTER:                 -11.637
REMARK INTRA:                  -0.648
REMARK UNBOUND:                -0.648
REMARK  5 active torsions:
REMARK  status: ('A' for Active; 'I' for Inactive)
REMARK    1  A    between atoms: C_5  and  C_8 
REMARK    2  A    between atoms: N_11  and  C_13 
REMARK    3  A    between atoms: C_13  and  C_14 
REMARK       I    between atoms: C_14  and  N_16 
REMARK    4  A    between atoms: N_16  and  C_17 
REMARK    5  A    between atoms: C_20  and  C_23 
ROOT
ATOM      1  C   UNK d   1     -19.111  -1.064 -28.992  0.00  0.00     0.061 A 
ATOM      2  N   UNK d   1     -19.872  -2.141 -29.297  0.00  0.00    -0.335 N 
ATOM      3  C   UNK d   1     -19.888  -2.291 -30.637  0.00  0.00     0.086 A 
ATOM      4  N   UNK d   1     -19.148  -1.327 -31.225  0.00  0.00    -0.336 N 
ATOM      5  C   UNK d   1     -18.673  -0.577 -30.204  0.00  0.00     0.123 A 
ATOM      6  C   UNK d   1     -20.716  -3.469 -31.000  0.00  0.00     0.078 A 
ATOM      7  C   UNK d   1     -21.291  -3.983 -29.725  0.00  0.00     0.028 A 
ATOM      8  C   UNK d   1     -20.664  -3.167 -28.656  0.00  0.00     0.131 A 
ENDROOT
BRANCH   4   9
ATOM      9  C   UNK d   1     -18.897  -1.117 -32.636  0.00  0.00     0.232 C 
BRANCH   9  10
ATOM     10  C   UNK d   1     -20.149  -0.672 -33.313  0.00  0.00     0.240 C 
ATOM     11  O   UNK d   1     -20.934   0.029 -32.671  0.00  0.00    -0.271 OA
ATOM     12  N   UNK d   1     -20.357  -1.076 -34.633  0.00  0.00    -0.326 N 
ATOM     13  H   UNK d   1     -19.638  -1.689 -35.144  0.00  0.00     0.169 HD
BRANCH  12  14
ATOM     14  C   UNK d   1     -21.490  -0.732 -35.415  0.00  0.00     0.034 A 
ATOM     15  C   UNK d   1     -21.460   0.454 -36.161  0.00  0.00     0.030 A 
ATOM     16  C   UNK d   1     -22.533   0.824 -36.906  0.00  0.00     0.009 A 
ATOM     17  C   UNK d   1     -23.679   0.047 -36.951  0.00  0.00    -0.058 A 
ATOM     18  C   UNK d   1     -23.699  -1.107 -36.221  0.00  0.00     0.009 A 
ATOM     19  C   UNK d   1     -22.608  -1.515 -35.443  0.00  0.00     0.030 A 
BRANCH  17  20
ATOM     20  C   UNK d   1     -24.840   0.471 -37.774  0.00  0.00     0.034 C 
ATOM     21  C   UNK d   1     -24.322   1.370 -38.901  0.00  0.00     0.010 C 
ENDBRANCH  17  20
ENDBRANCH  12  14
ENDBRANCH   9  10
ENDBRANCH   4   9
BRANCH   1  22
ATOM     22  C   UNK d   1     -18.783  -0.487 -27.689  0.00  0.00    -0.008 A 
ATOM     23  C   UNK d   1     -18.797   0.881 -27.496  0.00  0.00     0.015 A 
ATOM     24  C   UNK d   1     -18.489   1.453 -26.274  0.00  0.00     0.024 A 
ATOM     25  C   UNK d   1     -18.152   0.676 -25.187  0.00  0.00     0.034 A 
ATOM     26 Cl   UNK d   1     -17.760   1.396 -23.631  0.00  0.00    -0.084 Cl
ATOM     27  C   UNK d   1     -18.133  -0.691 -25.365  0.00  0.00     0.024 A 
ATOM     28  C   UNK d   1     -18.445  -1.266 -26.603  0.00  0.00     0.015 A 
ENDBRANCH   1  22
TORSDOF 5
ENDMDL
