MODEL 1
REMARK VINA RESULT:    -9.144      0.000      0.000
REMARK INTER + INTRA:         -11.855
REMARK INTER:                 -11.283
REMARK INTRA:                  -0.572
REMARK UNBOUND:                -0.572
REMARK  4 active torsions:
REMARK  status: ('A' for Active; 'I' for Inactive)
REMARK    1  A    between atoms: C_3  and  C_8 
REMARK    2  A    between atoms: C_11  and  C_13 
REMARK    3  A    between atoms: C_13  and  N_14 
REMARK       I    between atoms: N_14  and  C_15 
REMARK    4  A    between atoms: C_15  and  C_17 
ROOT
ATOM      1  N   UNK d   1     -21.118  -2.819 -32.251  0.00  0.00    -0.353 N 
ATOM      2  C   UNK d   1     -21.868  -3.043 -33.419  0.00  0.00     0.229 C 
ATOM      3  O   UNK d   1     -22.330  -4.183 -33.645  0.00  0.00    -0.273 OA
ATOM      4  H   UNK d   1     -20.736  -1.870 -32.068  0.00  0.00     0.162 HD
ENDROOT
BRANCH   1   5
ATOM      5  C   UNK d   1     -20.869  -3.885 -31.298  0.00  0.00     0.211 C 
BRANCH   5   6
ATOM      6  C   UNK d   1     -20.643  -3.312 -29.922  0.00  0.00     0.190 A 
ATOM      7  O   UNK d   1     -21.064  -3.784 -28.776  0.00  0.00    -0.194 OA
ATOM      8  N   UNK d   1     -20.663  -3.003 -27.796  0.00  0.00    -0.105 NA
ATOM      9  C   UNK d   1     -19.953  -1.981 -28.302  0.00  0.00     0.191 A 
ATOM     10  N   UNK d   1     -19.950  -2.189 -29.630  0.00  0.00    -0.202 NA
BRANCH   9  11
ATOM     11  C   UNK d   1     -19.325  -0.886 -27.570  0.00  0.00     0.036 A 
ATOM     12  C   UNK d   1     -18.635  -1.084 -26.394  0.00  0.00     0.048 A 
ATOM     13 Cl   UNK d   1     -18.524  -2.716 -25.780  0.00  0.00    -0.083 Cl
ATOM     14  C   UNK d   1     -18.034  -0.043 -25.692  0.00  0.00     0.025 A 
ATOM     15  C   UNK d   1     -18.115   1.242 -26.166  0.00  0.00     0.002 A 
ATOM     16  C   UNK d   1     -18.812   1.464 -27.360  0.00  0.00     0.001 A 
ATOM     17  C   UNK d   1     -19.393   0.409 -28.026  0.00  0.00     0.017 A 
ENDBRANCH   9  11
ENDBRANCH   5   6
ENDBRANCH   1   5
BRANCH   2  18
ATOM     18  C   UNK d   1     -22.106  -1.948 -34.372  0.00  0.00     0.151 C 
ATOM     19  C   UNK d   1     -23.569  -1.549 -34.429  0.00  0.00     0.022 C 
ATOM     20  C   UNK d   1     -23.767  -0.320 -35.251  0.00  0.00     0.003 C 
ATOM     21  C   UNK d   1     -23.726   0.964 -34.488  0.00  0.00     0.022 C 
ATOM     22  C   UNK d   1     -22.845   0.871 -33.246  0.00  0.00     0.154 C 
ATOM     23  N   UNK d   1     -21.541   0.421 -33.677  0.00  0.00    -0.234 N 
ATOM     24  N   UNK d   1     -20.471   1.170 -33.646  0.00  0.00    -0.044 NA
ATOM     25  C   UNK d   1     -21.228  -0.788 -34.160  0.00  0.00     0.161 A 
ATOM     26  N   UNK d   1     -19.458   0.474 -34.100  0.00  0.00    -0.023 NA
ATOM     27  N   UNK d   1     -19.910  -0.724 -34.417  0.00  0.00    -0.113 NA
ENDBRANCH   2  18
TORSDOF 4
ENDMDL
