/Users/jonathanwahrer/Desktop/Msc/3_Semester/Drug_Design_Praktikum/waehrer_HTS_screening/HTS_experiment/out/docking_results/vina_output/5l4q/1355_docked.pdbqt
 OpenBabel03212218433D

 27 30  0  0  1  0  0  0  0  0999 V2000
  -21.1180   -2.8190  -32.2510 N   0  0  0  0  0  0  0  0  0  0  0  0
  -21.8680   -3.0430  -33.4190 C   0  0  0  0  0  0  0  0  0  0  0  0
  -22.3300   -4.1830  -33.6450 O   0  0  0  0  0  0  0  0  0  0  0  0
  -20.7360   -1.8700  -32.0680 H   0  0  0  0  0  0  0  0  0  0  0  0
  -20.8690   -3.8850  -31.2980 C   0  0  0  0  0  2  0  0  0  0  0  0
  -20.6430   -3.3120  -29.9220 C   0  0  0  0  0  0  0  0  0  0  0  0
  -21.0640   -3.7840  -28.7760 O   0  0  0  0  0  0  0  0  0  0  0  0
  -20.6630   -3.0030  -27.7960 N   0  0  0  0  0  0  0  0  0  0  0  0
  -19.9530   -1.9810  -28.3020 C   0  0  0  0  0  0  0  0  0  0  0  0
  -19.9500   -2.1890  -29.6300 N   0  0  0  0  0  0  0  0  0  0  0  0
  -19.3250   -0.8860  -27.5700 C   0  0  0  0  0  0  0  0  0  0  0  0
  -18.6350   -1.0840  -26.3940 C   0  0  0  0  0  0  0  0  0  0  0  0
  -18.5240   -2.7160  -25.7800 Cl  0  0  0  0  0  0  0  0  0  0  0  0
  -18.0340   -0.0430  -25.6920 C   0  0  0  0  0  3  0  0  0  0  0  0
  -18.1150    1.2420  -26.1660 C   0  0  0  0  0  3  0  0  0  0  0  0
  -18.8120    1.4640  -27.3600 C   0  0  0  0  0  3  0  0  0  0  0  0
  -19.3930    0.4090  -28.0260 C   0  0  0  0  0  3  0  0  0  0  0  0
  -22.1060   -1.9480  -34.3720 C   0  0  1  0  0  3  0  0  0  0  0  0
  -23.5690   -1.5490  -34.4290 C   0  0  0  0  0  2  0  0  0  0  0  0
  -23.7670   -0.3200  -35.2510 C   0  0  0  0  0  2  0  0  0  0  0  0
  -23.7260    0.9640  -34.4880 C   0  0  0  0  0  2  0  0  0  0  0  0
  -22.8450    0.8710  -33.2460 C   0  0  0  0  0  2  0  0  0  0  0  0
  -21.5410    0.4210  -33.6770 N   0  0  0  0  0  0  0  0  0  0  0  0
  -20.4710    1.1700  -33.6460 N   0  0  0  0  0  0  0  0  0  0  0  0
  -21.2280   -0.7880  -34.1600 C   0  0  0  0  0  0  0  0  0  0  0  0
  -19.4580    0.4740  -34.1000 N   0  0  0  0  0  0  0  0  0  0  0  0
  -19.9100   -0.7240  -34.4170 N   0  0  0  0  0  0  0  0  0  0  0  0
  1  4  1  0  0  0  0
  1  5  1  0  0  0  0
  2  1  1  0  0  0  0
  3  2  2  0  0  0  0
  5  6  1  0  0  0  0
  6 10  2  0  0  0  0
  6  7  1  0  0  0  0
  7  8  1  0  0  0  0
  9  8  2  0  0  0  0
  9 11  1  0  0  0  0
 10  9  1  0  0  0  0
 11 12  1  0  0  0  0
 12 13  1  0  0  0  0
 12 14  2  0  0  0  0
 15 14  1  0  0  0  0
 16 15  2  0  0  0  0
 17 11  2  0  0  0  0
 17 16  1  0  0  0  0
 18 25  1  0  0  0  0
 18  2  1  1  0  0  0
 19 18  1  0  0  0  0
 20 21  1  0  0  0  0
 20 19  1  0  0  0  0
 21 22  1  0  0  0  0
 23 24  1  0  0  0  0
 23 22  1  0  0  0  0
 25 23  1  0  0  0  0
 26 24  2  0  0  0  0
 27 25  2  0  0  0  0
 27 26  1  0  0  0  0
M  END
>  <Pose>
1

>  <Score>
-9.144

$$$$
