/Users/jonathanwahrer/Desktop/Msc/3_Semester/Drug_Design_Praktikum/waehrer_HTS_screening/HTS_experiment/out/docking_results/vina_output/5l4q/1360_docked.pdbqt
 OpenBabel03212218443D

 34 37  0  0  1  0  0  0  0  0999 V2000
  -21.9770    0.9270  -35.6840 C   0  0  1  0  0  3  0  0  0  0  0  0
  -21.6850    1.5860  -36.9310 N   0  0  0  0  0  0  0  0  0  0  0  0
  -21.4240    0.4300  -37.8180 C   0  0  2  0  0  3  0  0  0  0  0  0
  -21.2910    0.9450  -39.1260 N   0  0  0  0  0  0  0  0  0  0  0  0
  -21.3300    2.3720  -39.0380 C   0  0  0  0  0  0  0  0  0  0  0  0
  -21.5670    2.7320  -37.7100 C   0  0  0  0  0  0  0  0  0  0  0  0
  -21.6420    4.0710  -37.3900 C   0  0  0  0  0  0  0  0  0  0  0  0
  -21.8560    4.3710  -36.1870 O   0  0  0  0  0  0  0  0  0  0  0  0
  -21.4880    4.9910  -38.3490 N   0  0  0  0  0  0  0  0  0  0  0  0
  -21.2650    4.6210  -39.5990 C   0  0  0  0  0  0  0  0  0  0  0  0
  -21.1260    5.5200  -40.4730 O   0  0  0  0  0  0  0  0  0  0  0  0
  -21.1800    3.3090  -39.9790 N   0  0  0  0  0  0  0  0  0  0  0  0
  -20.9290    3.0400  -41.3770 C   0  0  0  0  0  1  0  0  0  0  0  0
  -21.5760    6.4040  -37.9650 C   0  0  0  0  0  1  0  0  0  0  0  0
  -21.1090    0.2190  -40.3560 C   0  0  0  0  0  1  0  0  0  0  0  0
  -22.4750   -0.5410  -37.4790 C   0  0  1  0  0  3  0  0  0  0  0  0
  -23.0960   -0.0010  -36.1840 C   0  0  1  0  0  3  0  0  0  0  0  0
  -20.8670    0.1260  -35.2190 C   0  0  2  0  0  3  0  0  0  0  0  0
  -19.9150   -0.0100  -36.0990 O   0  0  0  0  0  1  0  0  0  0  0  0
  -20.6410   -0.5410  -33.9560 C   0  0  0  0  0  0  0  0  0  0  0  0
  -20.2930   -1.8670  -33.8610 C   0  0  0  0  0  3  0  0  0  0  0  0
  -20.1270   -2.4350  -32.6230 C   0  0  0  0  0  3  0  0  0  0  0  0
  -20.3010   -1.7050  -31.4560 C   0  0  0  0  0  0  0  0  0  0  0  0
  -20.0630   -2.5200  -29.7510 Br  0  0  0  0  0  0  0  0  0  0  0  0
  -20.6510   -0.3710  -31.5590 C   0  0  0  0  0  3  0  0  0  0  0  0
  -20.8210    0.2100  -32.7920 C   0  0  0  0  0  3  0  0  0  0  0  0
  -23.4160   -1.0710  -35.2450 C   0  0  0  0  0  0  0  0  0  0  0  0
  -23.1290   -2.2800  -35.5350 O   0  0  0  0  0  0  0  0  0  0  0  0
  -24.0240   -0.8270  -34.0430 O   0  0  0  0  0  0  0  0  0  0  0  0
  -24.4700    0.4720  -33.6440 C   0  0  0  0  0  1  0  0  0  0  0  0
  -23.5010   -0.8470  -38.4670 C   0  0  0  0  0  0  0  0  0  0  0  0
  -24.4780   -0.0670  -38.6180 O   0  0  0  0  0  0  0  0  0  0  0  0
  -23.4390   -1.9750  -39.2550 O   0  0  0  0  0  0  0  0  0  0  0  0
  -24.0480   -3.1840  -38.8590 C   0  0  0  0  0  1  0  0  0  0  0  0
  1 18  1  6  0  0  0
  2  1  1  0  0  0  0
  3  4  1  6  0  0  0
  3 16  1  0  0  0  0
  3  2  1  0  0  0  0
  4  5  1  0  0  0  0
  5  6  2  0  0  0  0
  6  7  1  0  0  0  0
  6  2  1  0  0  0  0
  7  8  2  0  0  0  0
  9 14  1  0  0  0  0
  9  7  1  0  0  0  0
 10  9  1  0  0  0  0
 11 10  2  0  0  0  0
 12 10  1  0  0  0  0
 12  5  1  0  0  0  0
 13 12  1  0  0  0  0
 15  4  1  0  0  0  0
 16 31  1  6  0  0  0
 16 17  1  0  0  0  0
 17  1  1  0  0  0  0
 17 27  1  1  0  0  0
 18 19  1  6  0  0  0
 18 20  1  0  0  0  0
 20 21  2  0  0  0  0
 20 26  1  0  0  0  0
 21 22  1  0  0  0  0
 22 23  2  0  0  0  0
 23 24  1  0  0  0  0
 25 23  1  0  0  0  0
 26 25  2  0  0  0  0
 27 29  1  0  0  0  0
 28 27  2  0  0  0  0
 29 30  1  0  0  0  0
 32 31  2  0  0  0  0
 33 34  1  0  0  0  0
 33 31  1  0  0  0  0
M  END
>  <Pose>
1

>  <Score>
-7.378

$$$$
