MODEL 1
REMARK VINA RESULT:    -8.787      0.000      0.000
REMARK INTER + INTRA:         -11.143
REMARK INTER:                 -10.328
REMARK INTRA:                  -0.815
REMARK UNBOUND:                -0.815
REMARK  3 active torsions:
REMARK  status: ('A' for Active; 'I' for Inactive)
REMARK    1  A    between atoms: C_4  and  C_8 
REMARK       I    between atoms: C_8  and  N_10 
REMARK    2  A    between atoms: N_10  and  C_11 
REMARK    3  A    between atoms: C_11  and  C_13 
REMARK       I    between atoms: C_13  and  N_15 
ROOT
ATOM      1  C   UNK d   1     -21.845  -0.162 -34.148  0.00  0.00     0.242 C 
ATOM      2  O   UNK d   1     -21.546   0.852 -33.484  0.00  0.00    -0.271 OA
ATOM      3  N   UNK d   1     -23.006  -0.173 -34.929  0.00  0.00    -0.350 N 
ATOM      4  C   UNK d   1     -23.813   0.899 -35.406  0.00  0.00     0.129 C 
ATOM      5  C   UNK d   1     -24.380   0.383 -36.737  0.00  0.00     0.068 C 
ATOM      6  C   UNK d   1     -23.445  -0.590 -37.412  0.00  0.00     0.206 C 
ATOM      7  N   UNK d   1     -23.993  -1.069 -38.651  0.00  0.00     0.099 N 
ATOM      8  C   UNK d   1     -23.066  -2.075 -39.188  0.00  0.00     0.277 C 
ATOM      9  C   UNK d   1     -21.762  -1.466 -39.599  0.00  0.00     0.089 C 
ATOM     10  C   UNK d   1     -21.372  -0.318 -38.750  0.00  0.00     0.039 A 
ATOM     11  N   UNK d   1     -20.289   0.464 -38.795  0.00  0.00    -0.352 N 
ATOM     12  C   UNK d   1     -20.379   1.378 -37.809  0.00  0.00     0.207 A 
ATOM     13  N   UNK d   1     -21.527   1.149 -37.157  0.00  0.00    -0.244 NA
ATOM     14  C   UNK d   1     -22.187   0.112 -37.694  0.00  0.00     0.097 A 
ATOM     15  C   UNK d   1     -23.216  -1.860 -36.577  0.00  0.00     0.068 C 
ATOM     16  C   UNK d   1     -23.648  -1.498 -35.221  0.00  0.00     0.129 C 
ATOM     17  H   UNK d   1     -24.885  -1.585 -38.458  0.00  0.00     0.317 HD
ATOM     18  H   UNK d   1     -19.473   0.442 -39.445  0.00  0.00     0.166 HD
ENDROOT
BRANCH   1  19
ATOM     19  C   UNK d   1     -20.919  -1.334 -34.083  0.00  0.00     0.173 C 
ATOM     20  C   UNK d   1     -19.564  -0.853 -34.664  0.00  0.00     0.042 C 
BRANCH  19  21
ATOM     21  N   UNK d   1     -20.582  -1.738 -32.740  0.00  0.00    -0.344 N 
ATOM     22  C   UNK d   1     -21.114  -2.989 -32.226  0.00  0.00     0.252 C 
ATOM     23  O   UNK d   1     -21.809  -3.735 -32.926  0.00  0.00    -0.268 OA
ATOM     24  H   UNK d   1     -19.975  -1.160 -32.161  0.00  0.00     0.163 HD
BRANCH  22  25
ATOM     25  C   UNK d   1     -20.784  -3.299 -30.824  0.00  0.00     0.033 A 
ATOM     26  C   UNK d   1     -20.415  -2.232 -29.988  0.00  0.00     0.036 A 
ATOM     27  C   UNK d   1     -20.072  -2.398 -28.669  0.00  0.00     0.011 A 
ATOM     28 Br   UNK d   1     -19.588  -0.867 -27.597  0.00  0.00    -0.051 Br
ATOM     29  C   UNK d   1     -20.088  -3.667 -28.142  0.00  0.00     0.019 A 
ATOM     30  C   UNK d   1     -20.446  -4.731 -28.953  0.00  0.00     0.002 A 
ATOM     31  C   UNK d   1     -20.791  -4.551 -30.288  0.00  0.00     0.017 A 
ENDBRANCH  22  25
ENDBRANCH  19  21
ENDBRANCH   1  19
TORSDOF 3
ENDMDL
