MODEL 1
REMARK VINA RESULT:    -9.482      0.000      0.000
REMARK INTER + INTRA:         -14.159
REMARK INTER:                 -13.086
REMARK INTRA:                  -1.073
REMARK UNBOUND:                -1.073
REMARK  7 active torsions:
REMARK  status: ('A' for Active; 'I' for Inactive)
REMARK    1  A    between atoms: C_7  and  C_11 
REMARK    2  A    between atoms: C_11  and  O_12 
REMARK    3  A    between atoms: O_12  and  C_13 
REMARK    4  A    between atoms: C_13  and  C_15 
REMARK    5  A    between atoms: N_17  and  C_26 
REMARK    6  A    between atoms: C_26  and  C_27 
REMARK    7  A    between atoms: C_27  and  O_28 
ROOT
ATOM      1  C   UNK d   1     -20.119  -0.369 -29.773  0.00  0.00     0.315 C 
ATOM      2  O   UNK d   1     -21.111   0.294 -30.046  0.00  0.00    -0.257 OA
ENDROOT
BRANCH   1   3
ATOM      3  O   UNK d   1     -19.095  -0.190 -30.742  0.00  0.00    -0.310 OA
BRANCH   3   4
ATOM      4  C   UNK d   1     -18.755  -1.290 -31.542  0.00  0.00     0.238 C 
BRANCH   4   5
ATOM      5  C   UNK d   1     -19.784  -1.408 -32.593  0.00  0.00     0.066 A 
ATOM      6  N   UNK d   1     -19.875  -0.469 -33.549  0.00  0.00    -0.233 NA
ATOM      7  C   UNK d   1     -20.792  -0.525 -34.530  0.00  0.00     0.137 A 
ATOM      8  N   UNK d   1     -21.663  -1.538 -34.588  0.00  0.00    -0.272 N 
ATOM      9  C   UNK d   1     -20.853   0.453 -35.486  0.00  0.00     0.052 A 
ATOM     10  C   UNK d   1     -22.590  -1.599 -35.575  0.00  0.00     0.121 A 
ATOM     11  C   UNK d   1     -21.642  -2.524 -33.668  0.00  0.00     0.255 A 
ATOM     12  C   UNK d   1     -22.668  -0.621 -36.550  0.00  0.00     0.027 A 
ATOM     13 Br   UNK d   1     -23.992  -0.729 -37.942  0.00  0.00    -0.050 Br
ATOM     14  C   UNK d   1     -21.781   0.426 -36.506  0.00  0.00     0.024 A 
ATOM     15  C   UNK d   1     -20.678  -2.449 -32.652  0.00  0.00     0.104 A 
ATOM     16  O   UNK d   1     -22.444  -3.490 -33.692  0.00  0.00    -0.268 OA
ENDBRANCH   4   5
ENDBRANCH   3   4
ENDBRANCH   1   3
BRANCH   1  17
ATOM     17  C   UNK d   1     -19.872  -1.258 -28.654  0.00  0.00     0.163 A 
ATOM     18  N   UNK d   1     -20.207  -2.581 -28.733  0.00  0.00    -0.163 NA
ATOM     19  N   UNK d   1     -19.992  -3.412 -27.728  0.00  0.00    -0.231 N 
ATOM     20  C   UNK d   1     -19.433  -2.994 -26.580  0.00  0.00     0.274 A 
ATOM     21  O   UNK d   1     -19.231  -3.806 -25.616  0.00  0.00    -0.266 OA
ATOM     22  C   UNK d   1     -19.068  -1.678 -26.420  0.00  0.00     0.046 A 
ATOM     23  C   UNK d   1     -19.306  -0.821 -27.497  0.00  0.00     0.016 A 
ATOM     24  C   UNK d   1     -18.500  -1.274 -25.240  0.00  0.00     0.018 A 
ATOM     25  C   UNK d   1     -18.924   0.483 -27.294  0.00  0.00     0.015 A 
ATOM     26  C   UNK d   1     -18.347   0.906 -26.101  0.00  0.00     0.001 A 
ATOM     27  C   UNK d   1     -18.128   0.035 -25.060  0.00  0.00     0.001 A 
BRANCH  19  28
ATOM     28  C   UNK d   1     -20.352  -4.811 -27.824  0.00  0.00     0.180 C 
BRANCH  28  29
ATOM     29  C   UNK d   1     -19.984  -5.411 -29.156  0.00  0.00     0.186 C 
BRANCH  29  30
ATOM     30  O   UNK d   1     -20.766  -4.933 -30.191  0.00  0.00    -0.399 OA
ATOM     31  H   UNK d   1     -21.675  -5.292 -30.067  0.00  0.00     0.209 HD
ENDBRANCH  29  30
ENDBRANCH  28  29
ENDBRANCH  19  28
ENDBRANCH   1  17
TORSDOF 7
ENDMDL
