/Users/jonathanwahrer/Desktop/Msc/3_Semester/Drug_Design_Praktikum/waehrer_HTS_screening/HTS_experiment/out/docking_results/vina_output/5l4q/1381_docked.pdbqt
 OpenBabel03212218443D

 31 34  0  0  0  0  0  0  0  0999 V2000
  -20.1190   -0.3690  -29.7730 C   0  0  0  0  0  0  0  0  0  0  0  0
  -21.1110    0.2940  -30.0460 O   0  0  0  0  0  0  0  0  0  0  0  0
  -19.0950   -0.1900  -30.7420 O   0  0  0  0  0  0  0  0  0  0  0  0
  -18.7550   -1.2900  -31.5420 C   0  0  0  0  0  2  0  0  0  0  0  0
  -19.7840   -1.4080  -32.5930 C   0  0  0  0  0  0  0  0  0  0  0  0
  -19.8750   -0.4690  -33.5490 N   0  0  0  0  0  0  0  0  0  0  0  0
  -20.7920   -0.5250  -34.5300 C   0  0  0  0  0  0  0  0  0  0  0  0
  -21.6630   -1.5380  -34.5880 N   0  0  0  0  0  0  0  0  0  0  0  0
  -20.8530    0.4530  -35.4860 C   0  0  0  0  0  3  0  0  0  0  0  0
  -22.5900   -1.5990  -35.5750 C   0  0  0  0  0  3  0  0  0  0  0  0
  -21.6420   -2.5240  -33.6680 C   0  0  0  0  0  0  0  0  0  0  0  0
  -22.6680   -0.6210  -36.5500 C   0  0  0  0  0  0  0  0  0  0  0  0
  -23.9920   -0.7290  -37.9420 Br  0  0  0  0  0  0  0  0  0  0  0  0
  -21.7810    0.4260  -36.5060 C   0  0  0  0  0  3  0  0  0  0  0  0
  -20.6780   -2.4490  -32.6520 C   0  0  0  0  0  3  0  0  0  0  0  0
  -22.4440   -3.4900  -33.6920 O   0  0  0  0  0  0  0  0  0  0  0  0
  -19.8720   -1.2580  -28.6540 C   0  0  0  0  0  0  0  0  0  0  0  0
  -20.2070   -2.5810  -28.7330 N   0  0  0  0  0  0  0  0  0  0  0  0
  -19.9920   -3.4120  -27.7280 N   0  0  0  0  0  0  0  0  0  0  0  0
  -19.4330   -2.9940  -26.5800 C   0  0  0  0  0  0  0  0  0  0  0  0
  -19.2310   -3.8060  -25.6160 O   0  0  0  0  0  0  0  0  0  0  0  0
  -19.0680   -1.6780  -26.4200 C   0  0  0  0  0  0  0  0  0  0  0  0
  -19.3060   -0.8210  -27.4970 C   0  0  0  0  0  0  0  0  0  0  0  0
  -18.5000   -1.2740  -25.2400 C   0  0  0  0  0  3  0  0  0  0  0  0
  -18.9240    0.4830  -27.2940 C   0  0  0  0  0  3  0  0  0  0  0  0
  -18.3470    0.9060  -26.1010 C   0  0  0  0  0  3  0  0  0  0  0  0
  -18.1280    0.0350  -25.0600 C   0  0  0  0  0  3  0  0  0  0  0  0
  -20.3520   -4.8110  -27.8240 C   0  0  0  0  0  2  0  0  0  0  0  0
  -19.9840   -5.4110  -29.1560 C   0  0  0  0  0  2  0  0  0  0  0  0
  -20.7660   -4.9330  -30.1910 O   0  0  0  0  0  0  0  0  0  0  0  0
  -21.6750   -5.2920  -30.0670 H   0  0  0  0  0  0  0  0  0  0  0  0
  1 17  1  0  0  0  0
  2  1  2  0  0  0  0
  3  1  1  0  0  0  0
  4  3  1  0  0  0  0
  5  4  1  0  0  0  0
  6  5  1  0  0  0  0
  7  6  2  0  0  0  0
  8  7  1  0  0  0  0
  8 11  1  0  0  0  0
  9  7  1  0  0  0  0
 10  8  1  0  0  0  0
 11 15  1  0  0  0  0
 12 14  1  0  0  0  0
 12 10  2  0  0  0  0
 13 12  1  0  0  0  0
 14  9  2  0  0  0  0
 15  5  2  0  0  0  0
 16 11  2  0  0  0  0
 17 23  1  0  0  0  0
 18 17  2  0  0  0  0
 18 19  1  0  0  0  0
 19 20  1  0  0  0  0
 20 22  1  0  0  0  0
 20 21  2  0  0  0  0
 22 24  1  0  0  0  0
 23 25  1  0  0  0  0
 23 22  2  0  0  0  0
 24 27  2  0  0  0  0
 25 26  2  0  0  0  0
 26 27  1  0  0  0  0
 28 19  1  0  0  0  0
 29 28  1  0  0  0  0
 30 31  1  0  0  0  0
 30 29  1  0  0  0  0
M  END
>  <Pose>
1

>  <Score>
-9.482

$$$$
