MODEL 1
REMARK VINA RESULT:   -10.238      0.000      0.000
REMARK INTER + INTRA:         -13.075
REMARK INTER:                 -12.931
REMARK INTRA:                  -0.144
REMARK UNBOUND:                -0.144
REMARK  5 active torsions:
REMARK  status: ('A' for Active; 'I' for Inactive)
REMARK    1  A    between atoms: C_6  and  C_12 
REMARK    2  A    between atoms: C_12  and  C_13 
REMARK    3  A    between atoms: C_13  and  C_14 
REMARK       I    between atoms: C_14  and  N_16 
REMARK    4  A    between atoms: C_18  and  N_24 
REMARK    5  A    between atoms: C_19  and  O_22 
ROOT
ATOM      1  C   UNK d   1     -21.677  -3.354 -33.052  0.00  0.00     0.220 C 
ATOM      2  O   UNK d   1     -22.275  -4.275 -33.653  0.00  0.00    -0.273 OA
ATOM      3  N   UNK d   1     -21.946  -1.986 -33.430  0.00  0.00    -0.350 N 
ATOM      4  C   UNK d   1     -22.892  -1.729 -34.482  0.00  0.00     0.154 C 
ATOM      5  C   UNK d   1     -22.116  -1.163 -35.654  0.00  0.00     0.146 C 
ATOM      6  C   UNK d   1     -20.937  -0.353 -35.252  0.00  0.00     0.078 C 
ATOM      7  C   UNK d   1     -20.954   0.159 -33.858  0.00  0.00     0.059 C 
ATOM      8  C   UNK d   1     -21.324  -0.846 -32.817  0.00  0.00     0.129 C 
ATOM      9  C   UNK d   1     -20.881   0.863 -36.186  0.00  0.00     0.048 C 
ENDROOT
BRANCH   1  10
ATOM     10  C   UNK d   1     -20.710  -3.609 -31.979  0.00  0.00     0.110 C 
BRANCH  10  11
ATOM     11  C   UNK d   1     -21.226  -4.046 -30.674  0.00  0.00     0.088 C 
BRANCH  11  12
ATOM     12  C   UNK d   1     -20.651  -3.400 -29.467  0.00  0.00     0.107 A 
ATOM     13  N   UNK d   1     -20.335  -2.061 -29.377  0.00  0.00    -0.233 NA
ATOM     14  C   UNK d   1     -19.781  -1.816 -28.181  0.00  0.00     0.087 A 
ATOM     15  C   UNK d   1     -19.288  -0.673 -27.572  0.00  0.00     0.057 A 
ATOM     16  C   UNK d   1     -19.729  -2.995 -27.474  0.00  0.00     0.064 A 
ATOM     17  C   UNK d   1     -18.764  -0.717 -26.301  0.00  0.00     0.036 A 
ATOM     18 Cl   UNK d   1     -18.147   0.772 -25.568  0.00  0.00    -0.084 Cl
ATOM     19  C   UNK d   1     -18.720  -1.909 -25.606  0.00  0.00     0.026 A 
ATOM     20  C   UNK d   1     -19.206  -3.049 -26.199  0.00  0.00     0.034 A 
ATOM     21  N   UNK d   1     -20.272  -3.929 -28.308  0.00  0.00    -0.338 N 
ATOM     22  C   UNK d   1     -20.341  -5.323 -27.908  0.00  0.00     0.158 C 
ENDBRANCH  11  12
ENDBRANCH  10  11
ENDBRANCH   1  10
BRANCH   5  23
ATOM     23  N   UNK d   1     -23.047  -0.454 -36.498  0.00  0.00    -0.300 N 
ATOM     24  C   UNK d   1     -23.919   0.421 -35.961  0.00  0.00     0.102 A 
ATOM     25  C   UNK d   1     -24.825   1.119 -36.728  0.00  0.00     0.092 A 
ATOM     26  C   UNK d   1     -24.829   0.909 -38.088  0.00  0.00     0.250 A 
ATOM     27  O   UNK d   1     -25.643   1.525 -38.853  0.00  0.00    -0.268 OA
ATOM     28  N   UNK d   1     -23.949   0.032 -38.595  0.00  0.00    -0.275 N 
ATOM     29  C   UNK d   1     -23.082  -0.632 -37.829  0.00  0.00     0.329 A 
ATOM     30  H   UNK d   1     -23.920  -0.161 -39.641  0.00  0.00     0.173 HD
ATOM     31  O   UNK d   1     -22.273  -1.448 -38.358  0.00  0.00    -0.246 OA
ENDBRANCH   5  23
BRANCH   6  32
ATOM     32  O   UNK d   1     -19.721  -1.026 -35.450  0.00  0.00    -0.388 OA
ATOM     33  H   UNK d   1     -19.276  -1.126 -34.552  0.00  0.00     0.210 HD
ENDBRANCH   6  32
TORSDOF 5
ENDMDL
