/Users/jonathanwahrer/Desktop/Msc/3_Semester/Drug_Design_Praktikum/waehrer_HTS_screening/HTS_experiment/out/docking_results/vina_output/5l4q/1386_docked.pdbqt
 OpenBabel03212218453D

 33 36  0  0  1  0  0  0  0  0999 V2000
  -21.6770   -3.3540  -33.0520 C   0  0  0  0  0  0  0  0  0  0  0  0
  -22.2750   -4.2750  -33.6530 O   0  0  0  0  0  0  0  0  0  0  0  0
  -21.9460   -1.9860  -33.4300 N   0  0  0  0  0  0  0  0  0  0  0  0
  -22.8920   -1.7290  -34.4820 C   0  0  0  0  0  2  0  0  0  0  0  0
  -22.1160   -1.1630  -35.6540 C   0  0  2  0  0  3  0  0  0  0  0  0
  -20.9370   -0.3530  -35.2520 C   0  0  2  0  0  0  0  0  0  0  0  0
  -20.9540    0.1590  -33.8580 C   0  0  0  0  0  2  0  0  0  0  0  0
  -21.3240   -0.8460  -32.8170 C   0  0  0  0  0  2  0  0  0  0  0  0
  -20.8810    0.8630  -36.1860 C   0  0  0  0  0  1  0  0  0  0  0  0
  -20.7100   -3.6090  -31.9790 C   0  0  0  0  0  2  0  0  0  0  0  0
  -21.2260   -4.0460  -30.6740 C   0  0  0  0  0  2  0  0  0  0  0  0
  -20.6510   -3.4000  -29.4670 C   0  0  0  0  0  0  0  0  0  0  0  0
  -20.3350   -2.0610  -29.3770 N   0  0  0  0  0  0  0  0  0  0  0  0
  -19.7810   -1.8160  -28.1810 C   0  0  0  0  0  0  0  0  0  0  0  0
  -19.2880   -0.6730  -27.5720 C   0  0  0  0  0  3  0  0  0  0  0  0
  -19.7290   -2.9950  -27.4740 C   0  0  0  0  0  0  0  0  0  0  0  0
  -18.7640   -0.7170  -26.3010 C   0  0  0  0  0  0  0  0  0  0  0  0
  -18.1470    0.7720  -25.5680 Cl  0  0  0  0  0  0  0  0  0  0  0  0
  -18.7200   -1.9090  -25.6060 C   0  0  0  0  0  3  0  0  0  0  0  0
  -19.2060   -3.0490  -26.1990 C   0  0  0  0  0  3  0  0  0  0  0  0
  -20.2720   -3.9290  -28.3080 N   0  0  0  0  0  0  0  0  0  0  0  0
  -20.3410   -5.3230  -27.9080 C   0  0  0  0  0  1  0  0  0  0  0  0
  -23.0470   -0.4540  -36.4980 N   0  0  0  0  0  0  0  0  0  0  0  0
  -23.9190    0.4210  -35.9610 C   0  0  0  0  0  3  0  0  0  0  0  0
  -24.8250    1.1190  -36.7280 C   0  0  0  0  0  3  0  0  0  0  0  0
  -24.8290    0.9090  -38.0880 C   0  0  0  0  0  0  0  0  0  0  0  0
  -25.6430    1.5250  -38.8530 O   0  0  0  0  0  0  0  0  0  0  0  0
  -23.9490    0.0320  -38.5950 N   0  0  0  0  0  0  0  0  0  0  0  0
  -23.0820   -0.6320  -37.8290 C   0  0  0  0  0  0  0  0  0  0  0  0
  -23.9200   -0.1610  -39.6410 H   0  0  0  0  0  0  0  0  0  0  0  0
  -22.2730   -1.4480  -38.3580 O   0  0  0  0  0  0  0  0  0  0  0  0
  -19.7210   -1.0260  -35.4500 O   0  0  0  0  0  0  0  0  0  0  0  0
  -19.2760   -1.1260  -34.5520 H   0  0  0  0  0  0  0  0  0  0  0  0
  1 10  1  0  0  0  0
  2  1  2  0  0  0  0
  3  1  1  0  0  0  0
  3  8  1  0  0  0  0
  4  3  1  0  0  0  0
  5 23  1  1  0  0  0
  5  6  1  0  0  0  0
  5  4  1  0  0  0  0
  6  9  1  6  0  0  0
  6  7  1  0  0  0  0
  7  8  1  0  0  0  0
 10 11  1  0  0  0  0
 11 12  1  0  0  0  0
 12 13  2  0  0  0  0
 12 21  1  0  0  0  0
 13 14  1  0  0  0  0
 14 15  2  0  0  0  0
 14 16  1  0  0  0  0
 15 17  1  0  0  0  0
 16 20  2  0  0  0  0
 17 19  2  0  0  0  0
 17 18  1  0  0  0  0
 20 19  1  0  0  0  0
 21 22  1  0  0  0  0
 21 16  1  0  0  0  0
 23 24  1  0  0  0  0
 25 24  2  0  0  0  0
 26 25  1  0  0  0  0
 27 26  2  0  0  0  0
 28 26  1  0  0  0  0
 28 29  1  0  0  0  0
 29 23  1  0  0  0  0
 30 28  1  0  0  0  0
 31 29  2  0  0  0  0
 32  6  1  0  0  0  0
 32 33  1  0  0  0  0
M  END
>  <Pose>
1

>  <Score>
-10.238

$$$$
