MODEL 1
REMARK VINA RESULT:    -9.504      0.000      0.000
REMARK INTER + INTRA:         -11.483
REMARK INTER:                 -11.170
REMARK INTRA:                  -0.312
REMARK UNBOUND:                -0.312
REMARK  3 active torsions:
REMARK  status: ('A' for Active; 'I' for Inactive)
REMARK    1  A    between atoms: C_4  and  C_8 
REMARK       I    between atoms: C_8  and  N_10 
REMARK    2  A    between atoms: N_10  and  C_11 
REMARK    3  A    between atoms: C_11  and  C_12 
REMARK       I    between atoms: C_12  and  N_14 
ROOT
ATOM      1  C   UNK d   1     -20.264  -0.205 -32.154  0.00  0.00     0.237 C 
ATOM      2  O   UNK d   1     -19.253   0.438 -31.779  0.00  0.00    -0.272 OA
ATOM      3  N   UNK d   1     -20.941   0.195 -33.317  0.00  0.00    -0.351 N 
ATOM      4  C   UNK d   1     -22.109  -0.493 -33.809  0.00  0.00     0.129 C 
ATOM      5  C   UNK d   1     -21.736  -1.085 -35.151  0.00  0.00     0.068 C 
ATOM      6  C   UNK d   1     -21.117  -0.019 -36.023  0.00  0.00     0.206 C 
ATOM      7  N   UNK d   1     -19.754  -0.412 -36.309  0.00  0.00     0.099 N 
ATOM      8  C   UNK d   1     -19.068   0.429 -37.227  0.00  0.00     0.277 C 
ATOM      9  C   UNK d   1     -19.844   0.943 -38.384  0.00  0.00     0.089 C 
ATOM     10  C   UNK d   1     -21.223   0.422 -38.483  0.00  0.00     0.039 A 
ATOM     11  N   UNK d   1     -22.088   0.291 -39.535  0.00  0.00    -0.352 N 
ATOM     12  C   UNK d   1     -23.213  -0.242 -39.043  0.00  0.00     0.207 A 
ATOM     13  N   UNK d   1     -23.065  -0.443 -37.723  0.00  0.00    -0.244 NA
ATOM     14  C   UNK d   1     -21.830  -0.038 -37.336  0.00  0.00     0.097 A 
ATOM     15  C   UNK d   1     -21.160   1.357 -35.441  0.00  0.00     0.068 C 
ATOM     16  C   UNK d   1     -20.476   1.331 -34.071  0.00  0.00     0.129 C 
ATOM     17  H   UNK d   1     -19.215  -0.414 -35.403  0.00  0.00     0.317 HD
ATOM     18  H   UNK d   1     -21.862   0.574 -40.534  0.00  0.00     0.166 HD
ENDROOT
BRANCH   1  19
ATOM     19  C   UNK d   1     -20.674  -1.364 -31.317  0.00  0.00     0.225 C 
BRANCH  19  20
ATOM     20  N   UNK d   1     -20.274  -1.194 -29.937  0.00  0.00    -0.348 N 
ATOM     21  C   UNK d   1     -19.897  -2.289 -29.127  0.00  0.00     0.252 C 
ATOM     22  O   UNK d   1     -19.920  -3.433 -29.651  0.00  0.00    -0.268 OA
ATOM     23  H   UNK d   1     -20.262  -0.240 -29.527  0.00  0.00     0.163 HD
BRANCH  21  24
ATOM     24  C   UNK d   1     -19.490  -2.146 -27.737  0.00  0.00     0.033 A 
ATOM     25  C   UNK d   1     -19.025  -0.960 -27.200  0.00  0.00     0.036 A 
ATOM     26  C   UNK d   1     -18.646  -0.853 -25.875  0.00  0.00     0.011 A 
ATOM     27 Br   UNK d   1     -18.020   0.812 -25.224  0.00  0.00    -0.051 Br
ATOM     28  C   UNK d   1     -18.724  -1.962 -25.031  0.00  0.00     0.019 A 
ATOM     29  C   UNK d   1     -19.190  -3.136 -25.582  0.00  0.00     0.002 A 
ATOM     30  C   UNK d   1     -19.568  -3.249 -26.899  0.00  0.00     0.017 A 
ENDBRANCH  21  24
ENDBRANCH  19  20
ENDBRANCH   1  19
TORSDOF 3
ENDMDL
