/Users/jonathanwahrer/Desktop/Msc/3_Semester/Drug_Design_Praktikum/waehrer_HTS_screening/HTS_experiment/out/docking_results/vina_output/5l4q/1404_docked.pdbqt
 OpenBabel03212218453D

 26 29  0  0  1  0  0  0  0  0999 V2000
  -23.6460   -2.0540  -38.8960 Br  0  0  0  0  0  0  0  0  0  0  0  0
  -23.4550   -1.0690  -37.2730 C   0  0  0  0  0  0  0  0  0  0  0  0
  -22.5670   -1.4690  -36.2930 C   0  0  0  0  0  3  0  0  0  0  0  0
  -22.3930   -0.7920  -35.1040 C   0  0  0  0  0  0  0  0  0  0  0  0
  -23.1790    0.3510  -34.9340 C   0  0  0  0  0  0  0  0  0  0  0  0
  -24.0610    0.7480  -35.9090 C   0  0  0  0  0  3  0  0  0  0  0  0
  -24.2250    0.0600  -37.0930 C   0  0  0  0  0  0  0  0  0  0  0  0
  -25.1980    0.5380  -38.1170 C   0  0  0  0  0  1  0  0  0  0  0  0
  -22.9750    1.0060  -33.7280 O   0  0  0  0  0  0  0  0  0  0  0  0
  -22.2270    0.4810  -32.6480 C   0  0  0  0  0  2  0  0  0  0  0  0
  -20.9100   -0.1840  -33.1700 C   0  0  2  0  0  0  0  0  0  0  0  0
  -21.4700   -1.2260  -34.0640 C   0  0  0  0  0  0  0  0  0  0  0  0
  -21.2430   -2.4480  -34.0290 O   0  0  0  0  0  0  0  0  0  0  0  0
  -20.0770   -0.6000  -32.1780 N   0  0  0  0  0  0  0  0  0  0  0  0
  -19.9120   -1.9370  -31.7970 C   0  0  0  0  0  2  0  0  0  0  0  0
  -20.7040   -2.2210  -30.5380 C   0  0  0  0  0  2  0  0  0  0  0  0
  -20.0830   -1.4560  -29.5220 O   0  0  0  0  0  0  0  0  0  0  0  0
  -20.4490   -0.1310  -29.8160 C   0  0  0  0  0  2  0  0  0  0  0  0
  -19.7660    0.2650  -31.1270 C   0  0  0  0  0  2  0  0  0  0  0  0
  -20.2900    0.8980  -33.9810 C   0  0  0  0  0  2  0  0  0  0  0  0
  -19.0650    0.6210  -34.6640 N   0  0  0  0  0  0  0  0  0  0  0  0
  -19.0930    0.4720  -36.0690 C   0  0  0  0  0  2  0  0  0  0  0  0
  -19.2190    1.8410  -36.7550 C   0  0  0  0  0  2  0  0  0  0  0  0
  -18.0260    2.5130  -36.4690 O   0  0  0  0  0  0  0  0  0  0  0  0
  -18.0520    2.8190  -35.1030 C   0  0  0  0  0  2  0  0  0  0  0  0
  -18.0600    1.5960  -34.2390 C   0  0  0  0  0  2  0  0  0  0  0  0
  1  2  1  0  0  0  0
  2  7  2  0  0  0  0
  2  3  1  0  0  0  0
  3  4  2  0  0  0  0
  4  5  1  0  0  0  0
  4 12  1  0  0  0  0
  5  9  1  0  0  0  0
  6  5  2  0  0  0  0
  7  6  1  0  0  0  0
  8  7  1  0  0  0  0
  9 10  1  0  0  0  0
 11 20  1  6  0  0  0
 11 10  1  0  0  0  0
 11 14  1  0  0  0  0
 12 13  2  0  0  0  0
 12 11  1  0  0  0  0
 14 15  1  0  0  0  0
 14 19  1  0  0  0  0
 15 16  1  0  0  0  0
 16 17  1  0  0  0  0
 18 17  1  0  0  0  0
 19 18  1  0  0  0  0
 21 26  1  0  0  0  0
 21 20  1  0  0  0  0
 22 21  1  0  0  0  0
 23 24  1  0  0  0  0
 23 22  1  0  0  0  0
 24 25  1  0  0  0  0
 25 26  1  0  0  0  0
M  END
>  <Pose>
1

>  <Score>
-6.772

$$$$
