MODEL 1
REMARK VINA RESULT:    -6.772      0.000      0.000
REMARK INTER + INTRA:          -8.020
REMARK INTER:                  -7.960
REMARK INTRA:                  -0.060
REMARK UNBOUND:                -0.060
REMARK  3 active torsions:
REMARK  status: ('A' for Active; 'I' for Inactive)
REMARK    1  A    between atoms: C_11  and  N_14 
REMARK    2  A    between atoms: C_11  and  C_20 
REMARK    3  A    between atoms: C_20  and  N_21 
ROOT
ATOM      1 Br   UNK d   1     -23.646  -2.054 -38.896  0.00  0.00    -0.051 Br
ATOM      2  C   UNK d   1     -23.455  -1.069 -37.273  0.00  0.00     0.018 A 
ATOM      3  C   UNK d   1     -22.567  -1.469 -36.293  0.00  0.00     0.037 A 
ATOM      4  C   UNK d   1     -22.393  -0.792 -35.104  0.00  0.00     0.047 A 
ATOM      5  C   UNK d   1     -23.179   0.351 -34.934  0.00  0.00     0.083 A 
ATOM      6  C   UNK d   1     -24.061   0.748 -35.909  0.00  0.00     0.045 A 
ATOM      7  C   UNK d   1     -24.225   0.060 -37.093  0.00  0.00    -0.042 A 
ATOM      8  C   UNK d   1     -25.198   0.538 -38.117  0.00  0.00     0.049 C 
ATOM      9  O   UNK d   1     -22.975   1.006 -33.728  0.00  0.00    -0.347 OA
ATOM     10  C   UNK d   1     -22.227   0.481 -32.648  0.00  0.00     0.216 C 
ATOM     11  C   UNK d   1     -20.910  -0.184 -33.170  0.00  0.00     0.142 C 
ATOM     12  C   UNK d   1     -21.470  -1.226 -34.064  0.00  0.00     0.194 C 
ATOM     13  O   UNK d   1     -21.243  -2.448 -34.029  0.00  0.00    -0.289 OA
ENDROOT
BRANCH  11  14
ATOM     14  N   UNK d   1     -20.077  -0.600 -32.178  0.00  0.00    -0.390 N 
ATOM     15  C   UNK d   1     -19.912  -1.937 -31.797  0.00  0.00     0.144 C 
ATOM     16  C   UNK d   1     -20.704  -2.221 -30.538  0.00  0.00     0.187 C 
ATOM     17  O   UNK d   1     -20.083  -1.456 -29.522  0.00  0.00    -0.388 OA
ATOM     18  C   UNK d   1     -20.449  -0.131 -29.816  0.00  0.00     0.187 C 
ATOM     19  C   UNK d   1     -19.766   0.265 -31.127  0.00  0.00     0.144 C 
ENDBRANCH  11  14
BRANCH  11  20
ATOM     20  C   UNK d   1     -20.290   0.898 -33.981  0.00  0.00     0.314 C 
BRANCH  20  21
ATOM     21  N   UNK d   1     -19.065   0.621 -34.664  0.00  0.00     0.095 N 
ATOM     22  C   UNK d   1     -19.093   0.472 -36.069  0.00  0.00     0.298 C 
ATOM     23  C   UNK d   1     -19.219   1.841 -36.755  0.00  0.00     0.198 C 
ATOM     24  O   UNK d   1     -18.026   2.513 -36.469  0.00  0.00    -0.388 OA
ATOM     25  C   UNK d   1     -18.052   2.819 -35.103  0.00  0.00     0.198 C 
ATOM     26  C   UNK d   1     -18.060   1.596 -34.239  0.00  0.00     0.298 C 
ENDBRANCH  20  21
ENDBRANCH  11  20
TORSDOF 3
ENDMDL
