MODEL 1
REMARK VINA RESULT:    -6.604      0.000      0.000
REMARK INTER + INTRA:          -6.797
REMARK INTER:                  -6.797
REMARK INTRA:                   0.000
REMARK UNBOUND:                 0.000
REMARK  1 active torsions:
REMARK  status: ('A' for Active; 'I' for Inactive)
REMARK    1  A    between atoms: C_19  and  N_23 
ROOT
ATOM      1 Br   UNK d   1     -18.069   0.727 -34.717  0.00  0.00    -0.051 Br
ATOM      2  C   UNK d   1     -19.471   1.456 -35.820  0.00  0.00     0.011 A 
ATOM      3  C   UNK d   1     -20.123   0.678 -36.740  0.00  0.00     0.030 A 
ATOM      4  C   UNK d   1     -21.123   1.222 -37.518  0.00  0.00    -0.002 A 
ATOM      5  C   UNK d   1     -21.426   2.544 -37.332  0.00  0.00     0.045 A 
ATOM      6  C   UNK d   1     -20.754   3.343 -36.385  0.00  0.00     0.031 A 
ATOM      7  C   UNK d   1     -19.763   2.786 -35.621  0.00  0.00     0.021 A 
ATOM      8  N   UNK d   1     -22.473   2.958 -38.204  0.00  0.00    -0.320 N 
ATOM      9  C   UNK d   1     -22.852   1.853 -38.977  0.00  0.00     0.247 A 
ATOM     10  O   UNK d   1     -23.761   1.858 -39.863  0.00  0.00    -0.271 OA
ATOM     11  C   UNK d   1     -22.004   0.674 -38.579  0.00  0.00     0.145 A 
ATOM     12  C   UNK d   1     -22.933  -0.337 -38.086  0.00  0.00     0.049 A 
ATOM     13  C   UNK d   1     -23.072  -1.534 -38.717  0.00  0.00     0.200 A 
ATOM     14  N   UNK d   1     -24.005  -2.240 -38.011  0.00  0.00    -0.148 NA
ATOM     15  N   UNK d   1     -24.435  -1.530 -36.990  0.00  0.00    -0.280 N 
ATOM     16  C   UNK d   1     -23.806  -0.357 -36.995  0.00  0.00     0.036 A 
ATOM     17  C   UNK d   1     -23.942   0.794 -36.049  0.00  0.00     0.070 C 
ATOM     18  O   UNK d   1     -22.346  -1.876 -39.863  0.00  0.00    -0.272 OA
ATOM     19  C   UNK d   1     -21.462  -0.909 -40.330  0.00  0.00     0.162 A 
ATOM     20  C   UNK d   1     -21.285   0.259 -39.768  0.00  0.00     0.100 A 
ATOM     21  C   UNK d   1     -20.305   1.159 -40.401  0.00  0.00     0.101 C 
ATOM     22  N   UNK d   1     -19.533   1.889 -40.885  0.00  0.00    -0.191 NA
ATOM     23  C   UNK d   1     -23.062   4.303 -38.289  0.00  0.00     0.159 C 
ATOM     24  H   UNK d   1     -25.150  -1.794 -36.264  0.00  0.00     0.189 HD
ENDROOT
BRANCH  19  25
ATOM     25  N   UNK d   1     -20.679  -1.207 -41.520  0.00  0.00    -0.379 N 
ATOM     26  H   UNK d   1     -21.234  -1.543 -42.332  0.00  0.00     0.158 HD
ATOM     27  H   UNK d   1     -19.668  -1.101 -41.568  0.00  0.00     0.158 HD
ENDBRANCH  19  25
TORSDOF 1
ENDMDL
