/Users/jonathanwahrer/Desktop/Msc/3_Semester/Drug_Design_Praktikum/waehrer_HTS_screening/HTS_experiment/out/docking_results/vina_output/5l4q/1405_docked.pdbqt
 OpenBabel03212218453D

 27 30  0  0  1  0  0  0  0  0999 V2000
  -18.0690    0.7270  -34.7170 Br  0  0  0  0  0  0  0  0  0  0  0  0
  -19.4710    1.4560  -35.8200 C   0  0  0  0  0  0  0  0  0  0  0  0
  -20.1230    0.6780  -36.7400 C   0  0  0  0  0  3  0  0  0  0  0  0
  -21.1230    1.2220  -37.5180 C   0  0  0  0  0  0  0  0  0  0  0  0
  -21.4260    2.5440  -37.3320 C   0  0  0  0  0  0  0  0  0  0  0  0
  -20.7540    3.3430  -36.3850 C   0  0  0  0  0  3  0  0  0  0  0  0
  -19.7630    2.7860  -35.6210 C   0  0  0  0  0  3  0  0  0  0  0  0
  -22.4730    2.9580  -38.2040 N   0  0  0  0  0  0  0  0  0  0  0  0
  -22.8520    1.8530  -38.9770 C   0  0  0  0  0  0  0  0  0  0  0  0
  -23.7610    1.8580  -39.8630 O   0  0  0  0  0  0  0  0  0  0  0  0
  -22.0040    0.6740  -38.5790 C   0  0  2  0  0  0  0  0  0  0  0  0
  -22.9330   -0.3370  -38.0860 C   0  0  0  0  0  0  0  0  0  0  0  0
  -23.0720   -1.5340  -38.7170 C   0  0  0  0  0  0  0  0  0  0  0  0
  -24.0050   -2.2400  -38.0110 N   0  0  0  0  0  0  0  0  0  0  0  0
  -24.4350   -1.5300  -36.9900 N   0  0  0  0  0  0  0  0  0  0  0  0
  -23.8060   -0.3570  -36.9950 C   0  0  0  0  0  0  0  0  0  0  0  0
  -23.9420    0.7940  -36.0490 C   0  0  0  0  0  1  0  0  0  0  0  0
  -22.3460   -1.8760  -39.8630 O   0  0  0  0  0  0  0  0  0  0  0  0
  -21.4620   -0.9090  -40.3300 C   0  0  0  0  0  0  0  0  0  0  0  0
  -21.2850    0.2590  -39.7680 C   0  0  0  0  0  0  0  0  0  0  0  0
  -20.3050    1.1590  -40.4010 C   0  0  0  0  0  0  0  0  0  0  0  0
  -19.5330    1.8890  -40.8850 N   0  0  0  0  0  0  0  0  0  0  0  0
  -23.0620    4.3030  -38.2890 C   0  0  0  0  0  1  0  0  0  0  0  0
  -25.1500   -1.7940  -36.2640 H   0  0  0  0  0  0  0  0  0  0  0  0
  -20.6790   -1.2070  -41.5200 N   0  0  0  0  0  0  0  0  0  0  0  0
  -21.2340   -1.5430  -42.3320 H   0  0  0  0  0  0  0  0  0  0  0  0
  -19.6680   -1.1010  -41.5680 H   0  0  0  0  0  0  0  0  0  0  0  0
  2  7  1  0  0  0  0
  2  1  1  0  0  0  0
  3  2  2  0  0  0  0
  4  5  2  0  0  0  0
  4  3  1  0  0  0  0
  5  6  1  0  0  0  0
  6  7  2  0  0  0  0
  8  5  1  0  0  0  0
  9 11  1  0  0  0  0
  9  8  1  0  0  0  0
 10  9  2  0  0  0  0
 11 20  1  6  0  0  0
 11 12  1  0  0  0  0
 11  4  1  0  0  0  0
 12 16  2  0  0  0  0
 13 12  1  0  0  0  0
 13 14  2  0  0  0  0
 14 15  1  0  0  0  0
 15 24  1  0  0  0  0
 16 15  1  0  0  0  0
 16 17  1  0  0  0  0
 18 13  1  0  0  0  0
 19 18  1  0  0  0  0
 19 20  2  0  0  0  0
 21 20  1  0  0  0  0
 22 21  3  0  0  0  0
 23  8  1  0  0  0  0
 25 19  1  0  0  0  0
 26 25  1  0  0  0  0
 27 25  1  0  0  0  0
M  END
>  <Pose>
1

>  <Score>
-6.604

$$$$
