/Users/jonathanwahrer/Desktop/Msc/3_Semester/Drug_Design_Praktikum/waehrer_HTS_screening/HTS_experiment/out/docking_results/vina_output/5l4q/1413_docked.pdbqt
 OpenBabel03212218453D

 24 27  0  0  0  0  0  0  0  0999 V2000
  -19.6210   -3.6160  -29.7900 C   0  0  0  0  0  2  0  0  0  0  0  0
  -20.1910   -3.0300  -30.9910 N   0  0  0  0  0  0  0  0  0  0  0  0
  -21.0830   -3.6660  -31.7680 C   0  0  0  0  0  2  0  0  0  0  0  0
  -21.6020   -3.0660  -32.9110 C   0  0  0  0  0  0  0  0  0  0  0  0
  -21.2160   -1.7980  -33.2820 C   0  0  0  0  0  0  0  0  0  0  0  0
  -22.4910   -3.4470  -33.8650 N   0  0  0  0  0  0  0  0  0  0  0  0
  -20.3180   -1.1520  -32.5040 C   0  0  0  0  0  0  0  0  0  0  0  0
  -21.8470   -1.4300  -34.4150 N   0  0  0  0  0  0  0  0  0  0  0  0
  -19.7710    0.5940  -32.9950 Br  0  0  0  0  0  0  0  0  0  0  0  0
  -19.8200   -1.7860  -31.3660 C   0  0  0  0  0  3  0  0  0  0  0  0
  -22.6110   -2.4730  -34.7240 N   0  0  0  0  0  0  0  0  0  0  0  0
  -21.7880   -0.2430  -35.1800 C   0  0  0  0  0  1  0  0  0  0  0  0
  -20.2490   -3.1720  -28.5490 C   0  0  0  0  0  0  0  0  0  0  0  0
  -21.3990   -3.6460  -28.2990 O   0  0  0  0  0  0  0  0  0  0  0  0
  -19.6830   -2.2410  -27.5770 C   0  0  0  0  0  0  0  0  0  0  0  0
  -19.5710   -0.9210  -27.9120 C   0  0  0  0  0  3  0  0  0  0  0  0
  -19.0380   -0.0250  -27.0230 C   0  0  0  0  0  0  0  0  0  0  0  0
  -18.5980   -0.4110  -25.7690 C   0  0  0  0  0  0  0  0  0  0  0  0
  -18.9350    1.3060  -27.3830 C   0  0  0  0  0  3  0  0  0  0  0  0
  -18.7260   -1.7630  -25.4600 C   0  0  0  0  0  3  0  0  0  0  0  0
  -18.0590    0.4720  -24.8570 C   0  0  0  0  0  3  0  0  0  0  0  0
  -19.2580   -2.6600  -26.3440 C   0  0  0  0  0  3  0  0  0  0  0  0
  -17.9620    1.7950  -25.2300 C   0  0  0  0  0  3  0  0  0  0  0  0
  -18.3970    2.1910  -26.4780 C   0  0  0  0  0  3  0  0  0  0  0  0
  1 13  1  0  0  0  0
  2  1  1  0  0  0  0
  3  2  1  0  0  0  0
  4  3  1  0  0  0  0
  5  4  2  0  0  0  0
  5  7  1  0  0  0  0
  6  4  1  0  0  0  0
  7 10  2  0  0  0  0
  8  5  1  0  0  0  0
  9  7  1  0  0  0  0
 10  2  1  0  0  0  0
 11  8  1  0  0  0  0
 11  6  2  0  0  0  0
 12  8  1  0  0  0  0
 13 14  2  0  0  0  0
 13 15  1  0  0  0  0
 15 22  1  0  0  0  0
 16 15  2  0  0  0  0
 16 17  1  0  0  0  0
 17 18  1  0  0  0  0
 18 20  1  0  0  0  0
 18 21  2  0  0  0  0
 19 17  2  0  0  0  0
 19 24  1  0  0  0  0
 22 20  2  0  0  0  0
 23 21  1  0  0  0  0
 24 23  2  0  0  0  0
M  END
>  <Pose>
1

>  <Score>
-9.475

$$$$
