/Users/jonathanwahrer/Desktop/Msc/3_Semester/Drug_Design_Praktikum/waehrer_HTS_screening/HTS_experiment/out/docking_results/vina_output/5l4q/1415_docked.pdbqt
 OpenBabel03212218453D

 32 35  0  0  1  0  0  0  0  0999 V2000
  -20.9630    5.3080  -33.6540 Br  0  0  0  0  0  0  0  0  0  0  0  0
  -19.9680    4.4110  -35.0250 C   0  0  0  0  0  0  0  0  0  0  0  0
  -20.4060    3.2000  -35.5070 C   0  0  0  0  0  0  0  0  0  0  0  0
  -19.7070    2.5100  -36.5110 C   0  0  0  0  0  0  0  0  0  0  0  0
  -18.5610    3.1110  -36.9850 C   0  0  0  0  0  3  0  0  0  0  0  0
  -18.1000    4.3230  -36.5190 C   0  0  0  0  0  0  0  0  0  0  0  0
  -18.8030    4.9810  -35.5350 C   0  0  0  0  0  0  0  0  0  0  0  0
  -18.3880    6.2900  -34.9680 C   0  0  0  0  0  1  0  0  0  0  0  0
  -16.5090    5.1310  -37.1950 Br  0  0  0  0  0  0  0  0  0  0  0  0
  -20.2020    1.2360  -36.9880 C   0  0  0  0  0  0  0  0  0  0  0  0
  -19.6530    0.6720  -37.9400 O   0  0  0  0  0  0  0  0  0  0  0  0
  -21.3660    0.6180  -36.3270 C   0  0  1  0  0  0  0  0  0  0  0  0
  -22.2650    1.7420  -35.8630 C   0  0  0  0  0  2  0  0  0  0  0  0
  -21.5690    2.6260  -35.0030 O   0  0  0  0  0  0  0  0  0  0  0  0
  -22.1030   -0.3570  -37.1940 C   0  0  0  0  0  2  0  0  0  0  0  0
  -23.3000    0.1130  -37.7780 N   0  0  0  0  0  4  0  0  0  0  0  0
  -23.1090    0.3310  -39.1810 C   0  0  0  0  0  2  0  0  0  0  0  0
  -22.9660   -0.9010  -40.0010 C   0  0  2  0  0  3  0  0  0  0  0  0
  -23.2500   -2.1870  -39.3260 C   0  0  0  0  0  2  0  0  0  0  0  0
  -21.5200   -0.9540  -40.5090 C   0  0  0  0  0  1  0  0  0  0  0  0
  -24.1160   -2.1330  -38.1290 C   0  0  0  0  0  2  0  0  0  0  0  0
  -24.4410   -0.7510  -37.6450 C   0  0  0  0  0  2  0  0  0  0  0  0
  -23.5680    1.0370  -37.3540 H   0  0  0  0  0  0  0  0  0  0  0  0
  -20.8240   -0.0870  -35.1010 C   0  0  0  0  0  2  0  0  0  0  0  0
  -21.6650   -0.0460  -33.9540 N   0  0  0  0  0  4  0  0  0  0  0  0
  -20.8580    0.0170  -32.7360 C   0  0  0  0  0  2  0  0  0  0  0  0
  -20.7430   -1.3120  -32.0510 C   0  0  1  0  0  3  0  0  0  0  0  0
  -20.5310   -2.3970  -33.0820 C   0  0  0  0  0  2  0  0  0  0  0  0
  -19.4660   -1.2690  -31.2010 C   0  0  0  0  0  1  0  0  0  0  0  0
  -21.7830   -2.5060  -33.8960 C   0  0  0  0  0  2  0  0  0  0  0  0
  -22.5290   -1.1980  -33.8100 C   0  0  0  0  0  2  0  0  0  0  0  0
  -22.2460    0.7960  -33.9600 H   0  0  0  0  0  0  0  0  0  0  0  0
  2  1  1  0  0  0  0
  3  2  1  0  0  0  0
  3 14  1  0  0  0  0
  4  3  2  0  0  0  0
  5  6  2  0  0  0  0
  5  4  1  0  0  0  0
  6  7  1  0  0  0  0
  7  2  2  0  0  0  0
  7  8  1  0  0  0  0
  9  6  1  0  0  0  0
 10  4  1  0  0  0  0
 10 12  1  0  0  0  0
 11 10  2  0  0  0  0
 12 15  1  6  0  0  0
 12 13  1  0  0  0  0
 12 24  1  0  0  0  0
 13 14  1  0  0  0  0
 16 22  1  0  0  0  0
 16 23  1  0  0  0  0
 16 15  1  0  0  0  0
 17 16  1  0  0  0  0
 18 20  1  1  0  0  0
 18 19  1  0  0  0  0
 18 17  1  0  0  0  0
 19 21  1  0  0  0  0
 21 22  1  0  0  0  0
 24 25  1  0  0  0  0
 25 31  1  0  0  0  0
 25 26  1  0  0  0  0
 26 27  1  0  0  0  0
 27 29  1  1  0  0  0
 28 27  1  0  0  0  0
 30 31  1  0  0  0  0
 30 28  1  0  0  0  0
 32 25  1  0  0  0  0
M  END
>  <Pose>
1

>  <Score>
-7.293

$$$$
