MODEL 1
REMARK VINA RESULT:    -8.300      0.000      0.000
REMARK INTER + INTRA:         -12.647
REMARK INTER:                 -11.212
REMARK INTRA:                  -1.435
REMARK UNBOUND:                -1.435
REMARK  6 active torsions:
REMARK  status: ('A' for Active; 'I' for Inactive)
REMARK    1  A    between atoms: C_13  and  C_29 
REMARK    2  A    between atoms: C_15  and  C_16 
REMARK       I    between atoms: C_16  and  N_18 
REMARK    3  A    between atoms: N_18  and  C_19 
REMARK    4  A    between atoms: C_20  and  O_27 
REMARK    5  A    between atoms: C_23  and  O_25 
REMARK    6  A    between atoms: C_29  and  C_30 
REMARK       I    between atoms: C_30  and  N_32 
ROOT
ATOM      1 Cl   UNK d   1     -22.210  -3.881 -33.632  0.00  0.00    -0.084 Cl
ATOM      2  C   UNK d   1     -22.414  -2.162 -33.952  0.00  0.00     0.034 A 
ATOM      3  C   UNK d   1     -21.350  -1.302 -34.008  0.00  0.00     0.036 A 
ATOM      4  C   UNK d   1     -21.565   0.034 -34.261  0.00  0.00     0.019 A 
ATOM      5  C   UNK d   1     -22.854   0.460 -34.450  0.00  0.00     0.044 A 
ATOM      6  C   UNK d   1     -23.938  -0.421 -34.392  0.00  0.00     0.032 A 
ATOM      7  C   UNK d   1     -23.713  -1.742 -34.140  0.00  0.00     0.026 A 
ATOM      8  N   UNK d   1     -22.929   1.856 -34.716  0.00  0.00    -0.324 N 
ATOM      9  C   UNK d   1     -21.611   2.328 -34.692  0.00  0.00     0.267 A 
ATOM     10  O   UNK d   1     -21.331   3.552 -34.911  0.00  0.00    -0.270 OA
ATOM     11  C   UNK d   1     -20.690   1.224 -34.389  0.00  0.00     0.278 A 
ATOM     12  N   UNK d   1     -19.768   1.106 -35.484  0.00  0.00     0.113 N 
ATOM     13  C   UNK d   1     -18.466   1.491 -35.038  0.00  0.00     0.232 C 
ATOM     14  C   UNK d   1     -18.628   2.160 -33.711  0.00  0.00     0.053 C 
ATOM     15  C   UNK d   1     -19.898   1.541 -33.196  0.00  0.00     0.133 C 
ATOM     16  H   UNK d   1     -23.798   2.425 -34.896  0.00  0.00     0.169 HD
ATOM     17  H   UNK d   1     -19.809   0.157 -35.911  0.00  0.00     0.318 HD
ENDROOT
BRANCH  15  18
ATOM     18  C   UNK d   1     -19.649   0.422 -32.251  0.00  0.00     0.229 C 
ATOM     19  O   UNK d   1     -18.596  -0.234 -32.439  0.00  0.00    -0.273 OA
ATOM     20  N   UNK d   1     -20.511   0.084 -31.201  0.00  0.00    -0.324 N 
ATOM     21  H   UNK d   1     -21.371   0.710 -31.121  0.00  0.00     0.169 HD
BRANCH  20  22
ATOM     22  C   UNK d   1     -20.388  -0.940 -30.260  0.00  0.00     0.071 A 
ATOM     23  C   UNK d   1     -20.050  -0.621 -28.953  0.00  0.00     0.095 A 
ATOM     24  C   UNK d   1     -19.912  -1.581 -27.971  0.00  0.00     0.042 A 
ATOM     25  C   UNK d   1     -20.106  -2.912 -28.246  0.00  0.00     0.039 A 
ATOM     26  C   UNK d   1     -20.440  -3.255 -29.524  0.00  0.00     0.070 A 
ATOM     27  C   UNK d   1     -20.576  -2.276 -30.506  0.00  0.00     0.069 A 
BRANCH  23  28
ATOM     28  O   UNK d   1     -19.838   0.699 -28.597  0.00  0.00    -0.354 OA
ATOM     29  C   UNK d   1     -18.905   1.114 -27.646  0.00  0.00     0.210 C 
ENDBRANCH  23  28
BRANCH  26  30
ATOM     30  O   UNK d   1     -20.644  -4.586 -29.843  0.00  0.00    -0.356 OA
ATOM     31  C   UNK d   1     -20.093  -5.648 -29.086  0.00  0.00     0.210 C 
ENDBRANCH  26  30
ENDBRANCH  20  22
ENDBRANCH  15  18
BRANCH  13  32
ATOM     32  C   UNK d   1     -17.766   2.387 -36.047  0.00  0.00     0.138 C 
BRANCH  32  33
ATOM     33  C   UNK d   1     -18.717   3.034 -36.962  0.00  0.00     0.217 C 
ATOM     34  O   UNK d   1     -19.165   2.416 -37.941  0.00  0.00    -0.274 OA
ATOM     35  N   UNK d   1     -19.121   4.361 -36.726  0.00  0.00    -0.370 N 
ATOM     36  H   UNK d   1     -20.138   4.581 -36.768  0.00  0.00     0.159 HD
ATOM     37  H   UNK d   1     -18.466   5.151 -36.508  0.00  0.00     0.159 HD
ENDBRANCH  32  33
ENDBRANCH  13  32
TORSDOF 6
ENDMDL
