MODEL 1
REMARK VINA RESULT:    -8.170      0.000      0.000
REMARK INTER + INTRA:          -8.894
REMARK INTER:                  -9.125
REMARK INTRA:                   0.232
REMARK UNBOUND:                 0.232
REMARK  2 active torsions:
REMARK  status: ('A' for Active; 'I' for Inactive)
REMARK    1  A    between atoms: N_4  and  C_8 
REMARK    2  A    between atoms: C_8  and  C_9 
ROOT
ATOM      1  C   UNK d   1     -22.225  -1.412 -34.429  0.00  0.00     0.168 A 
ATOM      2  N   UNK d   1     -22.584  -2.706 -34.414  0.00  0.00    -0.148 NA
ATOM      3  N   UNK d   1     -22.091  -3.320 -33.324  0.00  0.00    -0.206 N 
ATOM      4  C   UNK d   1     -21.404  -2.396 -32.630  0.00  0.00     0.169 A 
ATOM      5  N   UNK d   1     -21.490  -1.237 -33.310  0.00  0.00    -0.209 NA
ATOM      6  C   UNK d   1     -20.798  -2.795 -31.454  0.00  0.00     0.079 A 
ATOM      7  C   UNK d   1     -20.882  -4.093 -30.987  0.00  0.00     0.162 A 
ATOM      8  N   UNK d   1     -20.205  -4.216 -29.825  0.00  0.00    -0.256 N 
ATOM      9  N   UNK d   1     -19.708  -3.021 -29.568  0.00  0.00    -0.182 NA
ATOM     10  C   UNK d   1     -20.038  -2.130 -30.521  0.00  0.00     0.158 A 
ATOM     11  C   UNK d   1     -20.070  -5.439 -29.036  0.00  0.00     0.182 C 
ATOM     12  N   UNK d   1     -21.585  -4.963 -31.732  0.00  0.00    -0.222 NA
ATOM     13  C   UNK d   1     -22.178  -4.586 -32.877  0.00  0.00     0.239 A 
ENDROOT
BRANCH   1  14
ATOM     14  C   UNK d   1     -22.548  -0.370 -35.442  0.00  0.00     0.232 C 
BRANCH  14  15
ATOM     15  N   UNK d   1     -22.748  -0.946 -36.762  0.00  0.00    -0.272 N 
ATOM     16  C   UNK d   1     -22.275  -0.470 -37.931  0.00  0.00     0.134 A 
ATOM     17  C   UNK d   1     -22.695  -1.319 -38.953  0.00  0.00     0.054 A 
ATOM     18 Br   UNK d   1     -22.346  -1.175 -40.821  0.00  0.00    -0.047 Br
ATOM     19  C   UNK d   1     -23.432  -2.312 -38.343  0.00  0.00     0.069 A 
ATOM     20  N   UNK d   1     -23.443  -2.054 -37.020  0.00  0.00    -0.176 NA
ATOM     21  C   UNK d   1     -24.069  -3.430 -39.078  0.00  0.00     0.074 C 
ENDBRANCH  14  15
ENDBRANCH   1  14
TORSDOF 2
ENDMDL
