/Users/jonathanwahrer/Desktop/Msc/3_Semester/Drug_Design_Praktikum/waehrer_HTS_screening/HTS_experiment/out/docking_results/vina_output/5l4q/1433_docked.pdbqt
 OpenBabel03212218463D

 28 31  0  0  1  0  0  0  0  0999 V2000
  -19.6000   -0.0330  -28.0460 Br  0  0  0  0  0  0  0  0  0  0  0  0
  -19.9970   -1.5050  -29.1730 C   0  0  0  0  0  0  0  0  0  0  0  0
  -20.2810   -1.2860  -30.5240 C   0  0  0  0  0  0  0  0  0  0  0  0
  -20.5620   -2.3290  -31.3730 C   0  0  0  0  0  0  0  0  0  0  0  0
  -20.5540   -3.5980  -30.8450 C   0  0  0  0  0  3  0  0  0  0  0  0
  -20.2740   -3.8450  -29.5020 C   0  0  0  0  0  0  0  0  0  0  0  0
  -19.9880   -2.7740  -28.6510 C   0  0  0  0  0  0  0  0  0  0  0  0
  -19.6820   -3.0260  -27.2150 C   0  0  0  0  0  1  0  0  0  0  0  0
  -20.2990   -5.2350  -28.9730 C   0  0  0  0  0  1  0  0  0  0  0  0
  -20.8370   -2.1910  -32.8320 C   0  0  2  0  0  3  0  0  0  0  0  0
  -21.0130   -0.7800  -33.3010 C   0  0  2  0  0  0  0  0  0  0  0  0
  -21.3580    0.0920  -32.1080 C   0  0  0  0  0  2  0  0  0  0  0  0
  -20.3120   -0.0270  -31.1090 O   0  0  0  0  0  0  0  0  0  0  0  0
  -22.1550   -0.7860  -34.1890 N   0  0  0  0  0  0  0  0  0  0  0  0
  -21.8100   -0.8910  -35.5680 C   0  0  0  0  0  2  0  0  0  0  0  0
  -22.8910   -0.5090  -36.5370 C   0  0  0  0  0  2  0  0  0  0  0  0
  -23.6790    0.5420  -36.1520 O   0  0  0  0  0  0  0  0  0  0  0  0
  -24.2540    0.2170  -34.9160 C   0  0  0  0  0  2  0  0  0  0  0  0
  -23.0600    0.2940  -33.9280 C   0  0  0  0  0  2  0  0  0  0  0  0
  -19.8180   -0.1390  -33.8980 C   0  0  0  0  0  2  0  0  0  0  0  0
  -19.4240    1.1690  -33.6370 N   0  0  0  0  0  0  0  0  0  0  0  0
  -18.0640    1.4090  -34.2320 C   0  0  0  0  0  2  0  0  0  0  0  0
  -18.0500    1.0980  -35.6830 C   0  0  0  0  0  2  0  0  0  0  0  0
  -19.2330    1.3200  -36.3340 O   0  0  0  0  0  0  0  0  0  0  0  0
  -20.0670    2.2380  -35.7670 C   0  0  0  0  0  2  0  0  0  0  0  0
  -20.1380    2.2600  -34.2740 C   0  0  0  0  0  2  0  0  0  0  0  0
  -22.0190   -2.9490  -33.1040 O   0  0  0  0  0  0  0  0  0  0  0  0
  -22.4470   -2.5340  -33.8930 H   0  0  0  0  0  0  0  0  0  0  0  0
  2  7  1  0  0  0  0
  2  1  1  0  0  0  0
  3  2  2  0  0  0  0
  4  5  2  0  0  0  0
  4  3  1  0  0  0  0
  5  6  1  0  0  0  0
  6  9  1  0  0  0  0
  6  7  2  0  0  0  0
  7  8  1  0  0  0  0
 10 27  1  1  0  0  0
 10  4  1  0  0  0  0
 11 20  1  6  0  0  0
 11 10  1  0  0  0  0
 11 12  1  0  0  0  0
 12 13  1  0  0  0  0
 13  3  1  0  0  0  0
 14 19  1  0  0  0  0
 14 11  1  0  0  0  0
 15 14  1  0  0  0  0
 16 17  1  0  0  0  0
 16 15  1  0  0  0  0
 17 18  1  0  0  0  0
 18 19  1  0  0  0  0
 20 21  1  0  0  0  0
 22 21  1  0  0  0  0
 23 22  1  0  0  0  0
 24 25  1  0  0  0  0
 24 23  1  0  0  0  0
 25 26  1  0  0  0  0
 26 21  1  0  0  0  0
 28 27  1  0  0  0  0
M  END
>  <Pose>
1

>  <Score>
-8.089

$$$$
