MODEL 1
REMARK VINA RESULT:    -9.424      0.000      0.000
REMARK INTER + INTRA:         -11.018
REMARK INTER:                 -10.526
REMARK INTRA:                  -0.493
REMARK UNBOUND:                -0.493
REMARK  2 active torsions:
REMARK  status: ('A' for Active; 'I' for Inactive)
REMARK    1  A    between atoms: N_5  and  C_8 
REMARK    2  A    between atoms: C_8  and  C_9 
REMARK       I    between atoms: C_9  and  N_11 
ROOT
ATOM      1  C   UNK d   1     -22.173  -1.229 -34.592  0.00  0.00     0.171 C 
ATOM      2  O   UNK d   1     -23.292  -1.699 -34.052  0.00  0.00    -0.175 OA
ATOM      3  N   UNK d   1     -22.369  -0.258 -35.561  0.00  0.00    -0.361 N 
ATOM      4  C   UNK d   1     -21.388   0.433 -36.321  0.00  0.00     0.127 C 
ATOM      5  C   UNK d   1     -21.417  -0.052 -37.770  0.00  0.00     0.061 C 
ATOM      6  C   UNK d   1     -22.838  -0.435 -38.150  0.00  0.00     0.118 C 
ATOM      7  N   UNK d   1     -22.977  -0.079 -39.552  0.00  0.00    -0.324 N 
ATOM      8  C   UNK d   1     -22.562  -1.235 -40.308  0.00  0.00     0.323 C 
ATOM      9  O   UNK d   1     -22.231  -1.245 -41.520  0.00  0.00    -0.247 OA
ATOM     10  N   UNK d   1     -22.600  -2.363 -39.414  0.00  0.00    -0.277 N 
ATOM     11  C   UNK d   1     -23.030  -1.900 -38.139  0.00  0.00     0.254 C 
ATOM     12  O   UNK d   1     -23.475  -2.625 -37.219  0.00  0.00    -0.270 OA
ATOM     13  C   UNK d   1     -23.868   0.315 -37.366  0.00  0.00     0.061 C 
ATOM     14  C   UNK d   1     -23.761   0.137 -35.887  0.00  0.00     0.127 C 
ATOM     15  H   UNK d   1     -23.309   0.826 -39.947  0.00  0.00     0.165 HD
ATOM     16  H   UNK d   1     -22.357  -3.333 -39.660  0.00  0.00     0.173 HD
ENDROOT
BRANCH   1  17
ATOM     17  C   UNK d   1     -20.997  -1.860 -34.026  0.00  0.00     0.216 C 
BRANCH  17  18
ATOM     18  N   UNK d   1     -20.714  -1.721 -32.641  0.00  0.00    -0.341 N 
ATOM     19  C   UNK d   1     -20.759  -2.764 -31.760  0.00  0.00     0.046 A 
ATOM     20  C   UNK d   1     -20.416  -2.312 -30.512  0.00  0.00     0.010 A 
ATOM     21  C   UNK d   1     -21.078  -4.111 -31.936  0.00  0.00     0.030 A 
ATOM     22  C   UNK d   1     -20.157  -0.970 -30.633  0.00  0.00     0.045 A 
ATOM     23  C   UNK d   1     -20.390  -3.194 -29.442  0.00  0.00     0.015 A 
ATOM     24 Br   UNK d   1     -19.633   0.129 -29.159  0.00  0.00    -0.048 Br
ATOM     25  C   UNK d   1     -20.343  -0.622 -31.942  0.00  0.00     0.027 A 
ATOM     26  C   UNK d   1     -20.169   0.732 -32.516  0.00  0.00     0.070 C 
ATOM     27  C   UNK d   1     -20.707  -4.520 -29.625  0.00  0.00     0.001 A 
ATOM     28  C   UNK d   1     -21.052  -4.990 -30.862  0.00  0.00     0.002 A 
ENDBRANCH  17  18
ENDBRANCH   1  17
TORSDOF 2
ENDMDL
