/Users/jonathanwahrer/Desktop/Msc/3_Semester/Drug_Design_Praktikum/waehrer_HTS_screening/HTS_experiment/out/docking_results/vina_output/5l4q/1436_docked.pdbqt
 OpenBabel03212218473D

 33 36  0  0  0  0  0  0  0  0999 V2000
  -20.9200   -0.2800  -34.3010 O   0  0  0  0  0  0  0  0  0  0  0  0
  -21.7070    0.8150  -34.4400 C   0  0  0  0  0  2  0  0  0  0  0  0
  -22.8660    0.8440  -35.3480 C   0  0  0  0  0  2  0  0  0  0  0  0
  -22.6350    0.7360  -36.7480 N   0  0  0  0  0  0  0  0  0  0  0  0
  -22.2050    1.6260  -37.6410 C   0  0  0  0  0  0  0  0  0  0  0  0
  -21.8190    3.4750  -37.3420 Br  0  0  0  0  0  0  0  0  0  0  0  0
  -22.0990    1.0790  -38.8740 N   0  0  0  0  0  0  0  0  0  0  0  0
  -22.4750   -0.1860  -38.7520 C   0  0  0  0  0  0  0  0  0  0  0  0
  -22.8140   -0.4240  -37.4380 C   0  0  0  0  0  0  0  0  0  0  0  0
  -22.5750   -1.2020  -39.6540 N   0  0  0  0  0  0  0  0  0  0  0  0
  -23.2540   -1.6620  -37.0120 C   0  0  0  0  0  0  0  0  0  0  0  0
  -23.3330   -2.6360  -37.9620 N   0  0  0  0  0  0  0  0  0  0  0  0
  -23.5720   -1.8980  -35.8190 O   0  0  0  0  0  0  0  0  0  0  0  0
  -23.0000   -2.3940  -39.2400 C   0  0  0  0  0  0  0  0  0  0  0  0
  -23.6650   -3.5750  -37.6520 H   0  0  0  0  0  0  0  0  0  0  0  0
  -23.0820   -3.3170  -40.1000 O   0  0  0  0  0  0  0  0  0  0  0  0
  -22.2270   -0.9930  -41.0440 C   0  0  0  0  0  1  0  0  0  0  0  0
  -21.3610   -1.0950  -33.2720 C   0  0  0  0  0  2  0  0  0  0  0  0
  -20.2700   -2.0550  -32.9020 C   0  0  0  0  0  2  0  0  0  0  0  0
  -20.3600   -2.4720  -31.5390 N   0  0  0  0  0  0  0  0  0  0  0  0
  -19.7360   -1.8990  -30.5010 C   0  0  0  0  0  0  0  0  0  0  0  0
  -20.0730   -2.5920  -29.3800 C   0  0  0  0  0  0  0  0  0  0  0  0
  -18.8880   -0.8130  -30.4090 C   0  0  0  0  0  0  0  0  0  0  0  0
  -20.8910   -3.5680  -29.7620 N   0  0  0  0  0  0  0  0  0  0  0  0
  -19.5800   -2.2210  -28.1860 N   0  0  0  0  0  0  0  0  0  0  0  0
  -21.0930   -3.5260  -31.0900 C   0  0  0  0  0  0  0  0  0  0  0  0
  -22.1560   -4.6550  -32.1860 Br  0  0  0  0  0  0  0  0  0  0  0  0
  -18.7640   -1.1720  -28.1190 C   0  0  0  0  0  0  0  0  0  0  0  0
  -19.9270   -2.9460  -26.9820 C   0  0  0  0  0  1  0  0  0  0  0  0
  -18.3110   -0.8350  -26.9930 O   0  0  0  0  0  0  0  0  0  0  0  0
  -18.4240   -0.4820  -29.2010 N   0  0  0  0  0  0  0  0  0  0  0  0
  -17.7830    0.3380  -29.1280 H   0  0  0  0  0  0  0  0  0  0  0  0
  -18.5370   -0.1260  -31.4210 O   0  0  0  0  0  0  0  0  0  0  0  0
  1 18  1  0  0  0  0
  2  1  1  0  0  0  0
  3  2  1  0  0  0  0
  4  3  1  0  0  0  0
  5  6  1  0  0  0  0
  5  4  1  0  0  0  0
  7  8  1  0  0  0  0
  7  5  2  0  0  0  0
  8  9  2  0  0  0  0
  9 11  1  0  0  0  0
  9  4  1  0  0  0  0
 10 14  1  0  0  0  0
 10  8  1  0  0  0  0
 11 13  2  0  0  0  0
 12 15  1  0  0  0  0
 12 11  1  0  0  0  0
 14 12  1  0  0  0  0
 16 14  2  0  0  0  0
 17 10  1  0  0  0  0
 18 19  1  0  0  0  0
 19 20  1  0  0  0  0
 20 26  1  0  0  0  0
 20 21  1  0  0  0  0
 21 23  1  0  0  0  0
 21 22  2  0  0  0  0
 22 25  1  0  0  0  0
 23 31  1  0  0  0  0
 24 22  1  0  0  0  0
 25 28  1  0  0  0  0
 25 29  1  0  0  0  0
 26 24  2  0  0  0  0
 27 26  1  0  0  0  0
 28 30  2  0  0  0  0
 31 32  1  0  0  0  0
 31 28  1  0  0  0  0
 33 23  2  0  0  0  0
M  END
>  <Pose>
1

>  <Score>
-9.097

$$$$
