MODEL 1
REMARK VINA RESULT:    -9.097      0.000      0.000
REMARK INTER + INTRA:         -13.171
REMARK INTER:                 -12.288
REMARK INTRA:                  -0.883
REMARK UNBOUND:                -0.883
REMARK  6 active torsions:
REMARK  status: ('A' for Active; 'I' for Inactive)
REMARK    1  A    between atoms: N_3  and  C_14 
REMARK    2  A    between atoms: C_14  and  C_15 
REMARK    3  A    between atoms: C_15  and  O_16 
REMARK    4  A    between atoms: O_16  and  C_17 
REMARK    5  A    between atoms: C_17  and  C_18 
REMARK    6  A    between atoms: C_18  and  N_19 
ROOT
ATOM      1  O   UNK d   1     -20.920  -0.280 -34.301  0.00  0.00    -0.388 OA
ENDROOT
BRANCH   1   2
ATOM      2  C   UNK d   1     -21.707   0.815 -34.440  0.00  0.00     0.188 C 
BRANCH   2   3
ATOM      3  C   UNK d   1     -22.866   0.844 -35.348  0.00  0.00     0.158 C 
BRANCH   3   4
ATOM      4  N   UNK d   1     -22.635   0.736 -36.748  0.00  0.00    -0.316 N 
ATOM      5  C   UNK d   1     -22.205   1.626 -37.641  0.00  0.00     0.180 A 
ATOM      6 Br   UNK d   1     -21.819   3.475 -37.342  0.00  0.00    -0.008 Br
ATOM      7  N   UNK d   1     -22.099   1.079 -38.874  0.00  0.00    -0.203 NA
ATOM      8  C   UNK d   1     -22.475  -0.186 -38.752  0.00  0.00     0.169 A 
ATOM      9  C   UNK d   1     -22.814  -0.424 -37.438  0.00  0.00     0.152 A 
ATOM     10  N   UNK d   1     -22.575  -1.202 -39.654  0.00  0.00    -0.286 N 
ATOM     11  C   UNK d   1     -23.254  -1.662 -37.012  0.00  0.00     0.280 A 
ATOM     12  N   UNK d   1     -23.333  -2.636 -37.962  0.00  0.00    -0.273 N 
ATOM     13  O   UNK d   1     -23.572  -1.898 -35.819  0.00  0.00    -0.265 OA
ATOM     14  C   UNK d   1     -23.000  -2.394 -39.240  0.00  0.00     0.330 A 
ATOM     15  H   UNK d   1     -23.665  -3.575 -37.652  0.00  0.00     0.173 HD
ATOM     16  O   UNK d   1     -23.082  -3.317 -40.100  0.00  0.00    -0.246 OA
ATOM     17  C   UNK d   1     -22.227  -0.993 -41.044  0.00  0.00     0.163 C 
ENDBRANCH   3   4
ENDBRANCH   2   3
ENDBRANCH   1   2
BRANCH   1  18
ATOM     18  C   UNK d   1     -21.361  -1.095 -33.272  0.00  0.00     0.188 C 
BRANCH  18  19
ATOM     19  C   UNK d   1     -20.270  -2.055 -32.902  0.00  0.00     0.158 C 
BRANCH  19  20
ATOM     20  N   UNK d   1     -20.360  -2.472 -31.539  0.00  0.00    -0.316 N 
ATOM     21  C   UNK d   1     -19.736  -1.899 -30.501  0.00  0.00     0.152 A 
ATOM     22  C   UNK d   1     -20.073  -2.592 -29.380  0.00  0.00     0.169 A 
ATOM     23  C   UNK d   1     -18.888  -0.813 -30.409  0.00  0.00     0.280 A 
ATOM     24  N   UNK d   1     -20.891  -3.568 -29.762  0.00  0.00    -0.203 NA
ATOM     25  N   UNK d   1     -19.580  -2.221 -28.186  0.00  0.00    -0.286 N 
ATOM     26  C   UNK d   1     -21.093  -3.526 -31.090  0.00  0.00     0.180 A 
ATOM     27 Br   UNK d   1     -22.156  -4.655 -32.186  0.00  0.00    -0.008 Br
ATOM     28  C   UNK d   1     -18.764  -1.172 -28.119  0.00  0.00     0.330 A 
ATOM     29  C   UNK d   1     -19.927  -2.946 -26.982  0.00  0.00     0.163 C 
ATOM     30  O   UNK d   1     -18.311  -0.835 -26.993  0.00  0.00    -0.246 OA
ATOM     31  N   UNK d   1     -18.424  -0.482 -29.201  0.00  0.00    -0.273 N 
ATOM     32  H   UNK d   1     -17.783   0.338 -29.128  0.00  0.00     0.173 HD
ATOM     33  O   UNK d   1     -18.537  -0.126 -31.421  0.00  0.00    -0.265 OA
ENDBRANCH  19  20
ENDBRANCH  18  19
ENDBRANCH   1  18
TORSDOF 6
ENDMDL
