MODEL 1
REMARK VINA RESULT:    -8.773      0.000      0.000
REMARK INTER + INTRA:         -13.456
REMARK INTER:                 -11.850
REMARK INTRA:                  -1.606
REMARK UNBOUND:                -1.606
REMARK  6 active torsions:
REMARK  status: ('A' for Active; 'I' for Inactive)
REMARK    1  A    between atoms: C_4  and  C_8 
REMARK    2  A    between atoms: N_9  and  C_27 
REMARK    3  A    between atoms: C_14  and  C_15 
REMARK    4  A    between atoms: C_15  and  C_17 
REMARK    5  A    between atoms: C_27  and  C_28 
REMARK    6  A    between atoms: C_28  and  N_29 
ROOT
ATOM      1  C   UNK d   1     -20.598  -0.165 -33.064  0.00  0.00     0.161 C 
ATOM      2  N   UNK d   1     -20.097  -1.235 -32.319  0.00  0.00    -0.331 N 
ATOM      3  C   UNK d   1     -20.773  -2.438 -32.793  0.00  0.00     0.295 C 
ATOM      4  O   UNK d   1     -20.521  -3.631 -32.487  0.00  0.00    -0.264 OA
ATOM      5  C   UNK d   1     -21.839  -2.071 -33.712  0.00  0.00     0.251 C 
ATOM      6  O   UNK d   1     -22.627  -2.872 -34.318  0.00  0.00    -0.282 OA
ATOM      7  C   UNK d   1     -21.817  -0.635 -33.798  0.00  0.00     0.064 C 
ENDROOT
BRANCH   7   8
ATOM      8  C   UNK d   1     -22.689   0.105 -34.451  0.00  0.00     0.149 C 
ATOM      9  O   UNK d   1     -23.736   0.636 -33.662  0.00  0.00    -0.189 OA
BRANCH   8  10
ATOM     10  C   UNK d   1     -22.669   0.407 -35.870  0.00  0.00     0.102 A 
ATOM     11  N   UNK d   1     -22.878  -0.343 -36.964  0.00  0.00    -0.302 N 
ATOM     12  C   UNK d   1     -22.712   0.346 -38.102  0.00  0.00     0.134 A 
ATOM     13  C   UNK d   1     -23.238  -1.654 -37.027  0.00  0.00     0.099 A 
ATOM     14  N   UNK d   1     -22.379   1.602 -37.728  0.00  0.00    -0.233 NA
ATOM     15  C   UNK d   1     -22.893  -0.226 -39.347  0.00  0.00     0.051 A 
ATOM     16  C   UNK d   1     -22.345   1.677 -36.395  0.00  0.00     0.063 A 
ATOM     17  C   UNK d   1     -22.027   2.861 -35.586  0.00  0.00     0.073 C 
ATOM     18  C   UNK d   1     -23.253  -1.545 -39.422  0.00  0.00     0.005 A 
ATOM     19  C   UNK d   1     -23.425  -2.255 -38.250  0.00  0.00     0.018 A 
ENDBRANCH   8  10
ENDBRANCH   7   8
BRANCH   1  20
ATOM     20  C   UNK d   1     -19.766   0.692 -33.885  0.00  0.00    -0.029 A 
ATOM     21  C   UNK d   1     -19.349   1.943 -33.410  0.00  0.00     0.028 A 
ATOM     22  C   UNK d   1     -18.515   2.743 -34.160  0.00  0.00     0.011 A 
ATOM     23 Br   UNK d   1     -17.951   4.434 -33.511  0.00  0.00    -0.051 Br
ATOM     24  C   UNK d   1     -18.064   2.338 -35.401  0.00  0.00     0.019 A 
ATOM     25  C   UNK d   1     -18.454   1.110 -35.903  0.00  0.00     0.002 A 
ATOM     26  C   UNK d   1     -19.280   0.350 -35.127  0.00  0.00     0.009 A 
ENDBRANCH   1  20
BRANCH   2  27
ATOM     27  C   UNK d   1     -19.193  -1.229 -31.228  0.00  0.00     0.155 C 
BRANCH  27  28
ATOM     28  C   UNK d   1     -19.466  -1.980 -30.005  0.00  0.00     0.255 C 
BRANCH  28  29
ATOM     29  N   UNK d   1     -20.321  -1.442 -28.988  0.00  0.00    -0.066 N 
ATOM     30  C   UNK d   1     -19.991  -2.144 -27.748  0.00  0.00     0.261 C 
ATOM     31  C   UNK d   1     -18.898  -1.478 -26.977  0.00  0.00     0.195 C 
ATOM     32  O   UNK d   1     -18.258  -0.500 -27.754  0.00  0.00    -0.388 OA
ATOM     33  C   UNK d   1     -19.208   0.471 -27.976  0.00  0.00     0.195 C 
ATOM     34  C   UNK d   1     -20.271  -0.022 -28.887  0.00  0.00     0.261 C 
ATOM     35  H   UNK d   1     -21.336  -1.716 -29.144  0.00  0.00     0.280 HD
ENDBRANCH  28  29
ENDBRANCH  27  28
ENDBRANCH   2  27
TORSDOF 6
ENDMDL
