MODEL 1
REMARK VINA RESULT:    -7.735      0.000      0.000
REMARK INTER + INTRA:         -10.153
REMARK INTER:                  -9.318
REMARK INTRA:                  -0.835
REMARK UNBOUND:                -0.835
REMARK  4 active torsions:
REMARK  status: ('A' for Active; 'I' for Inactive)
REMARK    1  A    between atoms: C_4  and  N_8 
REMARK    2  A    between atoms: C_10  and  O_18 
REMARK    3  A    between atoms: C_10  and  C_19 
REMARK    4  A    between atoms: C_21  and  N_25 
ROOT
ATOM      1  N   UNK d   1     -23.642   0.045 -36.162  0.00  0.00     0.009 N 
ATOM      2  C   UNK d   1     -22.959   1.309 -36.291  0.00  0.00     0.316 C 
ATOM      3  C   UNK d   1     -22.074   1.564 -35.145  0.00  0.00     0.189 C 
ATOM      4  N   UNK d   1     -22.281   0.422 -34.300  0.00  0.00    -0.324 N 
ATOM      5  C   UNK d   1     -22.078   0.208 -32.887  0.00  0.00     0.128 C 
ATOM      6  C   UNK d   1     -21.106  -0.873 -32.542  0.00  0.00     0.020 C 
ATOM      7  C   UNK d   1     -20.673  -1.726 -33.684  0.00  0.00     0.005 C 
ATOM      8  C   UNK d   1     -21.834  -2.686 -34.028  0.00  0.00     0.031 C 
ATOM      9  C   UNK d   1     -22.653  -1.917 -35.050  0.00  0.00     0.030 C 
ATOM     10  C   UNK d   1     -22.836  -0.620 -35.148  0.00  0.00     0.208 C 
ATOM     11  H   UNK d   1     -24.592   0.059 -35.809  0.00  0.00     0.295 HD
ENDROOT
BRANCH   3  12
ATOM     12  O   UNK d   1     -22.552   2.690 -34.419  0.00  0.00    -0.365 OA
ATOM     13  H   UNK d   1     -21.928   2.782 -33.626  0.00  0.00     0.213 HD
ENDBRANCH   3  12
BRANCH   3  14
ATOM     14  C   UNK d   1     -20.689   1.856 -35.427  0.00  0.00     0.001 A 
ATOM     15  C   UNK d   1     -19.953   2.821 -34.739  0.00  0.00     0.048 A 
ATOM     16  C   UNK d   1     -18.614   3.081 -34.998  0.00  0.00     0.103 A 
ATOM     17  C   UNK d   1     -17.971   2.344 -35.992  0.00  0.00     0.036 A 
ATOM     18  C   UNK d   1     -18.656   1.391 -36.690  0.00  0.00     0.003 A 
ATOM     19  C   UNK d   1     -20.009   1.157 -36.398  0.00  0.00     0.012 A 
BRANCH  16  20
ATOM     20  N   UNK d   1     -17.930   4.075 -34.261  0.00  0.00    -0.116 N 
ATOM     21  O   UNK d   1     -17.438   5.078 -34.866  0.00  0.00    -0.532 OA
ATOM     22  O   UNK d   1     -17.758   4.024 -32.928  0.00  0.00    -0.532 OA
ENDBRANCH  16  20
ENDBRANCH   3  14
BRANCH   1  23
ATOM     23  C   UNK d   1     -23.573  -0.804 -37.298  0.00  0.00     0.143 A 
ATOM     24  C   UNK d   1     -24.448  -1.842 -37.506  0.00  0.00     0.061 A 
ATOM     25  C   UNK d   1     -24.309  -2.738 -38.563  0.00  0.00     0.036 A 
ATOM     26 Cl   UNK d   1     -25.478  -4.028 -38.800  0.00  0.00    -0.084 Cl
ATOM     27  C   UNK d   1     -23.262  -2.600 -39.451  0.00  0.00     0.024 A 
ATOM     28  C   UNK d   1     -22.365  -1.580 -39.278  0.00  0.00     0.004 A 
ATOM     29  C   UNK d   1     -22.521  -0.696 -38.216  0.00  0.00     0.038 A 
ENDBRANCH   1  23
TORSDOF 4
ENDMDL
