MODEL 1
REMARK VINA RESULT:    -9.889      0.000      0.000
REMARK INTER + INTRA:         -12.425
REMARK INTER:                 -12.201
REMARK INTRA:                  -0.224
REMARK UNBOUND:                -0.224
REMARK  4 active torsions:
REMARK  status: ('A' for Active; 'I' for Inactive)
REMARK    1  A    between atoms: C_7  and  N_8 
REMARK    2  A    between atoms: C_14  and  C_16 
REMARK    3  A    between atoms: N_23  and  C_31 
REMARK    4  A    between atoms: C_25  and  C_28 
ROOT
ATOM      1  F   UNK d   1     -21.289  -2.191 -32.594  0.00  0.00    -0.204 F 
ATOM      2  C   UNK d   1     -20.639  -1.696 -31.526  0.00  0.00     0.151 A 
ATOM      3  C   UNK d   1     -20.638  -2.540 -30.420  0.00  0.00     0.062 A 
ATOM      4  C   UNK d   1     -20.003  -2.167 -29.256  0.00  0.00     0.045 A 
ATOM      5  C   UNK d   1     -19.375  -0.944 -29.226  0.00  0.00     0.051 A 
ATOM      6  C   UNK d   1     -19.386  -0.115 -30.343  0.00  0.00     0.071 A 
ATOM      7  C   UNK d   1     -20.015  -0.474 -31.505  0.00  0.00     0.175 A 
ATOM      8  N   UNK d   1     -18.758  -0.600 -28.077  0.00  0.00    -0.350 N 
ATOM      9  C   UNK d   1     -18.744  -1.399 -26.995  0.00  0.00     0.114 A 
ATOM     10  C   UNK d   1     -19.364  -2.629 -26.993  0.00  0.00     0.107 A 
ATOM     11  C   UNK d   1     -20.005  -3.020 -28.144  0.00  0.00     0.202 A 
ATOM     12  O   UNK d   1     -20.588  -4.128 -28.210  0.00  0.00    -0.286 OA
ENDROOT
BRANCH   7  13
ATOM     13  N   UNK d   1     -20.013   0.389 -32.600  0.00  0.00    -0.035 N 
ATOM     14  C   UNK d   1     -21.252   0.474 -33.330  0.00  0.00     0.261 C 
ATOM     15  C   UNK d   1     -21.146   1.572 -34.416  0.00  0.00     0.153 C 
ATOM     16  N   UNK d   1     -20.144   1.129 -35.302  0.00  0.00    -0.356 N 
ATOM     17  C   UNK d   1     -18.791   1.170 -34.622  0.00  0.00     0.153 C 
ATOM     18  C   UNK d   1     -20.165   0.649 -36.568  0.00  0.00     0.187 C 
ATOM     19  C   UNK d   1     -18.946   0.166 -33.521  0.00  0.00     0.261 C 
ATOM     20  O   UNK d   1     -18.989   0.408 -37.097  0.00  0.00    -0.171 OA
ATOM     21  H   UNK d   1     -19.855   1.367 -32.206  0.00  0.00     0.287 HD
BRANCH  18  22
ATOM     22  C   UNK d   1     -21.257   0.351 -37.452  0.00  0.00     0.019 A 
ATOM     23  C   UNK d   1     -22.209  -0.584 -37.205  0.00  0.00     0.039 A 
ATOM     24  C   UNK d   1     -23.280  -0.800 -38.063  0.00  0.00     0.035 A 
ATOM     25  C   UNK d   1     -23.384  -0.048 -39.205  0.00  0.00     0.024 A 
ATOM     26 Cl   UNK d   1     -24.496  -2.027 -37.698  0.00  0.00    -0.084 Cl
ATOM     27  C   UNK d   1     -22.452   0.905 -39.502  0.00  0.00     0.003 A 
ATOM     28  C   UNK d   1     -21.415   1.094 -38.640  0.00  0.00     0.016 A 
ENDBRANCH  18  22
ENDBRANCH   7  13
BRANCH   8  29
ATOM     29  C   UNK d   1     -18.094   0.708 -28.064  0.00  0.00     0.090 A 
ATOM     30  C   UNK d   1     -17.532   1.258 -26.826  0.00  0.00     0.028 A 
ATOM     31  C   UNK d   1     -18.845   1.780 -27.206  0.00  0.00     0.028 A 
ENDBRANCH   8  29
BRANCH  10  32
ATOM     32  C   UNK d   1     -19.339  -3.492 -25.797  0.00  0.00     0.214 C 
ATOM     33  O   UNK d   1     -18.805  -4.612 -25.794  0.00  0.00    -0.644 OA
ATOM     34  O   UNK d   1     -19.933  -3.021 -24.648  0.00  0.00    -0.644 OA
ENDBRANCH  10  32
TORSDOF 4
ENDMDL
