/Users/jonathanwahrer/Desktop/Msc/3_Semester/Drug_Design_Praktikum/waehrer_HTS_screening/HTS_experiment/out/docking_results/vina_output/5l4q/1506_docked.pdbqt
 OpenBabel03212218503D

 32 35  0  0  1  0  0  0  0  0999 V2000
  -20.3050    1.6550  -33.9220 N   0  0  0  0  0  0  0  0  0  0  0  0
  -20.6180    0.2660  -33.6940 C   0  0  0  0  0  0  0  0  0  0  0  0
  -21.8050   -0.0940  -33.6990 O   0  0  0  0  0  0  0  0  0  0  0  0
  -19.3120    1.8720  -33.9340 H   0  0  0  0  0  0  0  0  0  0  0  0
  -19.5550   -0.7390  -33.4560 C   0  0  2  0  0  3  0  0  0  0  0  0
  -20.2110   -1.9980  -32.9330 C   0  0  0  0  0  2  0  0  0  0  0  0
  -20.6730   -1.7090  -31.5220 C   0  0  0  0  0  2  0  0  0  0  0  0
  -19.4550   -1.6070  -30.7240 N   0  0  0  0  0  0  0  0  0  0  0  0
  -18.2800   -1.0370  -31.2890 C   0  0  0  0  0  2  0  0  0  0  0  0
  -18.4810   -0.2710  -32.5450 C   0  0  0  0  0  2  0  0  0  0  0  0
  -19.5030   -2.0900  -29.3960 C   0  0  0  0  0  0  0  0  0  0  0  0
  -18.8480   -1.4990  -28.3780 N   0  0  0  0  0  0  0  0  0  0  0  0
  -18.8810   -1.9380  -27.1340 N   0  0  0  0  0  0  0  0  0  0  0  0
  -18.3090   -1.4930  -26.0200 N   0  0  0  0  0  0  0  0  0  0  0  0
  -19.5780   -3.0220  -26.7750 C   0  0  0  0  0  0  0  0  0  0  0  0
  -18.6260   -2.2540  -25.0060 N   0  0  0  0  0  0  0  0  0  0  0  0
  -19.4140   -3.2100  -25.4490 N   0  0  0  0  0  0  0  0  0  0  0  0
  -20.2740   -3.6750  -27.7770 C   0  0  0  0  0  3  0  0  0  0  0  0
  -20.2410   -3.2170  -29.0790 C   0  0  0  0  0  3  0  0  0  0  0  0
  -21.3860    2.5310  -34.1420 C   0  0  0  0  0  2  0  0  0  0  0  0
  -21.9070    2.8090  -35.4900 C   0  0  0  0  0  2  0  0  0  0  0  0
  -22.2760    1.7210  -36.3120 N   0  0  0  0  0  0  0  0  0  0  0  0
  -21.5180    0.8580  -37.0890 C   0  0  0  0  0  0  0  0  0  0  0  0
  -20.2730    0.9440  -37.1510 O   0  0  0  0  0  0  0  0  0  0  0  0
  -23.3620    1.4900  -36.3780 H   0  0  0  0  0  0  0  0  0  0  0  0
  -22.1240   -0.2240  -37.9000 C   0  0  0  0  0  0  0  0  0  0  0  0
  -23.0540   -1.0660  -37.3300 C   0  0  0  0  0  3  0  0  0  0  0  0
  -23.6490   -2.0780  -38.0450 C   0  0  0  0  0  3  0  0  0  0  0  0
  -23.3080   -2.2600  -39.3750 C   0  0  0  0  0  0  0  0  0  0  0  0
  -24.0610   -3.5500  -40.2980 Cl  0  0  0  0  0  0  0  0  0  0  0  0
  -22.3890   -1.4410  -39.9740 C   0  0  0  0  0  3  0  0  0  0  0  0
  -21.8040   -0.4230  -39.2180 C   0  0  0  0  0  3  0  0  0  0  0  0
  1  2  1  0  0  0  0
  3  2  2  0  0  0  0
  4  1  1  0  0  0  0
  5  2  1  1  0  0  0
  5  6  1  0  0  0  0
  5 10  1  0  0  0  0
  6  7  1  0  0  0  0
  7  8  1  0  0  0  0
  8 11  1  0  0  0  0
  9  8  1  0  0  0  0
 10  9  1  0  0  0  0
 11 19  1  0  0  0  0
 11 12  2  0  0  0  0
 12 13  1  0  0  0  0
 13 15  1  0  0  0  0
 13 14  1  0  0  0  0
 14 16  2  0  0  0  0
 15 17  2  0  0  0  0
 17 16  1  0  0  0  0
 18 15  1  0  0  0  0
 19 18  2  0  0  0  0
 20  1  1  0  0  0  0
 21 20  1  0  0  0  0
 22 21  1  0  0  0  0
 23 22  1  0  0  0  0
 24 23  2  0  0  0  0
 25 22  1  0  0  0  0
 26 27  1  0  0  0  0
 26 23  1  0  0  0  0
 28 27  2  0  0  0  0
 29 28  1  0  0  0  0
 30 29  1  0  0  0  0
 31 29  2  0  0  0  0
 31 32  1  0  0  0  0
 32 26  2  0  0  0  0
M  END
>  <Pose>
1

>  <Score>
-8.977

$$$$
