MODEL 1
REMARK VINA RESULT:    -8.977      0.000      0.000
REMARK INTER + INTRA:         -12.976
REMARK INTER:                 -12.126
REMARK INTRA:                  -0.850
REMARK UNBOUND:                -0.850
REMARK  6 active torsions:
REMARK  status: ('A' for Active; 'I' for Inactive)
REMARK    1  A    between atoms: C_5  and  C_8 
REMARK       I    between atoms: C_8  and  N_10 
REMARK    2  A    between atoms: N_10  and  C_11 
REMARK    3  A    between atoms: C_11  and  C_12 
REMARK    4  A    between atoms: C_12  and  N_13 
REMARK       I    between atoms: N_13  and  C_14 
REMARK    5  A    between atoms: C_14  and  C_16 
REMARK    6  A    between atoms: N_19  and  C_22 
ROOT
ATOM      1  N   UNK d   1     -20.305   1.655 -33.922  0.00  0.00    -0.359 N 
ATOM      2  C   UNK d   1     -20.618   0.266 -33.694  0.00  0.00     0.222 C 
ATOM      3  O   UNK d   1     -21.805  -0.094 -33.699  0.00  0.00    -0.273 OA
ATOM      4  H   UNK d   1     -19.312   1.872 -33.934  0.00  0.00     0.162 HD
ENDROOT
BRANCH   2   5
ATOM      5  C   UNK d   1     -19.555  -0.739 -33.456  0.00  0.00     0.081 C 
ATOM      6  C   UNK d   1     -20.211  -1.998 -32.933  0.00  0.00     0.034 C 
ATOM      7  C   UNK d   1     -20.673  -1.709 -31.522  0.00  0.00     0.125 C 
ATOM      8  N   UNK d   1     -19.455  -1.607 -30.724  0.00  0.00    -0.364 N 
ATOM      9  C   UNK d   1     -18.280  -1.037 -31.289  0.00  0.00     0.125 C 
ATOM     10  C   UNK d   1     -18.481  -0.271 -32.545  0.00  0.00     0.034 C 
BRANCH   8  11
ATOM     11  C   UNK d   1     -19.503  -2.090 -29.396  0.00  0.00     0.148 A 
ATOM     12  N   UNK d   1     -18.848  -1.499 -28.378  0.00  0.00    -0.129 NA
ATOM     13  N   UNK d   1     -18.881  -1.938 -27.134  0.00  0.00    -0.108 N 
ATOM     14  N   UNK d   1     -18.309  -1.493 -26.020  0.00  0.00    -0.021 NA
ATOM     15  C   UNK d   1     -19.578  -3.022 -26.775  0.00  0.00     0.196 A 
ATOM     16  N   UNK d   1     -18.626  -2.254 -25.006  0.00  0.00    -0.021 NA
ATOM     17  N   UNK d   1     -19.414  -3.210 -25.449  0.00  0.00    -0.107 NA
ATOM     18  C   UNK d   1     -20.274  -3.675 -27.777  0.00  0.00     0.060 A 
ATOM     19  C   UNK d   1     -20.241  -3.217 -29.079  0.00  0.00     0.056 A 
ENDBRANCH   8  11
ENDBRANCH   2   5
BRANCH   1  20
ATOM     20  C   UNK d   1     -21.386   2.531 -34.142  0.00  0.00     0.142 C 
BRANCH  20  21
ATOM     21  C   UNK d   1     -21.907   2.809 -35.490  0.00  0.00     0.142 C 
BRANCH  21  22
ATOM     22  N   UNK d   1     -22.276   1.721 -36.312  0.00  0.00    -0.355 N 
ATOM     23  C   UNK d   1     -21.518   0.858 -37.089  0.00  0.00     0.251 C 
ATOM     24  O   UNK d   1     -20.273   0.944 -37.151  0.00  0.00    -0.268 OA
ATOM     25  H   UNK d   1     -23.362   1.490 -36.378  0.00  0.00     0.162 HD
BRANCH  23  26
ATOM     26  C   UNK d   1     -22.124  -0.224 -37.900  0.00  0.00     0.032 A 
ATOM     27  C   UNK d   1     -23.054  -1.066 -37.330  0.00  0.00     0.018 A 
ATOM     28  C   UNK d   1     -23.649  -2.078 -38.045  0.00  0.00     0.025 A 
ATOM     29  C   UNK d   1     -23.308  -2.260 -39.375  0.00  0.00     0.034 A 
ATOM     30 Cl   UNK d   1     -24.061  -3.550 -40.298  0.00  0.00    -0.084 Cl
ATOM     31  C   UNK d   1     -22.389  -1.441 -39.974  0.00  0.00     0.025 A 
ATOM     32  C   UNK d   1     -21.804  -0.423 -39.218  0.00  0.00     0.018 A 
ENDBRANCH  23  26
ENDBRANCH  21  22
ENDBRANCH  20  21
ENDBRANCH   1  20
TORSDOF 6
ENDMDL
