/Users/jonathanwahrer/Desktop/Msc/3_Semester/Drug_Design_Praktikum/waehrer_HTS_screening/HTS_experiment/out/docking_results/vina_output/5l4q/1507_docked.pdbqt
 OpenBabel03212218503D

 32 35  0  0  1  0  0  0  0  0999 V2000
  -20.1220    0.9720  -33.3340 C   0  0  0  0  0  0  0  0  0  0  0  0
  -21.1300    1.3300  -34.1040 C   0  0  0  0  0  0  0  0  0  0  0  0
  -21.2480    2.4910  -35.0450 C   0  0  2  0  0  3  0  0  0  0  0  0
  -21.9030    1.9040  -36.1560 N   0  0  0  0  0  0  0  0  0  0  0  0
  -22.9490    1.0870  -35.5460 C   0  0  0  0  0  0  0  0  0  0  0  0
  -24.0580    0.7610  -36.0440 O   0  0  0  0  0  0  0  0  0  0  0  0
  -22.4510    0.7170  -34.2260 C   0  0  0  0  0  0  0  0  0  0  0  0
  -22.9930    0.0100  -33.3120 O   0  0  0  0  0  0  0  0  0  0  0  0
  -18.9410    1.6910  -33.2870 O   0  0  0  0  0  1  0  0  0  0  0  0
  -20.2050   -0.2090  -32.4820 C   0  0  0  0  0  0  0  0  0  0  0  0
  -20.2120   -1.4870  -33.0070 C   0  0  0  0  0  3  0  0  0  0  0  0
  -20.3200   -2.5430  -32.1460 C   0  0  0  0  0  3  0  0  0  0  0  0
  -20.4250   -2.4130  -30.7800 C   0  0  0  0  0  0  0  0  0  0  0  0
  -20.5740   -3.9490  -29.6320 Br  0  0  0  0  0  0  0  0  0  0  0  0
  -20.4190   -1.1400  -30.2490 C   0  0  0  0  0  3  0  0  0  0  0  0
  -20.3090   -0.0510  -31.1190 C   0  0  0  0  0  3  0  0  0  0  0  0
  -20.0670    3.2790  -35.1630 C   0  0  0  0  0  0  0  0  0  0  0  0
  -19.9480    4.4250  -34.4150 C   0  0  0  0  0  3  0  0  0  0  0  0
  -18.8330    5.2280  -34.4610 C   0  0  0  0  0  3  0  0  0  0  0  0
  -17.7660    4.9010  -35.2850 C   0  0  0  0  0  0  0  0  0  0  0  0
  -17.9040    3.7470  -36.0290 C   0  0  0  0  0  3  0  0  0  0  0  0
  -16.3440    5.9120  -35.3530 Cl  0  0  0  0  0  0  0  0  0  0  0  0
  -19.0250    2.9470  -35.9760 C   0  0  0  0  0  3  0  0  0  0  0  0
  -21.7630    2.0160  -37.5950 C   0  0  0  0  0  2  0  0  0  0  0  0
  -21.4520    0.7830  -38.3500 C   0  0  0  0  0  2  0  0  0  0  0  0
  -22.6120    0.1760  -39.0120 N   0  0  0  0  0  4  0  0  0  0  0  0
  -22.7870   -1.1650  -38.5700 C   0  0  0  0  0  2  0  0  0  0  0  0
  -22.6080   -2.2340  -39.5900 C   0  0  0  0  0  2  0  0  0  0  0  0
  -22.8790   -1.8660  -40.8950 O   0  0  0  0  0  0  0  0  0  0  0  0
  -21.9600   -0.8310  -41.1790 C   0  0  0  0  0  2  0  0  0  0  0  0
  -22.4380    0.3580  -40.4230 C   0  0  0  0  0  2  0  0  0  0  0  0
  -23.4360    0.7780  -38.7030 H   0  0  0  0  0  0  0  0  0  0  0  0
  1  9  1  0  0  0  0
  1 10  1  0  0  0  0
  2  1  2  0  0  0  0
  3 17  1  6  0  0  0
  3  2  1  0  0  0  0
  4  5  1  0  0  0  0
  4  3  1  0  0  0  0
  5  7  1  0  0  0  0
  6  5  2  0  0  0  0
  7  2  1  0  0  0  0
  7  8  2  0  0  0  0
 10 16  1  0  0  0  0
 11 10  2  0  0  0  0
 11 12  1  0  0  0  0
 12 13  2  0  0  0  0
 13 15  1  0  0  0  0
 13 14  1  0  0  0  0
 16 15  2  0  0  0  0
 17 18  1  0  0  0  0
 19 18  2  0  0  0  0
 20 19  1  0  0  0  0
 21 23  1  0  0  0  0
 21 20  2  0  0  0  0
 22 20  1  0  0  0  0
 23 17  2  0  0  0  0
 24  4  1  0  0  0  0
 25 24  1  0  0  0  0
 26 32  1  0  0  0  0
 26 27  1  0  0  0  0
 26 25  1  0  0  0  0
 28 27  1  0  0  0  0
 29 28  1  0  0  0  0
 30 29  1  0  0  0  0
 30 31  1  0  0  0  0
 31 26  1  0  0  0  0
M  END
>  <Pose>
1

>  <Score>
-7.583

$$$$
