MODEL 1
REMARK VINA RESULT:    -7.583      0.000      0.000
REMARK INTER + INTRA:         -10.288
REMARK INTER:                  -9.799
REMARK INTRA:                  -0.489
REMARK UNBOUND:                -0.489
REMARK  5 active torsions:
REMARK  status: ('A' for Active; 'I' for Inactive)
REMARK    1  A    between atoms: C_5  and  C_8 
REMARK    2  A    between atoms: C_10  and  C_24 
REMARK    3  A    between atoms: N_11  and  C_16 
REMARK    4  A    between atoms: C_16  and  C_17 
REMARK    5  A    between atoms: C_17  and  N_18 
ROOT
ATOM      1  C   UNK d   1     -20.122   0.972 -33.334  0.00  0.00     0.130 C 
ATOM      2  C   UNK d   1     -21.130   1.330 -34.104  0.00  0.00     0.062 C 
ATOM      3  C   UNK d   1     -21.248   2.491 -35.045  0.00  0.00     0.161 C 
ATOM      4  N   UNK d   1     -21.903   1.904 -36.156  0.00  0.00    -0.331 N 
ATOM      5  C   UNK d   1     -22.949   1.087 -35.546  0.00  0.00     0.295 C 
ATOM      6  O   UNK d   1     -24.058   0.761 -36.044  0.00  0.00    -0.264 OA
ATOM      7  C   UNK d   1     -22.451   0.717 -34.226  0.00  0.00     0.250 C 
ATOM      8  O   UNK d   1     -22.993   0.010 -33.312  0.00  0.00    -0.282 OA
ATOM      9  O   UNK d   1     -18.941   1.691 -33.287  0.00  0.00    -0.190 OA
ENDROOT
BRANCH   1  10
ATOM     10  C   UNK d   1     -20.205  -0.209 -32.482  0.00  0.00     0.001 A 
ATOM     11  C   UNK d   1     -20.212  -1.487 -33.007  0.00  0.00     0.015 A 
ATOM     12  C   UNK d   1     -20.320  -2.543 -32.146  0.00  0.00     0.020 A 
ATOM     13  C   UNK d   1     -20.425  -2.413 -30.780  0.00  0.00     0.011 A 
ATOM     14 Br   UNK d   1     -20.574  -3.949 -29.632  0.00  0.00    -0.051 Br
ATOM     15  C   UNK d   1     -20.419  -1.140 -30.249  0.00  0.00     0.020 A 
ATOM     16  C   UNK d   1     -20.309  -0.051 -31.119  0.00  0.00     0.015 A 
ENDBRANCH   1  10
BRANCH   3  17
ATOM     17  C   UNK d   1     -20.067   3.279 -35.163  0.00  0.00    -0.030 A 
ATOM     18  C   UNK d   1     -19.948   4.425 -34.415  0.00  0.00     0.011 A 
ATOM     19  C   UNK d   1     -18.833   5.228 -34.461  0.00  0.00     0.024 A 
ATOM     20  C   UNK d   1     -17.766   4.901 -35.285  0.00  0.00     0.034 A 
ATOM     21  C   UNK d   1     -17.904   3.747 -36.029  0.00  0.00     0.024 A 
ATOM     22 Cl   UNK d   1     -16.344   5.912 -35.353  0.00  0.00    -0.084 Cl
ATOM     23  C   UNK d   1     -19.025   2.947 -35.976  0.00  0.00     0.011 A 
ENDBRANCH   3  17
BRANCH   4  24
ATOM     24  C   UNK d   1     -21.763   2.016 -37.595  0.00  0.00     0.155 C 
BRANCH  24  25
ATOM     25  C   UNK d   1     -21.452   0.783 -38.350  0.00  0.00     0.255 C 
BRANCH  25  26
ATOM     26  N   UNK d   1     -22.612   0.176 -39.012  0.00  0.00    -0.066 N 
ATOM     27  C   UNK d   1     -22.787  -1.165 -38.570  0.00  0.00     0.261 C 
ATOM     28  C   UNK d   1     -22.608  -2.234 -39.590  0.00  0.00     0.195 C 
ATOM     29  O   UNK d   1     -22.879  -1.866 -40.895  0.00  0.00    -0.388 OA
ATOM     30  C   UNK d   1     -21.960  -0.831 -41.179  0.00  0.00     0.195 C 
ATOM     31  C   UNK d   1     -22.438   0.358 -40.423  0.00  0.00     0.261 C 
ATOM     32  H   UNK d   1     -23.436   0.778 -38.703  0.00  0.00     0.280 HD
ENDBRANCH  25  26
ENDBRANCH  24  25
ENDBRANCH   4  24
TORSDOF 5
ENDMDL
