MODEL 1
REMARK VINA RESULT:    -8.918      0.000      0.000
REMARK INTER + INTRA:         -12.567
REMARK INTER:                 -12.047
REMARK INTRA:                  -0.521
REMARK UNBOUND:                -0.521
REMARK  6 active torsions:
REMARK  status: ('A' for Active; 'I' for Inactive)
REMARK    1  A    between atoms: C_5  and  N_8 
REMARK    2  A    between atoms: N_15  and  C_16 
REMARK    3  A    between atoms: C_16  and  C_17 
REMARK       I    between atoms: C_17  and  N_19 
REMARK    4  A    between atoms: N_19  and  C_20 
REMARK    5  A    between atoms: C_22  and  O_28 
REMARK    6  A    between atoms: C_23  and  O_26 
ROOT
ATOM      1  N   UNK d   1     -19.434  -1.257 -28.476  0.00  0.00    -0.241 N 
ATOM      2  C   UNK d   1     -19.225  -0.986 -29.774  0.00  0.00     0.286 A 
ATOM      3  O   UNK d   1     -18.531  -0.009 -30.157  0.00  0.00    -0.265 OA
ATOM      4  C   UNK d   1     -19.863  -1.908 -30.587  0.00  0.00     0.155 A 
ATOM      5  C   UNK d   1     -20.470  -2.755 -29.766  0.00  0.00     0.152 A 
ATOM      6  N   UNK d   1     -21.088  -3.648 -30.554  0.00  0.00    -0.279 N 
ATOM      7  N   UNK d   1     -20.864  -3.354 -31.822  0.00  0.00    -0.239 N 
ATOM      8  N   UNK d   1     -20.111  -2.287 -31.864  0.00  0.00    -0.261 N 
ATOM      9  C   UNK d   1     -20.213  -2.362 -28.469  0.00  0.00     0.286 A 
ATOM     10  O   UNK d   1     -20.641  -2.949 -27.421  0.00  0.00    -0.265 OA
ATOM     11  H   UNK d   1     -21.664  -4.458 -30.250  0.00  0.00     0.189 HD
ATOM     12  H   UNK d   1     -21.220  -3.877 -32.677  0.00  0.00     0.208 HD
ENDROOT
BRANCH   8  13
ATOM     13  C   UNK d   1     -19.614  -1.604 -33.034  0.00  0.00     0.254 C 
BRANCH  13  14
ATOM     14  C   UNK d   1     -20.784  -1.089 -33.840  0.00  0.00     0.242 C 
ATOM     15  O   UNK d   1     -21.862  -0.837 -33.259  0.00  0.00    -0.271 OA
ATOM     16  N   UNK d   1     -20.655  -0.898 -35.224  0.00  0.00    -0.326 N 
ATOM     17  H   UNK d   1     -19.702  -1.134 -35.654  0.00  0.00     0.169 HD
BRANCH  16  18
ATOM     18  C   UNK d   1     -21.659  -0.420 -36.089  0.00  0.00     0.037 A 
ATOM     19  C   UNK d   1     -22.640  -1.176 -36.679  0.00  0.00     0.069 A 
ATOM     20  C   UNK d   1     -23.587  -0.649 -37.533  0.00  0.00     0.103 A 
ATOM     21  C   UNK d   1     -23.538   0.704 -37.800  0.00  0.00     0.101 A 
ATOM     22  C   UNK d   1     -22.564   1.502 -37.223  0.00  0.00     0.042 A 
ATOM     23  C   UNK d   1     -21.634   0.957 -36.380  0.00  0.00     0.032 A 
BRANCH  20  24
ATOM     24  O   UNK d   1     -24.572  -1.441 -38.118  0.00  0.00    -0.353 OA
ATOM     25  C   UNK d   1     -24.220  -2.786 -38.466  0.00  0.00     0.210 C 
ENDBRANCH  20  24
BRANCH  21  26
ATOM     26  O   UNK d   1     -24.485   1.256 -38.658  0.00  0.00    -0.353 OA
ATOM     27  C   UNK d   1     -24.065   2.169 -39.653  0.00  0.00     0.210 C 
ENDBRANCH  21  26
ENDBRANCH  16  18
ENDBRANCH  13  14
ENDBRANCH   8  13
BRANCH   1  28
ATOM     28  C   UNK d   1     -18.973  -0.579 -27.313  0.00  0.00     0.046 A 
ATOM     29  C   UNK d   1     -18.985   0.795 -27.191  0.00  0.00     0.031 A 
ATOM     30  C   UNK d   1     -18.526   1.426 -26.039  0.00  0.00     0.021 A 
ATOM     31  C   UNK d   1     -18.039   0.695 -24.973  0.00  0.00     0.011 A 
ATOM     32 Br   UNK d   1     -17.405   1.555 -23.383  0.00  0.00    -0.051 Br
ATOM     33  C   UNK d   1     -18.031  -0.679 -25.103  0.00  0.00     0.021 A 
ATOM     34  C   UNK d   1     -18.487  -1.302 -26.246  0.00  0.00     0.031 A 
ENDBRANCH   1  28
TORSDOF 6
ENDMDL
