/Users/jonathanwahrer/Desktop/Msc/3_Semester/Drug_Design_Praktikum/waehrer_HTS_screening/HTS_experiment/out/docking_results/vina_output/5l4q/1511_docked.pdbqt
 OpenBabel03212218503D

 34 37  0  0  0  0  0  0  0  0999 V2000
  -19.4340   -1.2570  -28.4760 N   0  0  0  0  0  0  0  0  0  0  0  0
  -19.2250   -0.9860  -29.7740 C   0  0  0  0  0  0  0  0  0  0  0  0
  -18.5310   -0.0090  -30.1570 O   0  0  0  0  0  0  0  0  0  0  0  0
  -19.8630   -1.9080  -30.5870 C   0  0  0  0  0  0  0  0  0  0  0  0
  -20.4700   -2.7550  -29.7660 C   0  0  0  0  0  0  0  0  0  0  0  0
  -21.0880   -3.6480  -30.5540 N   0  0  0  0  0  0  0  0  0  0  0  0
  -20.8640   -3.3540  -31.8220 N   0  0  0  0  0  0  0  0  0  0  0  0
  -20.1110   -2.2870  -31.8640 N   0  0  0  0  0  0  0  0  0  0  0  0
  -20.2130   -2.3620  -28.4690 C   0  0  0  0  0  0  0  0  0  0  0  0
  -20.6410   -2.9490  -27.4210 O   0  0  0  0  0  0  0  0  0  0  0  0
  -21.6640   -4.4580  -30.2500 H   0  0  0  0  0  0  0  0  0  0  0  0
  -21.2200   -3.8770  -32.6770 H   0  0  0  0  0  0  0  0  0  0  0  0
  -19.6140   -1.6040  -33.0340 C   0  0  0  0  0  2  0  0  0  0  0  0
  -20.7840   -1.0890  -33.8400 C   0  0  0  0  0  0  0  0  0  0  0  0
  -21.8620   -0.8370  -33.2590 O   0  0  0  0  0  0  0  0  0  0  0  0
  -20.6550   -0.8980  -35.2240 N   0  0  0  0  0  0  0  0  0  0  0  0
  -19.7020   -1.1340  -35.6540 H   0  0  0  0  0  0  0  0  0  0  0  0
  -21.6590   -0.4200  -36.0890 C   0  0  0  0  0  0  0  0  0  0  0  0
  -22.6400   -1.1760  -36.6790 C   0  0  0  0  0  3  0  0  0  0  0  0
  -23.5870   -0.6490  -37.5330 C   0  0  0  0  0  0  0  0  0  0  0  0
  -23.5380    0.7040  -37.8000 C   0  0  0  0  0  0  0  0  0  0  0  0
  -22.5640    1.5020  -37.2230 C   0  0  0  0  0  3  0  0  0  0  0  0
  -21.6340    0.9570  -36.3800 C   0  0  0  0  0  3  0  0  0  0  0  0
  -24.5720   -1.4410  -38.1180 O   0  0  0  0  0  0  0  0  0  0  0  0
  -24.2200   -2.7860  -38.4660 C   0  0  0  0  0  1  0  0  0  0  0  0
  -24.4850    1.2560  -38.6580 O   0  0  0  0  0  0  0  0  0  0  0  0
  -24.0650    2.1690  -39.6530 C   0  0  0  0  0  1  0  0  0  0  0  0
  -18.9730   -0.5790  -27.3130 C   0  0  0  0  0  0  0  0  0  0  0  0
  -18.9850    0.7950  -27.1910 C   0  0  0  0  0  3  0  0  0  0  0  0
  -18.5260    1.4260  -26.0390 C   0  0  0  0  0  3  0  0  0  0  0  0
  -18.0390    0.6950  -24.9730 C   0  0  0  0  0  0  0  0  0  0  0  0
  -17.4050    1.5550  -23.3830 Br  0  0  0  0  0  0  0  0  0  0  0  0
  -18.0310   -0.6790  -25.1030 C   0  0  0  0  0  3  0  0  0  0  0  0
  -18.4870   -1.3020  -26.2460 C   0  0  0  0  0  3  0  0  0  0  0  0
  1  9  1  0  0  0  0
  1 28  1  0  0  0  0
  2  1  1  0  0  0  0
  3  2  2  0  0  0  0
  4  2  1  0  0  0  0
  4  5  2  0  0  0  0
  5  9  1  0  0  0  0
  6 11  1  0  0  0  0
  6  5  1  0  0  0  0
  7  6  1  0  0  0  0
  8  7  1  0  0  0  0
  8  4  1  0  0  0  0
  9 10  2  0  0  0  0
 12  7  1  0  0  0  0
 13  8  1  0  0  0  0
 14 15  2  0  0  0  0
 14 13  1  0  0  0  0
 16 14  1  0  0  0  0
 17 16  1  0  0  0  0
 18 16  1  0  0  0  0
 19 18  2  0  0  0  0
 20 19  1  0  0  0  0
 21 20  2  0  0  0  0
 21 22  1  0  0  0  0
 22 23  2  0  0  0  0
 23 18  1  0  0  0  0
 24 20  1  0  0  0  0
 25 24  1  0  0  0  0
 26 21  1  0  0  0  0
 27 26  1  0  0  0  0
 28 29  2  0  0  0  0
 28 34  1  0  0  0  0
 29 30  1  0  0  0  0
 30 31  2  0  0  0  0
 31 32  1  0  0  0  0
 33 31  1  0  0  0  0
 34 33  2  0  0  0  0
M  END
>  <Pose>
1

>  <Score>
-8.918

$$$$
