MODEL 1
REMARK VINA RESULT:    -9.362      0.000      0.000
REMARK INTER + INTRA:         -11.379
REMARK INTER:                 -11.004
REMARK INTRA:                  -0.375
REMARK UNBOUND:                -0.375
REMARK  3 active torsions:
REMARK  status: ('A' for Active; 'I' for Inactive)
REMARK    1  A    between atoms: C_5  and  C_8 
REMARK       I    between atoms: C_8  and  N_10 
REMARK    2  A    between atoms: N_10  and  C_11 
REMARK    3  A    between atoms: C_11  and  C_12 
REMARK       I    between atoms: C_12  and  N_14 
ROOT
ATOM      1  C   UNK d   1     -19.057  -1.350 -30.356  0.00  0.00     0.171 C 
ATOM      2  O   UNK d   1     -17.961  -0.704 -30.029  0.00  0.00    -0.175 OA
ATOM      3  N   UNK d   1     -19.420  -1.210 -31.688  0.00  0.00    -0.361 N 
ATOM      4  C   UNK d   1     -20.549  -1.841 -32.288  0.00  0.00     0.127 C 
ATOM      5  C   UNK d   1     -20.410  -1.706 -33.822  0.00  0.00     0.057 C 
ATOM      6  C   UNK d   1     -20.592  -0.233 -34.138  0.00  0.00     0.073 C 
ATOM      7  N   UNK d   1     -21.870   0.176 -33.722  0.00  0.00    -0.407 N 
ATOM      8  C   UNK d   1     -22.983   0.007 -34.553  0.00  0.00     0.121 C 
ATOM      9  C   UNK d   1     -22.791   0.199 -36.010  0.00  0.00     0.080 C 
ATOM     10  C   UNK d   1     -21.376   0.157 -36.434  0.00  0.00     0.062 A 
ATOM     11  N   UNK d   1     -20.877   0.302 -37.677  0.00  0.00    -0.246 NA
ATOM     12  C   UNK d   1     -19.547   0.193 -37.606  0.00  0.00     0.207 A 
ATOM     13  N   UNK d   1     -19.209  -0.021 -36.314  0.00  0.00    -0.350 N 
ATOM     14  C   UNK d   1     -20.333  -0.046 -35.574  0.00  0.00     0.063 A 
ATOM     15  C   UNK d   1     -19.562   0.548 -33.304  0.00  0.00     0.057 C 
ATOM     16  C   UNK d   1     -18.612  -0.364 -32.581  0.00  0.00     0.127 C 
ATOM     17  H   UNK d   1     -22.016   0.440 -32.755  0.00  0.00     0.154 HD
ATOM     18  H   UNK d   1     -18.243  -0.145 -35.962  0.00  0.00     0.166 HD
ENDROOT
BRANCH   1  19
ATOM     19  C   UNK d   1     -19.667  -2.086 -29.250  0.00  0.00     0.210 C 
BRANCH  19  20
ATOM     20  N   UNK d   1     -19.199  -1.851 -27.984  0.00  0.00    -0.349 N 
ATOM     21  C   UNK d   1     -18.736  -1.620 -26.732  0.00  0.00     0.252 C 
ATOM     22  O   UNK d   1     -18.427  -2.475 -25.862  0.00  0.00    -0.268 OA
ATOM     23  H   UNK d   1     -19.205  -3.209 -27.757  0.00  0.00     0.163 HD
BRANCH  21  24
ATOM     24  C   UNK d   1     -18.562  -0.194 -26.303  0.00  0.00     0.032 A 
ATOM     25  C   UNK d   1     -18.164   0.065 -25.025  0.00  0.00     0.018 A 
ATOM     26  C   UNK d   1     -17.997   1.390 -24.611  0.00  0.00     0.025 A 
ATOM     27  C   UNK d   1     -18.241   2.393 -25.507  0.00  0.00     0.034 A 
ATOM     28 Cl   UNK d   1     -18.036   4.058 -24.982  0.00  0.00    -0.084 Cl
ATOM     29  C   UNK d   1     -18.640   2.135 -26.786  0.00  0.00     0.025 A 
ATOM     30  C   UNK d   1     -18.805   0.796 -27.194  0.00  0.00     0.018 A 
ENDBRANCH  21  24
ENDBRANCH  19  20
ENDBRANCH   1  19
TORSDOF 3
ENDMDL
