/Users/jonathanwahrer/Desktop/Msc/3_Semester/Drug_Design_Praktikum/waehrer_HTS_screening/HTS_experiment/out/docking_results/vina_output/5l4q/1516_docked.pdbqt
 OpenBabel03212218513D

 30 33  0  0  1  0  0  0  0  0999 V2000
  -19.0570   -1.3500  -30.3560 C   0  0  0  0  0  0  0  0  0  0  0  0
  -17.9610   -0.7040  -30.0290 O   0  0  0  0  0  0  0  0  0  0  0  0
  -19.4200   -1.2100  -31.6880 N   0  0  0  0  0  0  0  0  0  0  0  0
  -20.5490   -1.8410  -32.2880 C   0  0  0  0  0  2  0  0  0  0  0  0
  -20.4100   -1.7060  -33.8220 C   0  0  0  0  0  2  0  0  0  0  0  0
  -20.5920   -0.2330  -34.1380 C   0  0  2  0  0  0  0  0  0  0  0  0
  -21.8700    0.1760  -33.7220 N   0  0  0  0  0  0  0  0  0  0  0  0
  -22.9830    0.0070  -34.5530 C   0  0  0  0  0  2  0  0  0  0  0  0
  -22.7910    0.1990  -36.0100 C   0  0  0  0  0  2  0  0  0  0  0  0
  -21.3760    0.1570  -36.4340 C   0  0  0  0  0  0  0  0  0  0  0  0
  -20.8770    0.3020  -37.6770 N   0  0  0  0  0  0  0  0  0  0  0  0
  -19.5470    0.1930  -37.6060 C   0  0  0  0  0  3  0  0  0  0  0  0
  -19.2090   -0.0210  -36.3140 N   0  0  0  0  0  0  0  0  0  0  0  0
  -20.3330   -0.0460  -35.5740 C   0  0  0  0  0  0  0  0  0  0  0  0
  -19.5620    0.5480  -33.3040 C   0  0  0  0  0  2  0  0  0  0  0  0
  -18.6120   -0.3640  -32.5810 C   0  0  0  0  0  2  0  0  0  0  0  0
  -22.0160    0.4400  -32.7550 H   0  0  0  0  0  0  0  0  0  0  0  0
  -18.2430   -0.1450  -35.9620 H   0  0  0  0  0  0  0  0  0  0  0  0
  -19.6670   -2.0860  -29.2500 C   0  0  0  0  0  2  0  0  0  0  0  0
  -19.1990   -1.8510  -27.9840 N   0  0  0  0  0  0  0  0  0  0  0  0
  -18.7360   -1.6200  -26.7320 C   0  0  0  0  0  0  0  0  0  0  0  0
  -18.4270   -2.4750  -25.8620 O   0  0  0  0  0  0  0  0  0  0  0  0
  -19.2050   -3.2090  -27.7570 H   0  0  0  0  0  0  0  0  0  0  0  0
  -18.5620   -0.1940  -26.3030 C   0  0  0  0  0  0  0  0  0  0  0  0
  -18.1640    0.0650  -25.0250 C   0  0  0  0  0  3  0  0  0  0  0  0
  -17.9970    1.3900  -24.6110 C   0  0  0  0  0  3  0  0  0  0  0  0
  -18.2410    2.3930  -25.5070 C   0  0  0  0  0  0  0  0  0  0  0  0
  -18.0360    4.0580  -24.9820 Cl  0  0  0  0  0  0  0  0  0  0  0  0
  -18.6400    2.1350  -26.7860 C   0  0  0  0  0  3  0  0  0  0  0  0
  -18.8050    0.7960  -27.1940 C   0  0  0  0  0  3  0  0  0  0  0  0
  1  2  2  0  0  0  0
  1 19  1  0  0  0  0
  3  1  1  0  0  0  0
  4  3  1  0  0  0  0
  5  4  1  0  0  0  0
  6  5  1  1  0  0  0
  6  7  1  0  0  0  0
  6 15  1  0  0  0  0
  7 17  1  0  0  0  0
  8  7  1  0  0  0  0
  9  8  1  0  0  0  0
 10  9  1  0  0  0  0
 10 14  2  0  0  0  0
 11 12  2  0  0  0  0
 11 10  1  0  0  0  0
 12 13  1  0  0  0  0
 13 18  1  0  0  0  0
 13 14  1  0  0  0  0
 14  6  1  0  0  0  0
 15 16  1  0  0  0  0
 16  3  1  0  0  0  0
 19 20  1  0  0  0  0
 20 23  1  0  0  0  0
 20 21  1  0  0  0  0
 21 24  1  0  0  0  0
 21 22  2  0  0  0  0
 24 25  1  0  0  0  0
 25 26  2  0  0  0  0
 27 28  1  0  0  0  0
 27 26  1  0  0  0  0
 29 27  2  0  0  0  0
 30 29  1  0  0  0  0
 30 24  2  0  0  0  0
M  END
>  <Pose>
1

>  <Score>
-9.362

$$$$
