/Users/jonathanwahrer/Desktop/Msc/3_Semester/Drug_Design_Praktikum/waehrer_HTS_screening/HTS_experiment/out/docking_results/vina_output/5l4q/1518_docked.pdbqt
 OpenBabel03212218513D

 31 34  0  0  1  0  0  0  0  0999 V2000
  -18.7820   -1.1780  -30.7380 C   0  0  0  0  0  0  0  0  0  0  0  0
  -17.8240   -0.4650  -30.3500 O   0  0  0  0  0  0  0  0  0  0  0  0
  -19.3780   -0.9490  -32.0000 N   0  0  0  0  0  0  0  0  0  0  0  0
  -20.4860   -1.7350  -32.5040 C   0  0  0  0  0  2  0  0  0  0  0  0
  -20.3440   -1.8180  -34.0160 C   0  0  0  0  0  2  0  0  0  0  0  0
  -20.4700   -0.4280  -34.6390 C   0  0  1  0  0  0  0  0  0  0  0  0
  -19.5960   -0.4030  -35.7750 N   0  0  0  0  0  0  0  0  0  0  0  0
  -19.9570    0.6360  -36.7160 C   0  0  0  0  0  2  0  0  0  0  0  0
  -21.2580    0.2340  -37.4080 C   0  0  0  0  0  2  0  0  0  0  0  0
  -22.2810    0.1080  -36.3300 C   0  0  0  0  0  0  0  0  0  0  0  0
  -23.6400    0.2460  -36.3460 N   0  0  0  0  0  0  0  0  0  0  0  0
  -24.0920    0.0270  -35.0990 C   0  0  0  0  0  3  0  0  0  0  0  0
  -23.0320   -0.2430  -34.3160 N   0  0  0  0  0  0  0  0  0  0  0  0
  -21.8810   -0.2020  -35.0500 C   0  0  0  0  0  0  0  0  0  0  0  0
  -20.0380    0.6390  -33.6570 C   0  0  0  0  0  2  0  0  0  0  0  0
  -18.8840    0.1120  -32.8560 C   0  0  0  0  0  2  0  0  0  0  0  0
  -18.6010   -0.3030  -35.4940 H   0  0  0  0  0  0  0  0  0  0  0  0
  -24.1590    0.4820  -37.2220 H   0  0  0  0  0  0  0  0  0  0  0  0
  -19.2620   -2.2530  -29.8410 C   0  0  0  0  0  2  0  0  0  0  0  0
  -20.3290   -1.7890  -28.9000 C   0  0  0  0  0  2  0  0  0  0  0  0
  -19.8390   -0.6690  -28.1220 N   0  0  0  0  0  0  0  0  0  0  0  0
  -19.1150   -0.8020  -26.9370 C   0  0  0  0  0  0  0  0  0  0  0  0
  -18.8510   -1.9440  -26.4830 O   0  0  0  0  0  0  0  0  0  0  0  0
  -20.0640    0.2760  -28.5130 H   0  0  0  0  0  0  0  0  0  0  0  0
  -18.6370    0.3500  -26.1760 C   0  0  0  0  0  0  0  0  0  0  0  0
  -18.2080    0.2430  -24.8710 C   0  0  0  0  0  3  0  0  0  0  0  0
  -17.7660    1.3730  -24.2010 C   0  0  0  0  0  3  0  0  0  0  0  0
  -17.7430    2.6190  -24.8110 C   0  0  0  0  0  0  0  0  0  0  0  0
  -17.1690    3.9940  -23.8890 Cl  0  0  0  0  0  0  0  0  0  0  0  0
  -18.1700    2.7390  -26.1160 C   0  0  0  0  0  3  0  0  0  0  0  0
  -18.6030    1.6140  -26.7640 C   0  0  0  0  0  3  0  0  0  0  0  0
  1  2  2  0  0  0  0
  1 19  1  0  0  0  0
  3  1  1  0  0  0  0
  4  3  1  0  0  0  0
  5  4  1  0  0  0  0
  6  5  1  1  0  0  0
  6 15  1  0  0  0  0
  7 17  1  0  0  0  0
  7  6  1  0  0  0  0
  8  7  1  0  0  0  0
  9  8  1  0  0  0  0
  9 10  1  0  0  0  0
 10 14  2  0  0  0  0
 11 10  1  0  0  0  0
 11 12  1  0  0  0  0
 12 13  2  0  0  0  0
 14  6  1  0  0  0  0
 14 13  1  0  0  0  0
 15 16  1  0  0  0  0
 16  3  1  0  0  0  0
 18 11  1  0  0  0  0
 19 20  1  0  0  0  0
 20 21  1  0  0  0  0
 21 22  1  0  0  0  0
 22 23  2  0  0  0  0
 22 25  1  0  0  0  0
 24 21  1  0  0  0  0
 25 26  1  0  0  0  0
 26 27  2  0  0  0  0
 28 27  1  0  0  0  0
 28 29  1  0  0  0  0
 30 28  2  0  0  0  0
 31 25  2  0  0  0  0
 31 30  1  0  0  0  0
M  END
>  <Pose>
1

>  <Score>
-9.141

$$$$
