MODEL 1
REMARK VINA RESULT:    -7.262      0.000      0.000
REMARK INTER + INTRA:          -8.602
REMARK INTER:                  -8.323
REMARK INTRA:                  -0.279
REMARK UNBOUND:                -0.279
REMARK  3 active torsions:
REMARK  status: ('A' for Active; 'I' for Inactive)
REMARK    1  A    between atoms: N_12  and  C_15 
REMARK    2  A    between atoms: C_15  and  C_16 
REMARK    3  A    between atoms: C_16  and  O_21 
ROOT
ATOM      1 Cl   UNK d   1     -19.552  -1.090 -31.003  0.00  0.00    -0.082 Cl
ATOM      2  C   UNK d   1     -20.641  -1.690 -32.236  0.00  0.00     0.061 A 
ATOM      3  C   UNK d   1     -21.133  -0.824 -33.183  0.00  0.00     0.065 A 
ATOM      4  N   UNK d   1     -20.981   0.488 -33.430  0.00  0.00    -0.357 N 
ATOM      5  C   UNK d   1     -21.694   0.874 -34.505  0.00  0.00     0.020 A 
ATOM      6  C   UNK d   1     -22.329  -0.265 -34.954  0.00  0.00    -0.006 A 
ATOM      7  C   UNK d   1     -21.992  -1.328 -34.145  0.00  0.00     0.002 A 
ATOM      8  C   UNK d   1     -22.322  -2.668 -34.123  0.00  0.00     0.014 A 
ATOM      9  C   UNK d   1     -21.844  -3.554 -33.189  0.00  0.00     0.003 A 
ATOM     10  C   UNK d   1     -20.982  -3.043 -32.224  0.00  0.00     0.026 A 
ATOM     11  C   UNK d   1     -23.187  -0.092 -36.153  0.00  0.00     0.158 C 
ATOM     12  N   UNK d   1     -22.346   0.585 -37.114  0.00  0.00    -0.405 N 
ATOM     13  C   UNK d   1     -21.997   1.907 -36.768  0.00  0.00     0.123 C 
ATOM     14  C   UNK d   1     -21.958   2.110 -35.271  0.00  0.00     0.077 C 
ATOM     15  H   UNK d   1     -20.388   1.170 -32.879  0.00  0.00     0.166 HD
ENDROOT
BRANCH  12  16
ATOM     16  C   UNK d   1     -22.617   0.282 -38.454  0.00  0.00     0.156 C 
BRANCH  16  17
ATOM     17  C   UNK d   1     -21.424  -0.241 -39.195  0.00  0.00     0.101 A 
ATOM     18  C   UNK d   1     -21.717  -1.445 -40.021  0.00  0.00     0.308 A 
ATOM     19  N   UNK d   1     -21.355  -1.217 -41.377  0.00  0.00     0.086 N 
ATOM     20  C   UNK d   1     -20.883   0.122 -41.519  0.00  0.00     0.272 A 
ATOM     21  H   UNK d   1     -20.684  -1.923 -41.763  0.00  0.00     0.315 HD
ATOM     22  C   UNK d   1     -20.988   0.797 -40.194  0.00  0.00     0.071 A 
BRANCH  17  23
ATOM     23  O   UNK d   1     -20.343  -0.445 -38.328  0.00  0.00    -0.386 OA
ATOM     24  H   UNK d   1     -19.611   0.136 -38.665  0.00  0.00     0.210 HD
ENDBRANCH  17  23
ENDBRANCH  16  17
ENDBRANCH  12  16
TORSDOF 3
ENDMDL
