/Users/jonathanwahrer/Desktop/Msc/3_Semester/Drug_Design_Praktikum/waehrer_HTS_screening/HTS_experiment/out/docking_results/vina_output/5l4q/1521_docked.pdbqt
 OpenBabel03212218513D

 24 27  0  0  1  0  0  0  0  0999 V2000
  -19.5520   -1.0900  -31.0030 Cl  0  0  0  0  0  0  0  0  0  0  0  0
  -20.6410   -1.6900  -32.2360 C   0  0  0  0  0  0  0  0  0  0  0  0
  -21.1330   -0.8240  -33.1830 C   0  0  0  0  0  0  0  0  0  0  0  0
  -20.9810    0.4880  -33.4300 N   0  0  0  0  0  0  0  0  0  0  0  0
  -21.6940    0.8740  -34.5050 C   0  0  0  0  0  0  0  0  0  0  0  0
  -22.3290   -0.2650  -34.9540 C   0  0  0  0  0  0  0  0  0  0  0  0
  -21.9920   -1.3280  -34.1450 C   0  0  0  0  0  0  0  0  0  0  0  0
  -22.3220   -2.6680  -34.1230 C   0  0  0  0  0  3  0  0  0  0  0  0
  -21.8440   -3.5540  -33.1890 C   0  0  0  0  0  3  0  0  0  0  0  0
  -20.9820   -3.0430  -32.2240 C   0  0  0  0  0  3  0  0  0  0  0  0
  -23.1870   -0.0920  -36.1530 C   0  0  0  0  0  2  0  0  0  0  0  0
  -22.3460    0.5850  -37.1140 N   0  0  0  0  0  0  0  0  0  0  0  0
  -21.9970    1.9070  -36.7680 C   0  0  0  0  0  2  0  0  0  0  0  0
  -21.9580    2.1100  -35.2710 C   0  0  0  0  0  2  0  0  0  0  0  0
  -20.3880    1.1700  -32.8790 H   0  0  0  0  0  0  0  0  0  0  0  0
  -22.6170    0.2820  -38.4540 C   0  0  0  0  0  2  0  0  0  0  0  0
  -21.4240   -0.2410  -39.1950 C   0  0  1  0  0  0  0  0  0  0  0  0
  -21.7170   -1.4450  -40.0210 C   0  0  0  0  0  2  0  0  0  0  0  0
  -21.3550   -1.2170  -41.3770 N   0  0  0  0  0  0  0  0  0  0  0  0
  -20.8830    0.1220  -41.5190 C   0  0  0  0  0  3  0  0  0  0  0  0
  -20.6840   -1.9230  -41.7630 H   0  0  0  0  0  0  0  0  0  0  0  0
  -20.9880    0.7970  -40.1940 C   0  0  0  0  0  3  0  0  0  0  0  0
  -20.3430   -0.4450  -38.3280 O   0  0  0  0  0  0  0  0  0  0  0  0
  -19.6110    0.1360  -38.6650 H   0  0  0  0  0  0  0  0  0  0  0  0
  2 10  1  0  0  0  0
  2  1  1  0  0  0  0
  3  2  2  0  0  0  0
  4  3  1  0  0  0  0
  4 15  1  0  0  0  0
  5  4  1  0  0  0  0
  6  5  2  0  0  0  0
  6  7  1  0  0  0  0
  7  8  2  0  0  0  0
  7  3  1  0  0  0  0
  8  9  1  0  0  0  0
  9 10  2  0  0  0  0
 11  6  1  0  0  0  0
 12 13  1  0  0  0  0
 12 11  1  0  0  0  0
 13 14  1  0  0  0  0
 14  5  1  0  0  0  0
 16 12  1  0  0  0  0
 17 16  1  1  0  0  0
 17 23  1  0  0  0  0
 18 17  1  0  0  0  0
 19 18  1  0  0  0  0
 20 19  1  0  0  0  0
 20 22  2  0  0  0  0
 21 19  1  0  0  0  0
 22 17  1  0  0  0  0
 24 23  1  0  0  0  0
M  END
>  <Pose>
1

>  <Score>
-7.262

$$$$
