MODEL 1
REMARK VINA RESULT:    -8.850      0.000      0.000
REMARK INTER + INTRA:         -10.784
REMARK INTER:                 -10.402
REMARK INTRA:                  -0.383
REMARK UNBOUND:                -0.383
REMARK  3 active torsions:
REMARK  status: ('A' for Active; 'I' for Inactive)
REMARK    1  A    between atoms: C_4  and  N_8 
REMARK    2  A    between atoms: C_11  and  C_13 
REMARK       I    between atoms: C_13  and  N_15 
REMARK       I    between atoms: N_18  and  C_21 
REMARK    3  A    between atoms: C_21  and  C_23 
ROOT
ATOM      1  C   UNK d   1     -20.707  -0.735 -33.859  0.00  0.00     0.275 C 
ATOM      2  O   UNK d   1     -19.572  -0.181 -34.070  0.00  0.00    -0.266 OA
ATOM      3  N   UNK d   1     -21.831  -0.349 -34.589  0.00  0.00    -0.344 N 
ATOM      4  C   UNK d   1     -21.716   0.684 -35.581  0.00  0.00     0.146 C 
ATOM      5  C   UNK d   1     -21.952   0.072 -36.934  0.00  0.00     0.145 C 
ATOM      6  N   UNK d   1     -23.093  -0.797 -36.873  0.00  0.00    -0.349 N 
ATOM      7  C   UNK d   1     -23.964  -0.619 -35.695  0.00  0.00     0.145 C 
ATOM      8  C   UNK d   1     -23.157  -0.907 -34.437  0.00  0.00     0.146 C 
ATOM      9  C   UNK d   1     -23.467  -1.784 -37.785  0.00  0.00     0.224 C 
ATOM     10  O   UNK d   1     -24.573  -2.400 -37.501  0.00  0.00    -0.273 OA
ENDROOT
BRANCH   1  11
ATOM     11  C   UNK d   1     -20.709  -1.781 -32.810  0.00  0.00     0.166 A 
ATOM     12  N   UNK d   1     -21.092  -3.060 -32.931  0.00  0.00    -0.125 NA
ATOM     13  N   UNK d   1     -20.945  -3.668 -31.775  0.00  0.00    -0.060 NA
ATOM     14  N   UNK d   1     -20.465  -2.821 -30.858  0.00  0.00    -0.224 N 
ATOM     15  C   UNK d   1     -20.318  -1.649 -31.498  0.00  0.00     0.159 A 
BRANCH  14  16
ATOM     16  C   UNK d   1     -20.181  -3.128 -29.504  0.00  0.00     0.060 A 
ATOM     17  C   UNK d   1     -19.630  -2.183 -28.674  0.00  0.00     0.050 A 
ATOM     18  C   UNK d   1     -19.356  -2.506 -27.337  0.00  0.00     0.013 A 
ATOM     19 Br   UNK d   1     -18.590  -1.207 -26.172  0.00  0.00    -0.051 Br
ATOM     20  C   UNK d   1     -19.633  -3.754 -26.847  0.00  0.00     0.019 A 
ATOM     21  C   UNK d   1     -20.185  -4.706 -27.669  0.00  0.00     0.004 A 
ATOM     22  C   UNK d   1     -20.455  -4.374 -29.002  0.00  0.00     0.032 A 
ENDBRANCH  14  16
ENDBRANCH   1  11
BRANCH   9  23
ATOM     23  C   UNK d   1     -22.816  -2.237 -39.008  0.00  0.00     0.078 A 
ATOM     24  C   UNK d   1     -23.516  -2.833 -40.146  0.00  0.00     0.015 A 
ATOM     25  C   UNK d   1     -22.816  -1.485 -40.287  0.00  0.00     0.015 A 
ENDBRANCH   9  23
TORSDOF 3
ENDMDL
