MODEL 1
REMARK VINA RESULT:    -8.853      0.000      0.000
REMARK INTER + INTRA:         -10.843
REMARK INTER:                 -10.406
REMARK INTRA:                  -0.438
REMARK UNBOUND:                -0.438
REMARK  3 active torsions:
REMARK  status: ('A' for Active; 'I' for Inactive)
REMARK    1  A    between atoms: C_4  and  N_8 
REMARK    2  A    between atoms: C_11  and  N_15 
REMARK    3  A    between atoms: N_18  and  C_21 
ROOT
ATOM      1  N   UNK d   1     -19.966  -1.503 -31.915  0.00  0.00    -0.251 N 
ATOM      2  C   UNK d   1     -20.822  -2.050 -32.910  0.00  0.00     0.254 C 
ATOM      3  O   UNK d   1     -21.473  -3.112 -32.755  0.00  0.00    -0.270 OA
ATOM      4  C   UNK d   1     -20.763  -1.153 -34.058  0.00  0.00     0.181 C 
ATOM      5  C   UNK d   1     -19.368  -0.572 -33.967  0.00  0.00     0.138 C 
ATOM      6  C   UNK d   1     -19.006  -0.643 -32.539  0.00  0.00     0.233 C 
ATOM      7  O   UNK d   1     -18.045  -0.069 -31.960  0.00  0.00    -0.273 OA
ENDROOT
BRANCH   4   8
ATOM      8  N   UNK d   1     -21.765  -0.169 -34.143  0.00  0.00    -0.397 N 
ATOM      9  C   UNK d   1     -23.065  -0.509 -33.726  0.00  0.00     0.138 C 
ATOM     10  C   UNK d   1     -23.889  -0.900 -34.961  0.00  0.00     0.161 C 
ATOM     11  N   UNK d   1     -23.229  -0.420 -36.164  0.00  0.00    -0.211 N 
ATOM     12  C   UNK d   1     -22.505   0.836 -36.194  0.00  0.00     0.161 C 
ATOM     13  C   UNK d   1     -21.615   0.939 -34.978  0.00  0.00     0.138 C 
BRANCH  11  14
ATOM     14  C   UNK d   1     -23.252  -1.188 -37.375  0.00  0.00     0.724 A 
ATOM     15  N   UNK d   1     -22.480  -0.849 -38.428  0.00  0.00    -0.075 NA
ATOM     16  C   UNK d   1     -22.493  -1.585 -39.557  0.00  0.00     0.138 A 
ATOM     17  C   UNK d   1     -23.296  -2.714 -39.678  0.00  0.00     0.040 A 
ATOM     18  C   UNK d   1     -24.084  -3.057 -38.593  0.00  0.00     0.138 A 
ATOM     19  N   UNK d   1     -24.026  -2.282 -37.495  0.00  0.00    -0.075 NA
ENDBRANCH  11  14
ENDBRANCH   4   8
BRANCH   1  20
ATOM     20  C   UNK d   1     -20.079  -1.782 -30.519  0.00  0.00     0.046 A 
ATOM     21  C   UNK d   1     -20.111  -3.060 -30.002  0.00  0.00     0.049 A 
ATOM     22  C   UNK d   1     -20.219  -3.280 -28.632  0.00  0.00     0.013 A 
ATOM     23 Br   UNK d   1     -20.264  -5.040 -27.910  0.00  0.00    -0.051 Br
ATOM     24  C   UNK d   1     -20.297  -2.220 -27.755  0.00  0.00     0.019 A 
ATOM     25  C   UNK d   1     -20.268  -0.939 -28.248  0.00  0.00     0.004 A 
ATOM     26  C   UNK d   1     -20.160  -0.743 -29.598  0.00  0.00     0.030 A 
ENDBRANCH   1  20
TORSDOF 3
ENDMDL
