/Users/jonathanwahrer/Desktop/Msc/3_Semester/Drug_Design_Praktikum/waehrer_HTS_screening/HTS_experiment/out/docking_results/vina_output/5l4q/1533_docked.pdbqt
 OpenBabel03212218523D

 28 31  0  0  1  0  0  0  0  0999 V2000
  -20.9540    0.4390  -34.9850 C   0  0  0  0  0  0  0  0  0  0  0  0
  -19.9350    1.0590  -35.6350 N   0  0  0  0  0  0  0  0  0  0  0  0
  -20.4360    1.9150  -36.5310 C   0  0  2  0  0  3  0  0  0  0  0  0
  -21.8030    1.8830  -36.4930 N   0  0  0  0  0  0  0  0  0  0  0  0
  -22.1030    0.9790  -35.5460 C   0  0  0  0  0  3  0  0  0  0  0  0
  -19.3540    2.6030  -37.2700 C   0  0  0  0  0  2  0  0  0  0  0  0
  -18.1950    2.4460  -36.3250 C   0  0  0  0  0  2  0  0  0  0  0  0
  -18.4730    1.1100  -35.6760 C   0  0  0  0  0  2  0  0  0  0  0  0
  -22.7040    2.6220  -37.3290 C   0  0  0  0  0  3  0  0  0  0  0  0
  -23.1310    2.1470  -38.6170 C   0  0  0  0  0  0  0  0  0  0  0  0
  -23.9750    2.9750  -39.2250 O   0  0  0  0  0  1  0  0  0  0  0  0
  -22.8450    0.9700  -39.3980 C   0  0  0  0  0  0  0  0  0  0  0  0
  -23.2180   -0.3030  -38.9100 C   0  0  0  0  0  3  0  0  0  0  0  0
  -22.9910   -1.4760  -39.5790 C   0  0  0  0  0  0  0  0  0  0  0  0
  -22.3580   -1.3780  -40.8020 C   0  0  0  0  0  3  0  0  0  0  0  0
  -21.9840   -0.1500  -41.3000 C   0  0  0  0  0  3  0  0  0  0  0  0
  -22.2180    1.0430  -40.6120 C   0  0  0  0  0  3  0  0  0  0  0  0
  -23.3720   -2.7410  -39.0710 N   0  0  0  0  0  0  0  0  0  0  0  0
  -23.0170   -3.7640  -39.6660 O   0  0  0  0  0  0  0  0  0  0  0  0
  -24.1240   -2.8660  -37.9390 O   0  0  0  0  0  0  0  0  0  0  0  0
  -20.9280   -0.5710  -33.9270 C   0  0  0  0  0  0  0  0  0  0  0  0
  -20.3230   -0.2550  -32.7320 C   0  0  0  0  0  3  0  0  0  0  0  0
  -20.2760   -1.1670  -31.6740 C   0  0  0  0  0  3  0  0  0  0  0  0
  -20.8490   -2.4070  -31.8350 C   0  0  0  0  0  0  0  0  0  0  0  0
  -21.4500   -2.7260  -33.0170 C   0  0  0  0  0  0  0  0  0  0  0  0
  -20.7800   -3.5440  -30.4870 Cl  0  0  0  0  0  0  0  0  0  0  0  0
  -22.1690   -4.3130  -33.1870 Cl  0  0  0  0  0  0  0  0  0  0  0  0
  -21.4880   -1.8070  -34.0610 C   0  0  0  0  0  3  0  0  0  0  0  0
  1 21  1  0  0  0  0
  2  1  1  0  0  0  0
  3  6  1  6  0  0  0
  3  4  1  0  0  0  0
  3  2  1  0  0  0  0
  4  5  1  0  0  0  0
  5  1  2  0  0  0  0
  6  7  1  0  0  0  0
  7  8  1  0  0  0  0
  8  2  1  0  0  0  0
  9  4  1  0  0  0  0
 10  9  2  0  0  0  0
 11 10  1  0  0  0  0
 12 13  1  0  0  0  0
 12 10  1  0  0  0  0
 14 18  1  0  0  0  0
 14 13  2  0  0  0  0
 15 14  1  0  0  0  0
 16 15  2  0  0  0  0
 16 17  1  0  0  0  0
 17 12  2  0  0  0  0
 18 20  2  0  0  0  0
 19 18  2  0  0  0  0
 21 22  1  0  0  0  0
 22 23  2  0  0  0  0
 24 23  1  0  0  0  0
 24 26  1  0  0  0  0
 25 24  2  0  0  0  0
 27 25  1  0  0  0  0
 28 21  2  0  0  0  0
 28 25  1  0  0  0  0
M  END
>  <Pose>
1

>  <Score>
-8.533

$$$$
