MODEL 1
REMARK VINA RESULT:    -9.773      0.000      0.000
REMARK INTER + INTRA:         -13.418
REMARK INTER:                 -12.629
REMARK INTRA:                  -0.789
REMARK UNBOUND:                -0.789
REMARK  5 active torsions:
REMARK  status: ('A' for Active; 'I' for Inactive)
REMARK    1  A    between atoms: C_6  and  C_8 
REMARK    2  A    between atoms: N_11  and  C_13 
REMARK    3  A    between atoms: C_13  and  C_14 
REMARK    4  A    between atoms: C_14  and  C_16 
REMARK    5  A    between atoms: C_18  and  N_22 
ROOT
ATOM      1  C   UNK d   1     -20.259  -1.286 -30.451  0.00  0.00     0.061 A 
ATOM      2  N   UNK d   1     -20.804  -2.398 -30.969  0.00  0.00    -0.335 N 
ATOM      3  C   UNK d   1     -21.116  -2.186 -32.265  0.00  0.00     0.086 A 
ATOM      4  N   UNK d   1     -20.763  -0.926 -32.575  0.00  0.00    -0.338 N 
ATOM      5  C   UNK d   1     -20.225  -0.327 -31.476  0.00  0.00     0.123 A 
ATOM      6  C   UNK d   1     -21.730  -3.403 -32.845  0.00  0.00     0.078 C 
ATOM      7  C   UNK d   1     -21.052  -4.454 -32.003  0.00  0.00     0.028 C 
ATOM      8  C   UNK d   1     -21.172  -3.777 -30.627  0.00  0.00     0.131 C 
ENDROOT
BRANCH   4   9
ATOM      9  C   UNK d   1     -20.955  -0.291 -33.827  0.00  0.00     0.198 C 
BRANCH   9  10
ATOM     10  C   UNK d   1     -22.247   0.044 -34.355  0.00  0.00     0.113 C 
ATOM     11  O   UNK d   1     -22.926   0.817 -33.532  0.00  0.00    -0.194 OA
BRANCH  10  12
ATOM     12  C   UNK d   1     -22.925  -0.298 -35.583  0.00  0.00     0.000 A 
ATOM     13  C   UNK d   1     -23.529   0.597 -36.423  0.00  0.00     0.050 A 
ATOM     14  C   UNK d   1     -24.168   0.192 -37.599  0.00  0.00     0.103 A 
ATOM     15  C   UNK d   1     -24.203  -1.122 -37.939  0.00  0.00     0.036 A 
ATOM     16  C   UNK d   1     -23.602  -2.045 -37.110  0.00  0.00     0.003 A 
ATOM     17  C   UNK d   1     -22.974  -1.660 -35.957  0.00  0.00     0.014 A 
BRANCH  14  18
ATOM     18  N   UNK d   1     -24.779   1.177 -38.434  0.00  0.00    -0.116 N 
ATOM     19  O   UNK d   1     -26.013   1.325 -38.402  0.00  0.00    -0.532 OA
ATOM     20  O   UNK d   1     -24.052   1.964 -39.269  0.00  0.00    -0.532 OA
ENDBRANCH  14  18
ENDBRANCH  10  12
ENDBRANCH   9  10
ENDBRANCH   4   9
BRANCH   1  21
ATOM     21  C   UNK d   1     -19.759  -1.008 -29.104  0.00  0.00    -0.006 A 
ATOM     22  C   UNK d   1     -19.417   0.297 -28.733  0.00  0.00     0.015 A 
ATOM     23  C   UNK d   1     -18.962   0.616 -27.482  0.00  0.00     0.026 A 
ATOM     24  C   UNK d   1     -18.821  -0.355 -26.519  0.00  0.00     0.055 A 
ATOM     25  C   UNK d   1     -19.148  -1.643 -26.848  0.00  0.00     0.056 A 
ATOM     26 Cl   UNK d   1     -18.239   0.064 -24.923  0.00  0.00    -0.083 Cl
ATOM     27 Cl   UNK d   1     -18.996  -2.921 -25.684  0.00  0.00    -0.083 Cl
ATOM     28  C   UNK d   1     -19.614  -1.951 -28.141  0.00  0.00     0.039 A 
ENDBRANCH   1  21
TORSDOF 5
ENDMDL
