MODEL 1
REMARK VINA RESULT:    -9.249      0.000      0.000
REMARK INTER + INTRA:         -11.546
REMARK INTER:                 -10.872
REMARK INTRA:                  -0.674
REMARK UNBOUND:                -0.674
REMARK  3 active torsions:
REMARK  status: ('A' for Active; 'I' for Inactive)
REMARK    1  A    between atoms: S_1  and  N_4 
REMARK    2  A    between atoms: S_1  and  C_19 
REMARK    3  A    between atoms: C_7  and  C_10 
REMARK       I    between atoms: C_10  and  N_12 
ROOT
ATOM      1  S   UNK d   1     -20.734  -0.727 -33.199  0.00  0.00     0.262 S 
ATOM      2  O   UNK d   1     -19.860   0.524 -33.065  0.00  0.00    -0.200 OA
ATOM      3  O   UNK d   1     -20.031  -1.526 -34.299  0.00  0.00    -0.200 OA
ENDROOT
BRANCH   1   4
ATOM      4  N   UNK d   1     -22.233  -0.261 -33.718  0.00  0.00    -0.307 N 
ATOM      5  C   UNK d   1     -23.263  -1.139 -34.038  0.00  0.00     0.136 C 
ATOM      6  C   UNK d   1     -23.368  -1.560 -35.468  0.00  0.00     0.034 C 
ATOM      7  C   UNK d   1     -22.680  -0.516 -36.346  0.00  0.00     0.081 C 
ATOM      8  C   UNK d   1     -23.118   0.820 -35.725  0.00  0.00     0.034 C 
ATOM      9  C   UNK d   1     -22.255   0.980 -34.483  0.00  0.00     0.136 C 
BRANCH   7  10
ATOM     10  C   UNK d   1     -23.074  -0.622 -37.740  0.00  0.00     0.224 C 
ATOM     11  O   UNK d   1     -24.225  -1.040 -38.031  0.00  0.00    -0.273 OA
ATOM     12  N   UNK d   1     -22.204  -0.268 -38.776  0.00  0.00    -0.348 N 
ATOM     13  C   UNK d   1     -22.583  -0.325 -40.193  0.00  0.00     0.156 C 
ATOM     14  C   UNK d   1     -20.859   0.159 -38.507  0.00  0.00     0.156 C 
ATOM     15  C   UNK d   1     -21.317  -0.069 -40.983  0.00  0.00     0.291 C 
ATOM     16  N   UNK d   1     -20.803   1.256 -40.697  0.00  0.00     0.087 N 
ATOM     17  C   UNK d   1     -20.499   1.412 -39.285  0.00  0.00     0.291 C 
ATOM     18  C   UNK d   1     -19.640   1.549 -41.507  0.00  0.00     0.310 C 
ENDBRANCH   7  10
ENDBRANCH   1   4
BRANCH   1  19
ATOM     19  C   UNK d   1     -20.594  -1.556 -31.676  0.00  0.00     0.104 A 
ATOM     20  C   UNK d   1     -20.093  -0.862 -30.561  0.00  0.00     0.066 A 
ATOM     21  C   UNK d   1     -19.907  -1.461 -29.343  0.00  0.00     0.097 A 
ATOM     22  C   UNK d   1     -20.214  -2.777 -29.185  0.00  0.00     0.070 A 
ATOM     23  O   UNK d   1     -19.405  -0.736 -28.254  0.00  0.00    -0.340 OA
ATOM     24  C   UNK d   1     -20.708  -3.506 -30.237  0.00  0.00     0.058 A 
ATOM     25  N   UNK d   1     -20.007  -3.390 -27.900  0.00  0.00    -0.323 N 
ATOM     26  C   UNK d   1     -20.890  -2.872 -31.468  0.00  0.00     0.059 A 
ATOM     27 Cl   UNK d   1     -21.598  -3.831 -32.757  0.00  0.00    -0.083 Cl
ATOM     28  C   UNK d   1     -19.491  -2.614 -26.832  0.00  0.00     0.246 C 
ATOM     29  H   UNK d   1     -20.240  -4.394 -27.771  0.00  0.00     0.169 HD
ATOM     30  O   UNK d   1     -19.640  -2.957 -25.641  0.00  0.00    -0.271 OA
ATOM     31  C   UNK d   1     -18.759  -1.369 -27.181  0.00  0.00     0.278 C 
ENDBRANCH   1  19
TORSDOF 3
ENDMDL
