MODEL 1
REMARK VINA RESULT:    -8.739      0.000      0.000
REMARK INTER + INTRA:         -11.830
REMARK INTER:                 -11.804
REMARK INTRA:                  -0.026
REMARK UNBOUND:                -0.026
REMARK  6 active torsions:
REMARK  status: ('A' for Active; 'I' for Inactive)
REMARK    1  A    between atoms: C_5  and  C_8 
REMARK    2  A    between atoms: N_9  and  C_26 
REMARK    3  A    between atoms: C_15  and  C_17 
REMARK    4  A    between atoms: C_20  and  O_23 
REMARK    5  A    between atoms: C_26  and  C_27 
REMARK    6  A    between atoms: C_27  and  N_28 
ROOT
ATOM      1  C   UNK d   1     -21.304  -1.045 -34.594  0.00  0.00     0.161 C 
ATOM      2  N   UNK d   1     -22.654  -0.468 -34.553  0.00  0.00    -0.331 N 
ATOM      3  C   UNK d   1     -22.633   0.437 -33.458  0.00  0.00     0.295 C 
ATOM      4  O   UNK d   1     -23.329   1.456 -33.321  0.00  0.00    -0.264 OA
ATOM      5  C   UNK d   1     -21.629  -0.071 -32.529  0.00  0.00     0.250 C 
ATOM      6  O   UNK d   1     -21.240   0.382 -31.411  0.00  0.00    -0.282 OA
ATOM      7  C   UNK d   1     -21.088  -1.294 -33.139  0.00  0.00     0.062 C 
ATOM      8  C   UNK d   1     -20.534  -2.311 -32.509  0.00  0.00     0.130 C 
ATOM      9  O   UNK d   1     -20.037  -3.372 -33.270  0.00  0.00    -0.190 OA
ENDROOT
BRANCH   1  10
ATOM     10  C   UNK d   1     -20.416   0.038 -35.084  0.00  0.00    -0.030 A 
ATOM     11  C   UNK d   1     -20.716   0.763 -36.217  0.00  0.00     0.011 A 
ATOM     12  C   UNK d   1     -19.908   1.773 -36.693  0.00  0.00     0.024 A 
ATOM     13  C   UNK d   1     -18.739   2.106 -36.035  0.00  0.00     0.034 A 
ATOM     14 Cl   UNK d   1     -17.693   3.395 -36.627  0.00  0.00    -0.084 Cl
ATOM     15  C   UNK d   1     -18.420   1.397 -34.903  0.00  0.00     0.024 A 
ATOM     16  C   UNK d   1     -19.228   0.389 -34.430  0.00  0.00     0.011 A 
ENDBRANCH   1  10
BRANCH   8  17
ATOM     17  C   UNK d   1     -20.421  -2.379 -31.059  0.00  0.00     0.002 A 
ATOM     18  C   UNK d   1     -19.569  -1.552 -30.345  0.00  0.00     0.024 A 
ATOM     19  C   UNK d   1     -19.446  -1.639 -28.974  0.00  0.00    -0.028 A 
ATOM     20  C   UNK d   1     -20.181  -2.569 -28.253  0.00  0.00     0.074 A 
ATOM     21  C   UNK d   1     -18.522  -0.735 -28.253  0.00  0.00     0.051 C 
ATOM     22  C   UNK d   1     -21.031  -3.396 -28.950  0.00  0.00     0.038 A 
ATOM     23  C   UNK d   1     -21.148  -3.299 -30.340  0.00  0.00     0.017 A 
BRANCH  20  24
ATOM     24  O   UNK d   1     -20.069  -2.667 -26.868  0.00  0.00    -0.355 OA
ATOM     25  C   UNK d   1     -19.422  -3.779 -26.316  0.00  0.00     0.210 C 
ENDBRANCH  20  24
ENDBRANCH   8  17
BRANCH   2  26
ATOM     26  C   UNK d   1     -23.769  -0.766 -35.452  0.00  0.00     0.155 C 
BRANCH  26  27
ATOM     27  C   UNK d   1     -23.200  -1.591 -36.584  0.00  0.00     0.255 C 
BRANCH  27  28
ATOM     28  N   UNK d   1     -23.935  -1.429 -37.809  0.00  0.00    -0.066 N 
ATOM     29  C   UNK d   1     -24.396  -2.688 -38.298  0.00  0.00     0.261 C 
ATOM     30  C   UNK d   1     -23.545  -3.339 -39.337  0.00  0.00     0.195 C 
ATOM     31  O   UNK d   1     -22.884  -2.482 -40.174  0.00  0.00    -0.388 OA
ATOM     32  C   UNK d   1     -22.145  -1.518 -39.501  0.00  0.00     0.195 C 
ATOM     33  C   UNK d   1     -23.129  -0.678 -38.729  0.00  0.00     0.261 C 
ATOM     34  H   UNK d   1     -24.790  -0.858 -37.552  0.00  0.00     0.280 HD
ENDBRANCH  27  28
ENDBRANCH  26  27
ENDBRANCH   2  26
TORSDOF 6
ENDMDL
