MODEL 1
REMARK VINA RESULT:    -8.983      0.000      0.000
REMARK INTER + INTRA:          -9.721
REMARK INTER:                  -9.508
REMARK INTRA:                  -0.213
REMARK UNBOUND:                -0.213
REMARK  1 active torsions:
REMARK  status: ('A' for Active; 'I' for Inactive)
REMARK       I    between atoms: N_10  and  C_13 
REMARK    1  A    between atoms: C_13  and  C_15 
ROOT
ATOM      1 Cl   UNK d   1     -19.193  -2.284 -25.187  0.00  0.00    -0.083 Cl
ATOM      2  C   UNK d   1     -19.221  -1.624 -26.816  0.00  0.00     0.050 A 
ATOM      3  C   UNK d   1     -19.570  -2.386 -27.910  0.00  0.00     0.125 A 
ATOM      4  N   UNK d   1     -19.590  -1.871 -29.174  0.00  0.00    -0.271 N 
ATOM      5  C   UNK d   1     -19.268  -0.586 -29.414  0.00  0.00     0.137 A 
ATOM      6  N   UNK d   1     -19.287  -0.073 -30.669  0.00  0.00    -0.234 NA
ATOM      7  C   UNK d   1     -19.631  -0.825 -31.736  0.00  0.00     0.051 A 
ATOM      8  C   UNK d   1     -19.964  -2.132 -31.530  0.00  0.00     0.053 A 
ATOM      9  C   UNK d   1     -20.353  -3.012 -32.678  0.00  0.00     0.172 C 
ATOM     10  N   UNK d   1     -20.917  -2.093 -33.683  0.00  0.00    -0.342 N 
ATOM     11  C   UNK d   1     -19.984  -1.115 -34.165  0.00  0.00     0.132 C 
ATOM     12  C   UNK d   1     -19.613  -0.144 -33.058  0.00  0.00     0.080 C 
ATOM     13  C   UNK d   1     -22.250  -2.265 -34.044  0.00  0.00     0.274 C 
ATOM     14  O   UNK d   1     -22.915  -3.211 -33.495  0.00  0.00    -0.266 OA
ATOM     15  C   UNK d   1     -19.934  -2.626 -30.233  0.00  0.00     0.263 A 
ATOM     16  O   UNK d   1     -20.236  -3.819 -30.034  0.00  0.00    -0.267 OA
ATOM     17  C   UNK d   1     -18.915   0.187 -28.318  0.00  0.00     0.053 A 
ATOM     18  C   UNK d   1     -18.886  -0.305 -27.031  0.00  0.00     0.029 A 
ENDROOT
BRANCH  13  19
ATOM     19  C   UNK d   1     -22.988  -1.451 -35.016  0.00  0.00     0.141 A 
ATOM     20  N   UNK d   1     -23.286  -1.892 -36.241  0.00  0.00    -0.253 NA
ATOM     21  C   UNK d   1     -23.959  -1.144 -37.120  0.00  0.00     0.136 A 
ATOM     22  C   UNK d   1     -24.385   0.132 -36.812  0.00  0.00     0.135 A 
ATOM     23  N   UNK d   1     -24.077   0.560 -35.575  0.00  0.00    -0.269 NA
ATOM     24  C   UNK d   1     -23.407  -0.167 -34.680  0.00  0.00     0.153 A 
ENDBRANCH  13  19
TORSDOF 1
ENDMDL
