/Users/jonathanwahrer/Desktop/Msc/3_Semester/Drug_Design_Praktikum/waehrer_HTS_screening/HTS_experiment/out/docking_results/vina_output/5l4q/1553_docked.pdbqt
 OpenBabel03212218533D

 29 32  0  0  1  0  0  0  0  0999 V2000
  -20.3740   -1.5270  -33.5300 C   0  0  1  0  0  3  0  0  0  0  0  0
  -21.6760   -1.7910  -34.0130 N   0  0  0  0  0  4  0  0  0  0  0  0
  -22.2710   -0.7930  -34.8550 C   0  0  2  0  0  3  0  0  0  0  0  0
  -22.2360    0.5610  -34.1260 C   0  0  0  0  0  2  0  0  0  0  0  0
  -20.7960    0.8560  -34.0010 C   0  0  0  0  0  0  0  0  0  0  0  0
  -20.0860    2.0390  -34.1290 C   0  0  0  0  0  0  0  0  0  0  0  0
  -18.7620    1.7250  -33.9170 C   0  0  0  0  0  0  0  0  0  0  0  0
  -18.6480    0.4110  -33.6690 N   0  0  0  0  0  0  0  0  0  0  0  0
  -19.9070   -0.1340  -33.7200 C   0  0  0  0  0  0  0  0  0  0  0  0
  -17.8360    2.7490  -33.9940 C   0  0  0  0  0  3  0  0  0  0  0  0
  -18.2720    4.0200  -34.2730 C   0  0  0  0  0  3  0  0  0  0  0  0
  -19.5960    4.3320  -34.4850 C   0  0  0  0  0  3  0  0  0  0  0  0
  -20.5400    3.3100  -34.4110 C   0  0  0  0  0  3  0  0  0  0  0  0
  -21.6300   -2.6920  -34.5880 H   0  0  0  0  0  0  0  0  0  0  0  0
  -22.3810   -2.0030  -33.2630 H   0  0  0  0  0  0  0  0  0  0  0  0
  -17.7820   -0.1530  -33.4660 H   0  0  0  0  0  0  0  0  0  0  0  0
  -20.3340   -1.7960  -32.0460 C   0  0  0  0  0  0  0  0  0  0  0  0
  -20.4020   -3.0790  -31.5340 C   0  0  0  0  0  0  0  0  0  0  0  0
  -20.3550   -3.3010  -30.1540 C   0  0  0  0  0  0  0  0  0  0  0  0
  -20.4540   -5.0820  -29.4640 Br  0  0  0  0  0  0  0  0  0  0  0  0
  -20.2420   -2.2590  -29.2750 C   0  0  0  0  0  3  0  0  0  0  0  0
  -20.1740   -0.9810  -29.7810 C   0  0  0  0  0  0  0  0  0  0  0  0
  -20.2190   -0.7520  -31.1500 C   0  0  0  0  0  3  0  0  0  0  0  0
  -20.0160    0.5130  -28.5770 Br  0  0  0  0  0  0  0  0  0  0  0  0
  -20.5170   -4.1940  -32.3220 O   0  0  0  0  0  0  0  0  0  0  0  0
  -20.4800   -4.2290  -33.3040 H   0  0  0  0  0  0  0  0  0  0  0  0
  -23.6590   -1.1770  -35.1830 C   0  0  0  0  0  0  0  0  0  0  0  0
  -24.5770   -0.8990  -34.3690 O   0  0  0  0  0  1  0  0  0  0  0  0
  -23.9220   -1.8340  -36.3740 O   0  0  0  0  0  0  0  0  0  0  0  0
  1 17  1  1  0  0  0
  2  1  1  0  0  0  0
  2 15  1  0  0  0  0
  3 27  1  1  0  0  0
  3  4  1  0  0  0  0
  3  2  1  0  0  0  0
  4  5  1  0  0  0  0
  5  9  2  0  0  0  0
  6  5  1  0  0  0  0
  6  7  1  0  0  0  0
  7  8  1  0  0  0  0
  8 16  1  0  0  0  0
  9  8  1  0  0  0  0
  9  1  1  0  0  0  0
 10  7  2  0  0  0  0
 11 10  1  0  0  0  0
 12 13  1  0  0  0  0
 12 11  2  0  0  0  0
 13  6  2  0  0  0  0
 14  2  1  0  0  0  0
 17 18  2  0  0  0  0
 17 23  1  0  0  0  0
 18 19  1  0  0  0  0
 19 20  1  0  0  0  0
 19 21  2  0  0  0  0
 22 21  1  0  0  0  0
 22 24  1  0  0  0  0
 23 22  2  0  0  0  0
 25 18  1  0  0  0  0
 26 25  1  0  0  0  0
 27 28  1  0  0  0  0
 29 27  2  0  0  0  0
M  END
>  <Pose>
1

>  <Score>
-8.093

$$$$
