MODEL 1
REMARK VINA RESULT:    -8.093      0.000      0.000
REMARK INTER + INTRA:          -9.840
REMARK INTER:                  -9.276
REMARK INTRA:                  -0.563
REMARK UNBOUND:                -0.563
REMARK  3 active torsions:
REMARK  status: ('A' for Active; 'I' for Inactive)
REMARK    1  A    between atoms: C_3  and  O_25 
REMARK    2  A    between atoms: C_4  and  C_9 
REMARK    3  A    between atoms: C_11  and  C_22 
ROOT
ATOM      1  C   UNK d   1     -20.374  -1.527 -33.530  0.00  0.00     0.272 C 
ATOM      2  N   UNK d   1     -21.676  -1.791 -34.013  0.00  0.00    -0.047 N 
ATOM      3  C   UNK d   1     -22.271  -0.793 -34.855  0.00  0.00     0.291 C 
ATOM      4  C   UNK d   1     -22.236   0.561 -34.126  0.00  0.00     0.086 C 
ATOM      5  C   UNK d   1     -20.796   0.856 -34.001  0.00  0.00    -0.018 A 
ATOM      6  C   UNK d   1     -20.086   2.039 -34.129  0.00  0.00    -0.001 A 
ATOM      7  C   UNK d   1     -18.762   1.725 -33.917  0.00  0.00     0.043 A 
ATOM      8  N   UNK d   1     -18.648   0.411 -33.669  0.00  0.00    -0.356 N 
ATOM      9  C   UNK d   1     -19.907  -0.134 -33.720  0.00  0.00     0.052 A 
ATOM     10  C   UNK d   1     -17.836   2.749 -33.994  0.00  0.00     0.030 A 
ATOM     11  C   UNK d   1     -18.272   4.020 -34.273  0.00  0.00     0.002 A 
ATOM     12  C   UNK d   1     -19.596   4.332 -34.485  0.00  0.00     0.001 A 
ATOM     13  C   UNK d   1     -20.540   3.310 -34.411  0.00  0.00     0.014 A 
ATOM     14  H   UNK d   1     -21.630  -2.692 -34.588  0.00  0.00     0.279 HD
ATOM     15  H   UNK d   1     -22.381  -2.003 -33.263  0.00  0.00     0.279 HD
ATOM     16  H   UNK d   1     -17.782  -0.153 -33.466  0.00  0.00     0.166 HD
ENDROOT
BRANCH   1  17
ATOM     17  C   UNK d   1     -20.334  -1.796 -32.046  0.00  0.00     0.014 A 
ATOM     18  C   UNK d   1     -20.402  -3.079 -31.534  0.00  0.00     0.091 A 
ATOM     19  C   UNK d   1     -20.355  -3.301 -30.154  0.00  0.00     0.046 A 
ATOM     20 Br   UNK d   1     -20.454  -5.082 -29.464  0.00  0.00    -0.048 Br
ATOM     21  C   UNK d   1     -20.242  -2.259 -29.275  0.00  0.00     0.041 A 
ATOM     22  C   UNK d   1     -20.174  -0.981 -29.781  0.00  0.00     0.013 A 
ATOM     23  C   UNK d   1     -20.219  -0.752 -31.150  0.00  0.00     0.031 A 
ATOM     24 Br   UNK d   1     -20.016   0.513 -28.577  0.00  0.00    -0.051 Br
BRANCH  18  25
ATOM     25  O   UNK d   1     -20.517  -4.194 -32.322  0.00  0.00    -0.359 OA
ATOM     26  H   UNK d   1     -20.480  -4.229 -33.304  0.00  0.00     0.217 HD
ENDBRANCH  18  25
ENDBRANCH   1  17
BRANCH   3  27
ATOM     27  C   UNK d   1     -23.659  -1.177 -35.183  0.00  0.00     0.205 C 
ATOM     28  O   UNK d   1     -24.577  -0.899 -34.369  0.00  0.00    -0.646 OA
ATOM     29  O   UNK d   1     -23.922  -1.834 -36.374  0.00  0.00    -0.646 OA
ENDBRANCH   3  27
TORSDOF 3
ENDMDL
