/Users/jonathanwahrer/Desktop/Msc/3_Semester/Drug_Design_Praktikum/waehrer_HTS_screening/HTS_experiment/out/docking_results/vina_output/5l4q/1571_docked.pdbqt
 OpenBabel03212218533D

 28 31  0  0  1  0  0  0  0  0999 V2000
  -22.7950   -2.5230  -33.6080 O   0  0  0  0  0  0  0  0  0  0  0  0
  -21.5160   -3.0600  -33.4170 C   0  0  0  0  0  2  0  0  0  0  0  0
  -20.9180   -2.6700  -32.1180 C   0  0  0  0  0  0  0  0  0  0  0  0
  -21.0370   -3.4120  -31.0000 N   0  0  0  0  0  0  0  0  0  0  0  0
  -20.4870   -3.0380  -29.8420 C   0  0  0  0  0  0  0  0  0  0  0  0
  -19.7710   -1.8940  -29.6960 N   0  0  0  0  0  0  0  0  0  0  0  0
  -20.6560   -3.8600  -28.7300 C   0  0  0  0  0  3  0  0  0  0  0  0
  -19.2380   -1.5630  -28.5120 C   0  0  0  0  0  3  0  0  0  0  0  0
  -19.6320   -1.1230  -30.8050 C   0  0  0  0  0  0  0  0  0  0  0  0
  -19.3840   -2.3480  -27.3930 C   0  0  0  0  0  0  0  0  0  0  0  0
  -18.5990   -1.8330  -25.7100 Br  0  0  0  0  0  0  0  0  0  0  0  0
  -20.1030   -3.5090  -27.5170 C   0  0  0  0  0  3  0  0  0  0  0  0
  -20.1960   -1.4990  -32.0080 C   0  0  0  0  0  3  0  0  0  0  0  0
  -18.9650   -0.0610  -30.6620 O   0  0  0  0  0  0  0  0  0  0  0  0
  -23.1000   -1.4480  -34.4120 C   0  0  0  0  0  0  0  0  0  0  0  0
  -24.2040   -0.8800  -34.1790 O   0  0  0  0  0  0  0  0  0  0  0  0
  -22.1970   -0.9700  -35.4940 C   0  0  0  0  0  2  0  0  0  0  0  0
  -22.9490   -0.6020  -36.6950 N   0  0  0  0  0  0  0  0  0  0  0  0
  -23.2140    0.7120  -37.1800 C   0  0  0  0  0  0  0  0  0  0  0  0
  -22.6970    1.7780  -36.7600 O   0  0  0  0  0  0  0  0  0  0  0  0
  -24.2080    0.6000  -38.2720 C   0  0  2  0  0  3  0  0  0  0  0  0
  -23.8450   -0.7540  -38.8350 C   0  0  1  0  0  3  0  0  0  0  0  0
  -24.1870    1.7070  -39.2450 C   0  0  0  0  0  2  0  0  0  0  0  0
  -22.5890   -0.7230  -39.6820 C   0  0  0  0  0  2  0  0  0  0  0  0
  -23.5620   -1.5100  -37.5930 C   0  0  0  0  0  0  0  0  0  0  0  0
  -22.0780    0.6720  -39.9300 C   0  0  0  0  0  2  0  0  0  0  0  0
  -23.1920    1.5910  -40.3440 C   0  0  0  0  0  2  0  0  0  0  0  0
  -23.8110   -2.7330  -37.3540 O   0  0  0  0  0  0  0  0  0  0  0  0
  1  2  1  0  0  0  0
  2  3  1  0  0  0  0
  3 13  2  0  0  0  0
  3  4  1  0  0  0  0
  4  5  2  0  0  0  0
  5  6  1  0  0  0  0
  5  7  1  0  0  0  0
  6  8  1  0  0  0  0
  7 12  2  0  0  0  0
  8 10  2  0  0  0  0
  9 14  2  0  0  0  0
  9  6  1  0  0  0  0
 10 11  1  0  0  0  0
 12 10  1  0  0  0  0
 13  9  1  0  0  0  0
 15 16  2  0  0  0  0
 15  1  1  0  0  0  0
 17 15  1  0  0  0  0
 18 17  1  0  0  0  0
 19 20  2  0  0  0  0
 19 18  1  0  0  0  0
 21 23  1  6  0  0  0
 21 19  1  0  0  0  0
 22 24  1  6  0  0  0
 22 21  1  0  0  0  0
 22 25  1  0  0  0  0
 25 28  2  0  0  0  0
 25 18  1  0  0  0  0
 26 24  1  0  0  0  0
 27 26  1  0  0  0  0
 27 23  1  0  0  0  0
M  END
>  <Pose>
1

>  <Score>
-9.242

$$$$
