MODEL 1
REMARK VINA RESULT:    -8.954      0.000      0.000
REMARK INTER + INTRA:         -11.648
REMARK INTER:                 -11.047
REMARK INTRA:                  -0.601
REMARK UNBOUND:                -0.601
REMARK  4 active torsions:
REMARK  status: ('A' for Active; 'I' for Inactive)
REMARK    1  A    between atoms: C_3  and  N_8 
REMARK       I    between atoms: N_11  and  C_14 
REMARK    2  A    between atoms: C_14  and  C_16 
REMARK    3  A    between atoms: C_16  and  N_17 
REMARK    4  A    between atoms: C_19  and  C_23 
REMARK       I    between atoms: C_23  and  N_25 
ROOT
ATOM      1  N   UNK d   1     -19.143  -0.963 -29.600  0.00  0.00    -0.376 N 
ATOM      2  C   UNK d   1     -18.192  -1.143 -30.676  0.00  0.00     0.143 C 
ATOM      3  C   UNK d   1     -18.739  -0.456 -31.925  0.00  0.00     0.145 C 
ATOM      4  N   UNK d   1     -20.168  -0.705 -32.025  0.00  0.00    -0.348 N 
ATOM      5  C   UNK d   1     -21.015  -0.308 -30.925  0.00  0.00     0.145 C 
ATOM      6  C   UNK d   1     -20.126   0.117 -29.781  0.00  0.00     0.143 C 
ATOM      7  C   UNK d   1     -20.740  -1.323 -33.172  0.00  0.00     0.239 C 
ATOM      8  O   UNK d   1     -19.967  -1.654 -34.123  0.00  0.00    -0.271 OA
ENDROOT
BRANCH   7   9
ATOM      9  C   UNK d   1     -22.173  -1.601 -33.327  0.00  0.00     0.254 C 
BRANCH   9  10
ATOM     10  N   UNK d   1     -22.727  -1.113 -34.589  0.00  0.00    -0.265 N 
ATOM     11  N   UNK d   1     -22.637  -1.631 -35.797  0.00  0.00    -0.167 NA
ATOM     12  C   UNK d   1     -23.275  -0.909 -36.721  0.00  0.00     0.146 A 
ATOM     13  C   UNK d   1     -23.827   0.170 -36.054  0.00  0.00     0.065 A 
ATOM     14  C   UNK d   1     -23.472   0.018 -34.732  0.00  0.00     0.029 A 
ATOM     15  C   UNK d   1     -23.846   0.947 -33.646  0.00  0.00     0.070 C 
BRANCH  12  16
ATOM     16  C   UNK d   1     -23.373  -1.203 -38.162  0.00  0.00     0.274 C 
ATOM     17  O   UNK d   1     -23.983  -2.218 -38.554  0.00  0.00    -0.266 OA
ATOM     18  N   UNK d   1     -22.770  -0.319 -39.082  0.00  0.00    -0.343 N 
ATOM     19  C   UNK d   1     -22.053   0.867 -38.704  0.00  0.00     0.152 C 
ATOM     20  C   UNK d   1     -22.862  -0.600 -40.518  0.00  0.00     0.152 C 
ATOM     21  C   UNK d   1     -21.447   1.434 -39.994  0.00  0.00     0.187 C 
ATOM     22  O   UNK d   1     -20.716   0.477 -40.662  0.00  0.00    -0.388 OA
ATOM     23  C   UNK d   1     -21.452  -0.609 -41.072  0.00  0.00     0.187 C 
ENDBRANCH  12  16
ENDBRANCH   9  10
ENDBRANCH   7   9
BRANCH   1  24
ATOM     24  C   UNK d   1     -19.205  -1.718 -28.428  0.00  0.00     0.052 A 
ATOM     25  C   UNK d   1     -19.896  -2.904 -28.294  0.00  0.00     0.060 A 
ATOM     26 Cl   UNK d   1     -20.758  -3.522 -29.657  0.00  0.00    -0.082 Cl
ATOM     27  C   UNK d   1     -19.930  -3.622 -27.115  0.00  0.00     0.026 A 
ATOM     28  C   UNK d   1     -19.263  -3.162 -26.024  0.00  0.00     0.002 A 
ATOM     29  C   UNK d   1     -18.562  -1.988 -26.109  0.00  0.00     0.002 A 
ATOM     30  C   UNK d   1     -18.532  -1.275 -27.291  0.00  0.00     0.031 A 
ENDBRANCH   1  24
TORSDOF 4
ENDMDL
