MODEL 1
REMARK VINA RESULT:    -9.205      0.000      0.000
REMARK INTER + INTRA:         -11.927
REMARK INTER:                 -11.627
REMARK INTRA:                  -0.301
REMARK UNBOUND:                -0.301
REMARK  5 active torsions:
REMARK  status: ('A' for Active; 'I' for Inactive)
REMARK    1  A    between atoms: C_7  and  C_11 
REMARK    2  A    between atoms: C_11  and  N_12 
REMARK    3  A    between atoms: C_17  and  C_21 
REMARK    4  A    between atoms: C_21  and  O_22 
REMARK    5  A    between atoms: C_21  and  C_23 
ROOT
ATOM      1  N   UNK d   1     -20.387  -3.709 -30.189  0.00  0.00    -0.400 N 
ATOM      2  C   UNK d   1     -20.708  -4.956 -30.748  0.00  0.00     0.139 C 
ATOM      3  C   UNK d   1     -21.700  -4.935 -31.863  0.00  0.00     0.170 C 
ATOM      4  N   UNK d   1     -21.674  -3.678 -32.596  0.00  0.00    -0.270 N 
ATOM      5  N   UNK d   1     -22.396  -3.384 -33.677  0.00  0.00    -0.174 NA
ATOM      6  C   UNK d   1     -22.108  -2.141 -34.074  0.00  0.00     0.085 A 
ATOM      7  C   UNK d   1     -21.170  -1.648 -33.202  0.00  0.00     0.060 A 
ATOM      8  C   UNK d   1     -20.895  -2.640 -32.254  0.00  0.00     0.050 A 
ATOM      9  C   UNK d   1     -19.983  -2.686 -31.085  0.00  0.00     0.176 C 
ENDROOT
BRANCH   1  10
ATOM     10  C   UNK d   1     -21.038  -3.314 -29.010  0.00  0.00     0.177 C 
BRANCH  10  11
ATOM     11  C   UNK d   1     -20.298  -2.400 -28.128  0.00  0.00     0.059 A 
ATOM     12  N   UNK d   1     -20.108  -1.093 -28.381  0.00  0.00    -0.233 NA
ATOM     13  C   UNK d   1     -19.422  -0.286 -27.549  0.00  0.00     0.137 A 
ATOM     14  N   UNK d   1     -18.876  -0.726 -26.404  0.00  0.00    -0.272 N 
ATOM     15  C   UNK d   1     -19.297   1.054 -27.928  0.00  0.00     0.053 A 
ATOM     16  C   UNK d   1     -18.188   0.094 -25.571  0.00  0.00     0.125 A 
ATOM     17  C   UNK d   1     -19.035  -2.030 -26.098  0.00  0.00     0.255 A 
ATOM     18  C   UNK d   1     -18.060   1.414 -25.939  0.00  0.00     0.050 A 
ATOM     19 Cl   UNK d   1     -17.169   2.480 -24.862  0.00  0.00    -0.083 Cl
ATOM     20  C   UNK d   1     -18.605   1.909 -27.106  0.00  0.00     0.029 A 
ATOM     21  C   UNK d   1     -19.736  -2.854 -26.948  0.00  0.00     0.103 A 
ATOM     22  O   UNK d   1     -18.536  -2.490 -25.025  0.00  0.00    -0.268 OA
ENDBRANCH  10  11
ENDBRANCH   1  10
BRANCH   6  23
ATOM     23  C   UNK d   1     -22.701  -1.430 -35.249  0.00  0.00     0.171 C 
BRANCH  23  24
ATOM     24  O   UNK d   1     -22.978  -2.392 -36.235  0.00  0.00    -0.389 OA
ATOM     25  H   UNK d   1     -23.509  -3.148 -35.849  0.00  0.00     0.210 HD
ENDBRANCH  23  24
BRANCH  23  26
ATOM     26  C   UNK d   1     -24.051  -0.829 -34.867  0.00  0.00     0.034 C 
ATOM     27  C   UNK d   1     -23.835   0.628 -34.488  0.00  0.00     0.008 C 
ENDBRANCH  23  26
ENDBRANCH   6  23
TORSDOF 5
ENDMDL
