MODEL 1
REMARK VINA RESULT:    -9.680      0.000      0.000
REMARK INTER + INTRA:         -11.851
REMARK INTER:                 -11.378
REMARK INTRA:                  -0.473
REMARK UNBOUND:                -0.473
REMARK  3 active torsions:
REMARK  status: ('A' for Active; 'I' for Inactive)
REMARK    1  A    between atoms: C_5  and  C_8 
REMARK       I    between atoms: C_8  and  N_10 
REMARK    2  A    between atoms: C_18  and  C_22 
REMARK    3  A    between atoms: C_22  and  C_23 
ROOT
ATOM      1  C   UNK d   1     -19.508  -0.432 -32.066  0.00  0.00     0.187 C 
ATOM      2  O   UNK d   1     -18.248  -0.030 -32.022  0.00  0.00    -0.171 OA
ATOM      3  N   UNK d   1     -20.332   0.250 -32.977  0.00  0.00    -0.355 N 
ATOM      4  C   UNK d   1     -21.717  -0.002 -33.163  0.00  0.00     0.160 C 
ATOM      5  C   UNK d   1     -22.304   1.091 -34.071  0.00  0.00     0.197 C 
ATOM      6  N   UNK d   1     -21.550   1.020 -35.296  0.00  0.00    -0.334 N 
ATOM      7  C   UNK d   1     -20.146   1.252 -35.219  0.00  0.00     0.147 C 
ATOM      8  C   UNK d   1     -19.673   1.279 -33.780  0.00  0.00     0.145 C 
ATOM      9  C   UNK d   1     -22.181   0.732 -36.518  0.00  0.00     0.243 C 
ATOM     10  O   UNK d   1     -21.613   1.048 -37.579  0.00  0.00    -0.271 OA
ATOM     11  C   UNK d   1     -23.498   0.062 -36.501  0.00  0.00     0.182 C 
ATOM     12  N   UNK d   1     -24.302   0.752 -35.535  0.00  0.00    -0.346 N 
ATOM     13  C   UNK d   1     -23.749   0.962 -34.247  0.00  0.00     0.243 C 
ATOM     14  O   UNK d   1     -24.483   1.047 -33.214  0.00  0.00    -0.271 OA
ATOM     15  H   UNK d   1     -25.270   1.097 -35.748  0.00  0.00     0.163 HD
ENDROOT
BRANCH   1  16
ATOM     16  C   UNK d   1     -19.773  -1.507 -31.150  0.00  0.00     0.018 A 
ATOM     17  C   UNK d   1     -20.481  -2.658 -31.392  0.00  0.00     0.017 A 
ATOM     18  C   UNK d   1     -20.725  -3.644 -30.435  0.00  0.00     0.025 A 
ATOM     19  C   UNK d   1     -20.245  -3.488 -29.176  0.00  0.00     0.034 A 
ATOM     20 Cl   UNK d   1     -20.533  -4.715 -27.933  0.00  0.00    -0.084 Cl
ATOM     21  C   UNK d   1     -19.528  -2.361 -28.868  0.00  0.00     0.025 A 
ATOM     22  C   UNK d   1     -19.299  -1.400 -29.830  0.00  0.00     0.017 A 
ENDBRANCH   1  16
BRANCH  11  23
ATOM     23  C   UNK d   1     -24.115  -0.095 -37.837  0.00  0.00     0.095 C 
BRANCH  23  24
ATOM     24  C   UNK d   1     -23.893  -1.461 -38.340  0.00  0.00     0.053 A 
ATOM     25  N   UNK d   1     -24.585  -2.571 -38.072  0.00  0.00    -0.247 NA
ATOM     26  C   UNK d   1     -24.034  -3.619 -38.753  0.00  0.00     0.207 A 
ATOM     27  N   UNK d   1     -22.989  -3.172 -39.452  0.00  0.00    -0.359 N 
ATOM     28  C   UNK d   1     -22.883  -1.860 -39.217  0.00  0.00     0.116 A 
ATOM     29  H   UNK d   1     -22.378  -3.726 -40.058  0.00  0.00     0.166 HD
ENDBRANCH  23  24
ENDBRANCH  11  23
TORSDOF 3
ENDMDL
