MODEL 1
REMARK VINA RESULT:    -9.024      0.000      0.000
REMARK INTER + INTRA:         -10.889
REMARK INTER:                 -10.607
REMARK INTRA:                  -0.282
REMARK UNBOUND:                -0.282
REMARK  3 active torsions:
REMARK  status: ('A' for Active; 'I' for Inactive)
REMARK    1  A    between atoms: C_3  and  N_15 
REMARK    2  A    between atoms: N_6  and  C_9 
REMARK    3  A    between atoms: N_18  and  C_21 
ROOT
ATOM      1 Cl   UNK d   1     -17.794   1.096 -33.783  0.00  0.00    -0.076 Cl
ATOM      2  C   UNK d   1     -19.166   0.104 -33.345  0.00  0.00     0.131 A 
ATOM      3  C   UNK d   1     -20.214  -0.043 -34.210  0.00  0.00     0.077 A 
ATOM      4  C   UNK d   1     -21.260  -0.846 -33.748  0.00  0.00     0.170 A 
ATOM      5  N   UNK d   1     -21.205  -1.417 -32.535  0.00  0.00    -0.174 NA
ATOM      6  N   UNK d   1     -20.208  -1.289 -31.688  0.00  0.00    -0.197 N 
ATOM      7  C   UNK d   1     -19.182  -0.527 -32.089  0.00  0.00     0.292 A 
ATOM      8  O   UNK d   1     -18.181  -0.344 -31.351  0.00  0.00    -0.264 OA
ENDROOT
BRANCH   3   9
ATOM      9  N   UNK d   1     -20.253   0.545 -35.497  0.00  0.00    -0.375 N 
ATOM     10  C   UNK d   1     -21.208   1.577 -35.863  0.00  0.00     0.143 C 
ATOM     11  C   UNK d   1     -22.134   1.115 -36.959  0.00  0.00     0.146 C 
ATOM     12  N   UNK d   1     -21.330   0.371 -37.896  0.00  0.00    -0.341 N 
ATOM     13  C   UNK d   1     -19.914   0.633 -37.929  0.00  0.00     0.146 C 
ATOM     14  C   UNK d   1     -19.355   0.146 -36.575  0.00  0.00     0.143 C 
BRANCH  12  15
ATOM     15  C   UNK d   1     -21.909  -0.589 -38.761  0.00  0.00     0.270 A 
ATOM     16  N   UNK d   1     -21.700  -0.729 -40.101  0.00  0.00    -0.103 NA
ATOM     17  N   UNK d   1     -22.419  -1.738 -40.551  0.00  0.00    -0.126 NA
ATOM     18  C   UNK d   1     -23.086  -2.250 -39.525  0.00  0.00     0.167 A 
ATOM     19  O   UNK d   1     -22.767  -1.549 -38.469  0.00  0.00    -0.260 OA
ATOM     20  C   UNK d   1     -24.040  -3.406 -39.505  0.00  0.00     0.102 C 
ENDBRANCH  12  15
ENDBRANCH   3   9
BRANCH   6  21
ATOM     21  C   UNK d   1     -20.230  -1.930 -30.417  0.00  0.00     0.062 A 
ATOM     22  C   UNK d   1     -20.159  -1.232 -29.228  0.00  0.00     0.032 A 
ATOM     23  C   UNK d   1     -20.182  -1.864 -28.003  0.00  0.00     0.002 A 
ATOM     24  C   UNK d   1     -20.276  -3.239 -27.923  0.00  0.00     0.000 A 
ATOM     25  C   UNK d   1     -20.347  -3.942 -29.107  0.00  0.00     0.002 A 
ATOM     26  C   UNK d   1     -20.324  -3.304 -30.333  0.00  0.00     0.032 A 
ENDBRANCH   6  21
TORSDOF 3
ENDMDL
