MODEL 1
REMARK VINA RESULT:    -9.307      0.000      0.000
REMARK INTER + INTRA:         -11.365
REMARK INTER:                 -10.939
REMARK INTRA:                  -0.426
REMARK UNBOUND:                -0.426
REMARK  3 active torsions:
REMARK  status: ('A' for Active; 'I' for Inactive)
REMARK    1  A    between atoms: C_4  and  C_8 
REMARK       I    between atoms: C_8  and  N_10 
REMARK    2  A    between atoms: N_10  and  C_11 
REMARK    3  A    between atoms: C_11  and  C_12 
REMARK       I    between atoms: C_12  and  N_14 
ROOT
ATOM      1  C   UNK d   1     -20.596  -1.404 -33.479  0.00  0.00     0.237 C 
ATOM      2  O   UNK d   1     -20.302  -2.650 -33.550  0.00  0.00    -0.272 OA
ATOM      3  N   UNK d   1     -21.871  -0.934 -33.820  0.00  0.00    -0.351 N 
ATOM      4  C   UNK d   1     -22.232   0.447 -33.758  0.00  0.00     0.129 C 
ATOM      5  C   UNK d   1     -23.172   0.851 -34.857  0.00  0.00     0.068 C 
ATOM      6  C   UNK d   1     -23.159  -0.053 -36.070  0.00  0.00     0.204 C 
ATOM      7  N   UNK d   1     -24.330   0.366 -36.828  0.00  0.00     0.099 N 
ATOM      8  C   UNK d   1     -24.455  -0.171 -38.129  0.00  0.00     0.277 C 
ATOM      9  C   UNK d   1     -23.246  -0.759 -38.758  0.00  0.00     0.091 C 
ATOM     10  C   UNK d   1     -21.990  -0.137 -38.234  0.00  0.00     0.062 A 
ATOM     11  N   UNK d   1     -20.835   0.166 -38.824  0.00  0.00    -0.246 NA
ATOM     12  C   UNK d   1     -20.062   0.711 -37.861  0.00  0.00     0.207 A 
ATOM     13  N   UNK d   1     -20.730   0.744 -36.687  0.00  0.00    -0.350 N 
ATOM     14  C   UNK d   1     -21.965   0.206 -36.906  0.00  0.00     0.074 A 
ATOM     15  C   UNK d   1     -23.245  -1.521 -35.739  0.00  0.00     0.068 C 
ATOM     16  C   UNK d   1     -22.918  -1.833 -34.290  0.00  0.00     0.129 C 
ATOM     17  H   UNK d   1     -25.144   0.089 -36.209  0.00  0.00     0.317 HD
ATOM     18  H   UNK d   1     -20.363   1.112 -35.794  0.00  0.00     0.166 HD
ENDROOT
BRANCH   1  19
ATOM     19  C   UNK d   1     -19.468  -0.522 -33.007  0.00  0.00     0.225 C 
BRANCH  19  20
ATOM     20  N   UNK d   1     -19.472  -0.384 -31.628  0.00  0.00    -0.348 N 
ATOM     21  C   UNK d   1     -19.477  -0.252 -30.312  0.00  0.00     0.252 C 
ATOM     22  O   UNK d   1     -19.246   0.796 -29.613  0.00  0.00    -0.268 OA
ATOM     23  H   UNK d   1     -19.137   0.950 -31.775  0.00  0.00     0.163 HD
BRANCH  21  24
ATOM     24  C   UNK d   1     -19.787  -1.466 -29.477  0.00  0.00     0.033 A 
ATOM     25  C   UNK d   1     -19.429  -1.536 -28.157  0.00  0.00     0.036 A 
ATOM     26  C   UNK d   1     -19.691  -2.672 -27.406  0.00  0.00     0.011 A 
ATOM     27 Br   UNK d   1     -19.186  -2.723 -25.589  0.00  0.00    -0.051 Br
ATOM     28  C   UNK d   1     -20.318  -3.719 -28.035  0.00  0.00     0.019 A 
ATOM     29  C   UNK d   1     -20.679  -3.644 -29.368  0.00  0.00     0.002 A 
ATOM     30  C   UNK d   1     -20.412  -2.494 -30.117  0.00  0.00     0.017 A 
ENDBRANCH  21  24
ENDBRANCH  19  20
ENDBRANCH   1  19
TORSDOF 3
ENDMDL
