MODEL 1
REMARK VINA RESULT:    -8.943      0.000      0.000
REMARK INTER + INTRA:         -11.777
REMARK INTER:                 -11.034
REMARK INTRA:                  -0.743
REMARK UNBOUND:                -0.743
REMARK  4 active torsions:
REMARK  status: ('A' for Active; 'I' for Inactive)
REMARK    1  A    between atoms: C_4  and  C_8 
REMARK    2  A    between atoms: C_8  and  C_9 
REMARK    3  A    between atoms: C_9  and  N_10 
REMARK       I    between atoms: N_17  and  C_19 
REMARK    4  A    between atoms: C_19  and  C_21 
ROOT
ATOM      1  N   UNK d   1     -21.559  -1.318 -33.783  0.00  0.00    -0.319 N 
ATOM      2  C   UNK d   1     -22.142  -0.203 -34.480  0.00  0.00     0.138 C 
ATOM      3  C   UNK d   1     -23.617  -0.545 -34.414  0.00  0.00     0.176 C 
ATOM      4  O   UNK d   1     -23.579  -1.933 -34.716  0.00  0.00    -0.295 OA
ATOM      5  C   UNK d   1     -22.462  -2.398 -33.993  0.00  0.00     0.363 C 
ATOM      6  O   UNK d   1     -22.333  -3.604 -33.612  0.00  0.00    -0.238 OA
ATOM      7  C   UNK d   1     -24.119   0.311 -35.520  0.00  0.00     0.161 C 
ATOM      8  N   UNK d   1     -23.196  -0.073 -36.613  0.00  0.00    -0.342 N 
ATOM      9  C   UNK d   1     -21.931  -0.333 -35.999  0.00  0.00     0.154 C 
ATOM     10  C   UNK d   1     -23.641  -0.124 -37.937  0.00  0.00     0.272 C 
ATOM     11  O   UNK d   1     -24.877   0.162 -38.214  0.00  0.00    -0.266 OA
ENDROOT
BRANCH   1  12
ATOM     12  C   UNK d   1     -20.339  -1.432 -33.018  0.00  0.00     0.133 C 
BRANCH  12  13
ATOM     13  C   UNK d   1     -20.281  -0.507 -31.833  0.00  0.00     0.058 C 
BRANCH  13  14
ATOM     14  C   UNK d   1     -20.203  -1.244 -30.550  0.00  0.00    -0.055 A 
ATOM     15  C   UNK d   1     -20.263  -2.638 -30.523  0.00  0.00     0.031 A 
ATOM     16  C   UNK d   1     -20.190  -3.334 -29.340  0.00  0.00     0.034 A 
ATOM     17 Cl   UNK d   1     -20.271  -5.098 -29.355  0.00  0.00    -0.084 Cl
ATOM     18  C   UNK d   1     -20.055  -2.697 -28.125  0.00  0.00     0.024 A 
ATOM     19  C   UNK d   1     -19.996  -1.319 -28.146  0.00  0.00     0.002 A 
ATOM     20  C   UNK d   1     -20.067  -0.610 -29.331  0.00  0.00     0.007 A 
ENDBRANCH  13  14
ENDBRANCH  12  13
ENDBRANCH   1  12
BRANCH  10  21
ATOM     21  C   UNK d   1     -22.844  -0.476 -39.098  0.00  0.00     0.121 A 
ATOM     22  N   UNK d   1     -22.073   0.359 -39.846  0.00  0.00    -0.340 N 
ATOM     23  C   UNK d   1     -21.500  -0.348 -40.817  0.00  0.00     0.209 A 
ATOM     24  C   UNK d   1     -21.919   1.770 -39.607  0.00  0.00     0.157 C 
ATOM     25  N   UNK d   1     -21.885  -1.621 -40.711  0.00  0.00    -0.253 NA
ATOM     26  C   UNK d   1     -22.718  -1.716 -39.650  0.00  0.00     0.153 A 
ENDBRANCH  10  21
TORSDOF 4
ENDMDL
