/Users/jonathanwahrer/Desktop/Msc/3_Semester/Drug_Design_Praktikum/waehrer_HTS_screening/HTS_experiment/out/docking_results/vina_output/5l4q/1609_docked.pdbqt
 OpenBabel03212218543D

 26 29  0  0  1  0  0  0  0  0999 V2000
  -21.5590   -1.3180  -33.7830 N   0  0  0  0  0  0  0  0  0  0  0  0
  -22.1420   -0.2030  -34.4800 C   0  0  2  0  0  3  0  0  0  0  0  0
  -23.6170   -0.5450  -34.4140 C   0  0  2  0  0  3  0  0  0  0  0  0
  -23.5790   -1.9330  -34.7160 O   0  0  0  0  0  0  0  0  0  0  0  0
  -22.4620   -2.3980  -33.9930 C   0  0  0  0  0  0  0  0  0  0  0  0
  -22.3330   -3.6040  -33.6120 O   0  0  0  0  0  0  0  0  0  0  0  0
  -24.1190    0.3110  -35.5200 C   0  0  0  0  0  2  0  0  0  0  0  0
  -23.1960   -0.0730  -36.6130 N   0  0  0  0  0  0  0  0  0  0  0  0
  -21.9310   -0.3330  -35.9990 C   0  0  0  0  0  2  0  0  0  0  0  0
  -23.6410   -0.1240  -37.9370 C   0  0  0  0  0  0  0  0  0  0  0  0
  -24.8770    0.1620  -38.2140 O   0  0  0  0  0  0  0  0  0  0  0  0
  -20.3390   -1.4320  -33.0180 C   0  0  0  0  0  2  0  0  0  0  0  0
  -20.2810   -0.5070  -31.8330 C   0  0  0  0  0  2  0  0  0  0  0  0
  -20.2030   -1.2440  -30.5500 C   0  0  0  0  0  0  0  0  0  0  0  0
  -20.2630   -2.6380  -30.5230 C   0  0  0  0  0  3  0  0  0  0  0  0
  -20.1900   -3.3340  -29.3400 C   0  0  0  0  0  0  0  0  0  0  0  0
  -20.2710   -5.0980  -29.3550 Cl  0  0  0  0  0  0  0  0  0  0  0  0
  -20.0550   -2.6970  -28.1250 C   0  0  0  0  0  3  0  0  0  0  0  0
  -19.9960   -1.3190  -28.1460 C   0  0  0  0  0  3  0  0  0  0  0  0
  -20.0670   -0.6100  -29.3310 C   0  0  0  0  0  3  0  0  0  0  0  0
  -22.8440   -0.4760  -39.0980 C   0  0  0  0  0  0  0  0  0  0  0  0
  -22.0730    0.3590  -39.8460 N   0  0  0  0  0  0  0  0  0  0  0  0
  -21.5000   -0.3480  -40.8170 C   0  0  0  0  0  3  0  0  0  0  0  0
  -21.9190    1.7700  -39.6070 C   0  0  0  0  0  1  0  0  0  0  0  0
  -21.8850   -1.6210  -40.7110 N   0  0  0  0  0  0  0  0  0  0  0  0
  -22.7180   -1.7160  -39.6500 C   0  0  0  0  0  3  0  0  0  0  0  0
  1 12  1  0  0  0  0
  2  9  1  6  0  0  0
  2  3  1  0  0  0  0
  2  1  1  0  0  0  0
  3  7  1  6  0  0  0
  4  3  1  0  0  0  0
  4  5  1  0  0  0  0
  5  1  1  0  0  0  0
  5  6  2  0  0  0  0
  8  9  1  0  0  0  0
  8  7  1  0  0  0  0
 10  8  1  0  0  0  0
 11 10  2  0  0  0  0
 12 13  1  0  0  0  0
 13 14  1  0  0  0  0
 14 15  2  0  0  0  0
 14 20  1  0  0  0  0
 15 16  1  0  0  0  0
 16 18  2  0  0  0  0
 17 16  1  0  0  0  0
 19 18  1  0  0  0  0
 20 19  2  0  0  0  0
 21 10  1  0  0  0  0
 22 24  1  0  0  0  0
 22 21  1  0  0  0  0
 23 25  2  0  0  0  0
 23 22  1  0  0  0  0
 25 26  1  0  0  0  0
 26 21  2  0  0  0  0
M  END
>  <Pose>
1

>  <Score>
-8.943

$$$$
