MODEL 1
REMARK VINA RESULT:    -8.727      0.000      0.000
REMARK INTER + INTRA:         -10.107
REMARK INTER:                  -9.748
REMARK INTRA:                  -0.360
REMARK UNBOUND:                -0.360
REMARK  2 active torsions:
REMARK  status: ('A' for Active; 'I' for Inactive)
REMARK    1  A    between atoms: C_3  and  C_13 
REMARK    2  A    between atoms: C_5  and  N_8 
REMARK       I    between atoms: C_13  and  N_15 
ROOT
ATOM      1  C   UNK d   1     -20.668  -2.936 -29.745  0.00  0.00     0.255 C 
ATOM      2  O   UNK d   1     -21.841  -3.389 -29.721  0.00  0.00    -0.267 OA
ATOM      3  N   UNK d   1     -19.952  -2.744 -30.958  0.00  0.00    -0.348 N 
ATOM      4  C   UNK d   1     -20.598  -3.083 -32.207  0.00  0.00     0.129 C 
ATOM      5  C   UNK d   1     -19.966  -2.215 -33.280  0.00  0.00     0.061 C 
ATOM      6  C   UNK d   1     -19.608  -0.841 -32.758  0.00  0.00     0.119 C 
ATOM      7  N   UNK d   1     -19.228  -0.038 -33.898  0.00  0.00    -0.324 N 
ATOM      8  C   UNK d   1     -20.402   0.537 -34.450  0.00  0.00     0.325 C 
ATOM      9  O   UNK d   1     -20.569   1.008 -35.618  0.00  0.00    -0.247 OA
ATOM     10  N   UNK d   1     -21.388   0.484 -33.414  0.00  0.00    -0.272 N 
ATOM     11  C   UNK d   1     -20.804  -0.117 -32.258  0.00  0.00     0.256 C 
ATOM     12  O   UNK d   1     -21.245  -0.027 -31.080  0.00  0.00    -0.270 OA
ATOM     13  C   UNK d   1     -22.775   0.952 -33.477  0.00  0.00     0.164 C 
ATOM     14  C   UNK d   1     -18.539  -0.893 -31.707  0.00  0.00     0.061 C 
ATOM     15  C   UNK d   1     -18.604  -2.227 -31.028  0.00  0.00     0.129 C 
ATOM     16  H   UNK d   1     -18.255   0.081 -34.236  0.00  0.00     0.165 HD
ENDROOT
BRANCH   1  17
ATOM     17  C   UNK d   1     -20.075  -2.614 -28.444  0.00  0.00     0.056 A 
ATOM     18  C   UNK d   1     -19.858  -3.605 -27.511  0.00  0.00     0.050 A 
ATOM     19 Cl   UNK d   1     -20.308  -5.267 -27.918  0.00  0.00    -0.083 Cl
ATOM     20  C   UNK d   1     -19.302  -3.333 -26.278  0.00  0.00     0.027 A 
ATOM     21  C   UNK d   1     -18.970  -2.025 -26.012  0.00  0.00     0.033 A 
ATOM     22  C   UNK d   1     -19.170  -0.997 -26.919  0.00  0.00     0.059 A 
ATOM     23  C   UNK d   1     -19.728  -1.316 -28.138  0.00  0.00     0.050 A 
BRANCH  22  24
ATOM     24  N   UNK d   1     -18.803   0.340 -26.580  0.00  0.00    -0.245 N 
ATOM     25  N   UNK d   1     -18.852   1.416 -27.327  0.00  0.00    -0.180 NA
ATOM     26  C   UNK d   1     -18.408   2.490 -26.612  0.00  0.00     0.140 A 
ATOM     27  C   UNK d   1     -18.065   2.052 -25.353  0.00  0.00     0.040 A 
ATOM     28  C   UNK d   1     -18.329   0.679 -25.369  0.00  0.00     0.120 A 
ENDBRANCH  22  24
ENDBRANCH   1  17
TORSDOF 2
ENDMDL
