/Users/jonathanwahrer/Desktop/Msc/3_Semester/Drug_Design_Praktikum/waehrer_HTS_screening/HTS_experiment/out/docking_results/vina_output/5l4q/1622_docked.pdbqt
 OpenBabel03212218553D

 28 31  0  0  1  0  0  0  0  0999 V2000
  -20.6680   -2.9360  -29.7450 C   0  0  0  0  0  0  0  0  0  0  0  0
  -21.8410   -3.3890  -29.7210 O   0  0  0  0  0  0  0  0  0  0  0  0
  -19.9520   -2.7440  -30.9580 N   0  0  0  0  0  0  0  0  0  0  0  0
  -20.5980   -3.0830  -32.2070 C   0  0  0  0  0  2  0  0  0  0  0  0
  -19.9660   -2.2150  -33.2800 C   0  0  0  0  0  2  0  0  0  0  0  0
  -19.6080   -0.8410  -32.7580 C   0  0  1  0  0  0  0  0  0  0  0  0
  -19.2280   -0.0380  -33.8980 N   0  0  0  0  0  0  0  0  0  0  0  0
  -20.4020    0.5370  -34.4500 C   0  0  0  0  0  0  0  0  0  0  0  0
  -20.5690    1.0080  -35.6180 O   0  0  0  0  0  0  0  0  0  0  0  0
  -21.3880    0.4840  -33.4140 N   0  0  0  0  0  0  0  0  0  0  0  0
  -20.8040   -0.1170  -32.2580 C   0  0  0  0  0  0  0  0  0  0  0  0
  -21.2450   -0.0270  -31.0800 O   0  0  0  0  0  0  0  0  0  0  0  0
  -22.7750    0.9520  -33.4770 C   0  0  0  0  0  1  0  0  0  0  0  0
  -18.5390   -0.8930  -31.7070 C   0  0  0  0  0  2  0  0  0  0  0  0
  -18.6040   -2.2270  -31.0280 C   0  0  0  0  0  2  0  0  0  0  0  0
  -18.2550    0.0810  -34.2360 H   0  0  0  0  0  0  0  0  0  0  0  0
  -20.0750   -2.6140  -28.4440 C   0  0  0  0  0  0  0  0  0  0  0  0
  -19.8580   -3.6050  -27.5110 C   0  0  0  0  0  0  0  0  0  0  0  0
  -20.3080   -5.2670  -27.9180 Cl  0  0  0  0  0  0  0  0  0  0  0  0
  -19.3020   -3.3330  -26.2780 C   0  0  0  0  0  3  0  0  0  0  0  0
  -18.9700   -2.0250  -26.0120 C   0  0  0  0  0  3  0  0  0  0  0  0
  -19.1700   -0.9970  -26.9190 C   0  0  0  0  0  0  0  0  0  0  0  0
  -19.7280   -1.3160  -28.1380 C   0  0  0  0  0  3  0  0  0  0  0  0
  -18.8030    0.3400  -26.5800 N   0  0  0  0  0  0  0  0  0  0  0  0
  -18.8520    1.4160  -27.3270 N   0  0  0  0  0  0  0  0  0  0  0  0
  -18.4080    2.4900  -26.6120 C   0  0  0  0  0  3  0  0  0  0  0  0
  -18.0650    2.0520  -25.3530 C   0  0  0  0  0  3  0  0  0  0  0  0
  -18.3290    0.6790  -25.3690 C   0  0  0  0  0  3  0  0  0  0  0  0
  1  2  2  0  0  0  0
  1 17  1  0  0  0  0
  3  1  1  0  0  0  0
  4  3  1  0  0  0  0
  5  4  1  0  0  0  0
  6  5  1  6  0  0  0
  6 11  1  0  0  0  0
  6 14  1  0  0  0  0
  7  6  1  0  0  0  0
  8  7  1  0  0  0  0
  8 10  1  0  0  0  0
  9  8  2  0  0  0  0
 10 11  1  0  0  0  0
 11 12  2  0  0  0  0
 13 10  1  0  0  0  0
 14 15  1  0  0  0  0
 15  3  1  0  0  0  0
 16  7  1  0  0  0  0
 17 23  2  0  0  0  0
 17 18  1  0  0  0  0
 18 20  2  0  0  0  0
 19 18  1  0  0  0  0
 20 21  1  0  0  0  0
 22 24  1  0  0  0  0
 22 21  2  0  0  0  0
 23 22  1  0  0  0  0
 24 28  1  0  0  0  0
 25 26  2  0  0  0  0
 25 24  1  0  0  0  0
 26 27  1  0  0  0  0
 28 27  2  0  0  0  0
M  END
>  <Pose>
1

>  <Score>
-8.727

$$$$
