MODEL 1
REMARK VINA RESULT:    -8.700      0.000      0.000
REMARK INTER + INTRA:         -13.723
REMARK INTER:                 -11.752
REMARK INTRA:                  -1.971
REMARK UNBOUND:                -1.971
REMARK  6 active torsions:
REMARK  status: ('A' for Active; 'I' for Inactive)
REMARK    1  A    between atoms: C_10  and  C_27 
REMARK    2  A    between atoms: N_15  and  C_18 
REMARK    3  A    between atoms: C_18  and  C_19 
REMARK    4  A    between atoms: C_20  and  O_25 
REMARK    5  A    between atoms: C_27  and  C_28 
REMARK    6  A    between atoms: C_28  and  C_29 
REMARK       I    between atoms: C_29  and  N_31 
ROOT
ATOM      1 Cl   UNK d   1     -22.086  -5.833 -31.800  0.00  0.00    -0.084 Cl
ATOM      2  C   UNK d   1     -21.654  -4.204 -32.344  0.00  0.00     0.042 A 
ATOM      3  C   UNK d   1     -21.093  -3.311 -31.464  0.00  0.00    -0.013 A 
ATOM      4  C   UNK d   1     -20.753  -2.034 -31.888  0.00  0.00     0.051 A 
ATOM      5  C   UNK d   1     -20.947  -1.592 -33.169  0.00  0.00     0.018 A 
ATOM      6  C   UNK d   1     -21.521  -2.525 -34.046  0.00  0.00     0.014 A 
ATOM      7  C   UNK d   1     -21.862  -3.795 -33.635  0.00  0.00     0.025 A 
ATOM      8  C   UNK d   1     -20.489  -0.216 -33.282  0.00  0.00     0.279 A 
ATOM      9  N   UNK d   1     -19.387  -0.189 -34.240  0.00  0.00     0.113 N 
ATOM     10  C   UNK d   1     -19.995   0.360 -35.421  0.00  0.00     0.237 C 
ATOM     11  C   UNK d   1     -20.816   1.494 -34.852  0.00  0.00     0.128 C 
ATOM     12  C   UNK d   1     -21.508   0.782 -33.710  0.00  0.00     0.147 C 
ATOM     13  C   UNK d   1     -22.737   0.276 -34.286  0.00  0.00     0.235 C 
ATOM     14  O   UNK d   1     -23.487  -0.599 -33.801  0.00  0.00    -0.272 OA
ATOM     15  N   UNK d   1     -22.978   0.937 -35.520  0.00  0.00    -0.283 N 
ATOM     16  C   UNK d   1     -21.928   1.875 -35.760  0.00  0.00     0.234 C 
ATOM     17  O   UNK d   1     -21.883   2.843 -36.556  0.00  0.00    -0.272 OA
ATOM     18  C   UNK d   1     -19.984   0.133 -31.933  0.00  0.00     0.267 A 
ATOM     19  O   UNK d   1     -19.479   1.231 -31.554  0.00  0.00    -0.270 OA
ATOM     20  N   UNK d   1     -20.165  -0.997 -31.111  0.00  0.00    -0.323 N 
ATOM     21  C   UNK d   1     -20.861  -3.745 -30.058  0.00  0.00     0.052 C 
ATOM     22  H   UNK d   1     -19.000  -1.150 -34.357  0.00  0.00     0.318 HD
ATOM     23  H   UNK d   1     -19.901  -1.048 -30.090  0.00  0.00     0.169 HD
ENDROOT
BRANCH  10  24
ATOM     24  C   UNK d   1     -18.955   0.848 -36.404  0.00  0.00     0.045 C 
BRANCH  24  25
ATOM     25  C   UNK d   1     -19.357   0.317 -37.764  0.00  0.00     0.105 C 
BRANCH  25  26
ATOM     26  C   UNK d   1     -19.564   1.412 -38.743  0.00  0.00     0.215 C 
ATOM     27  O   UNK d   1     -19.282   2.600 -38.415  0.00  0.00    -0.274 OA
ATOM     28  N   UNK d   1     -20.077   1.057 -40.020  0.00  0.00    -0.370 N 
ATOM     29  H   UNK d   1     -19.763   0.167 -40.443  0.00  0.00     0.159 HD
ATOM     30  H   UNK d   1     -20.751   1.728 -40.467  0.00  0.00     0.159 HD
ENDBRANCH  25  26
ENDBRANCH  24  25
ENDBRANCH  10  24
BRANCH  15  31
ATOM     31  C   UNK d   1     -24.080   0.757 -36.448  0.00  0.00     0.176 C 
BRANCH  31  32
ATOM     32  C   UNK d   1     -23.805  -0.295 -37.442  0.00  0.00    -0.006 A 
ATOM     33  C   UNK d   1     -23.320   0.091 -38.673  0.00  0.00     0.076 A 
ATOM     34  C   UNK d   1     -23.063  -0.905 -39.605  0.00  0.00     0.037 A 
ATOM     35  C   UNK d   1     -23.281  -2.224 -39.321  0.00  0.00     0.003 A 
ATOM     36  C   UNK d   1     -23.765  -2.569 -38.081  0.00  0.00     0.001 A 
ATOM     37  C   UNK d   1     -24.040  -1.627 -37.114  0.00  0.00     0.011 A 
BRANCH  33  38
ATOM     38  O   UNK d   1     -23.107   1.428 -38.937  0.00  0.00    -0.355 OA
ATOM     39  C   UNK d   1     -23.771   2.163 -39.917  0.00  0.00     0.210 C 
ENDBRANCH  33  38
ENDBRANCH  31  32
ENDBRANCH  15  31
TORSDOF 6
ENDMDL
