/Users/jonathanwahrer/Desktop/Msc/3_Semester/Drug_Design_Praktikum/waehrer_HTS_screening/HTS_experiment/out/docking_results/vina_output/5l4q/1630_docked.pdbqt
 OpenBabel03212218553D

 39 43  0  0  1  0  0  0  0  0999 V2000
  -22.0860   -5.8330  -31.8000 Cl  0  0  0  0  0  0  0  0  0  0  0  0
  -21.6540   -4.2040  -32.3440 C   0  0  0  0  0  0  0  0  0  0  0  0
  -21.0930   -3.3110  -31.4640 C   0  0  0  0  0  0  0  0  0  0  0  0
  -20.7530   -2.0340  -31.8880 C   0  0  0  0  0  0  0  0  0  0  0  0
  -20.9470   -1.5920  -33.1690 C   0  0  0  0  0  0  0  0  0  0  0  0
  -21.5210   -2.5250  -34.0460 C   0  0  0  0  0  3  0  0  0  0  0  0
  -21.8620   -3.7950  -33.6350 C   0  0  0  0  0  3  0  0  0  0  0  0
  -20.4890   -0.2160  -33.2820 C   0  0  1  0  0  0  0  0  0  0  0  0
  -19.3870   -0.1890  -34.2400 N   0  0  0  0  0  0  0  0  0  0  0  0
  -19.9950    0.3600  -35.4210 C   0  0  1  0  0  3  0  0  0  0  0  0
  -20.8160    1.4940  -34.8520 C   0  0  2  0  0  3  0  0  0  0  0  0
  -21.5080    0.7820  -33.7100 C   0  0  1  0  0  3  0  0  0  0  0  0
  -22.7370    0.2760  -34.2860 C   0  0  0  0  0  0  0  0  0  0  0  0
  -23.4870   -0.5990  -33.8010 O   0  0  0  0  0  0  0  0  0  0  0  0
  -22.9780    0.9370  -35.5200 N   0  0  0  0  0  0  0  0  0  0  0  0
  -21.9280    1.8750  -35.7600 C   0  0  0  0  0  0  0  0  0  0  0  0
  -21.8830    2.8430  -36.5560 O   0  0  0  0  0  0  0  0  0  0  0  0
  -19.9840    0.1330  -31.9330 C   0  0  0  0  0  0  0  0  0  0  0  0
  -19.4790    1.2310  -31.5540 O   0  0  0  0  0  0  0  0  0  0  0  0
  -20.1650   -0.9970  -31.1110 N   0  0  0  0  0  0  0  0  0  0  0  0
  -20.8610   -3.7450  -30.0580 C   0  0  0  0  0  1  0  0  0  0  0  0
  -19.0000   -1.1500  -34.3570 H   0  0  0  0  0  0  0  0  0  0  0  0
  -19.9010   -1.0480  -30.0900 H   0  0  0  0  0  0  0  0  0  0  0  0
  -18.9550    0.8480  -36.4040 C   0  0  0  0  0  2  0  0  0  0  0  0
  -19.3570    0.3170  -37.7640 C   0  0  0  0  0  2  0  0  0  0  0  0
  -19.5640    1.4120  -38.7430 C   0  0  0  0  0  0  0  0  0  0  0  0
  -19.2820    2.6000  -38.4150 O   0  0  0  0  0  0  0  0  0  0  0  0
  -20.0770    1.0570  -40.0200 N   0  0  0  0  0  0  0  0  0  0  0  0
  -19.7630    0.1670  -40.4430 H   0  0  0  0  0  0  0  0  0  0  0  0
  -20.7510    1.7280  -40.4670 H   0  0  0  0  0  0  0  0  0  0  0  0
  -24.0800    0.7570  -36.4480 C   0  0  0  0  0  2  0  0  0  0  0  0
  -23.8050   -0.2950  -37.4420 C   0  0  0  0  0  0  0  0  0  0  0  0
  -23.3200    0.0910  -38.6730 C   0  0  0  0  0  0  0  0  0  0  0  0
  -23.0630   -0.9050  -39.6050 C   0  0  0  0  0  3  0  0  0  0  0  0
  -23.2810   -2.2240  -39.3210 C   0  0  0  0  0  3  0  0  0  0  0  0
  -23.7650   -2.5690  -38.0810 C   0  0  0  0  0  3  0  0  0  0  0  0
  -24.0400   -1.6270  -37.1140 C   0  0  0  0  0  3  0  0  0  0  0  0
  -23.1070    1.4280  -38.9370 O   0  0  0  0  0  0  0  0  0  0  0  0
  -23.7710    2.1630  -39.9170 C   0  0  0  0  0  1  0  0  0  0  0  0
  2  1  1  0  0  0  0
  2  3  1  0  0  0  0
  3 21  1  0  0  0  0
  4  3  2  0  0  0  0
  4 20  1  0  0  0  0
  5  4  1  0  0  0  0
  6  7  1  0  0  0  0
  6  5  2  0  0  0  0
  7  2  2  0  0  0  0
  8  5  1  1  0  0  0
  8 18  1  0  0  0  0
  9  8  1  0  0  0  0
 10 24  1  6  0  0  0
 10 11  1  0  0  0  0
 10  9  1  0  0  0  0
 11 16  1  6  0  0  0
 11 12  1  0  0  0  0
 12 13  1  6  0  0  0
 12  8  1  0  0  0  0
 13 14  2  0  0  0  0
 15 13  1  0  0  0  0
 16 15  1  0  0  0  0
 17 16  2  0  0  0  0
 18 19  2  0  0  0  0
 18 20  1  0  0  0  0
 20 23  1  0  0  0  0
 22  9  1  0  0  0  0
 25 24  1  0  0  0  0
 26 27  2  0  0  0  0
 26 25  1  0  0  0  0
 28 26  1  0  0  0  0
 29 28  1  0  0  0  0
 30 28  1  0  0  0  0
 31 15  1  0  0  0  0
 32 37  1  0  0  0  0
 32 31  1  0  0  0  0
 33 32  2  0  0  0  0
 34 35  2  0  0  0  0
 34 33  1  0  0  0  0
 35 36  1  0  0  0  0
 36 37  2  0  0  0  0
 38 33  1  0  0  0  0
 39 38  1  0  0  0  0
M  END
>  <Pose>
1

>  <Score>
-8.700

$$$$
