MODEL 1
REMARK VINA RESULT:    -7.733      0.000      0.000
REMARK INTER + INTRA:         -10.019
REMARK INTER:                  -9.089
REMARK INTRA:                  -0.930
REMARK UNBOUND:                -0.930
REMARK  3 active torsions:
REMARK  status: ('A' for Active; 'I' for Inactive)
REMARK    1  A    between atoms: C_4  and  C_8 
REMARK    2  A    between atoms: N_9  and  C_23 
REMARK    3  A    between atoms: C_15  and  C_17 
ROOT
ATOM      1  C   UNK d   1     -20.600   0.180 -35.175  0.00  0.00     0.185 C 
ATOM      2  N   UNK d   1     -21.494  -0.610 -34.376  0.00  0.00    -0.128 N 
ATOM      3  C   UNK d   1     -22.784  -0.667 -34.975  0.00  0.00     0.314 C 
ATOM      4  O   UNK d   1     -23.868  -1.028 -34.431  0.00  0.00    -0.263 OA
ATOM      5  C   UNK d   1     -22.646  -0.221 -36.377  0.00  0.00     0.251 C 
ATOM      6  O   UNK d   1     -23.584  -0.141 -37.203  0.00  0.00    -0.282 OA
ATOM      7  C   UNK d   1     -21.231   0.085 -36.537  0.00  0.00     0.063 C 
ATOM      8  C   UNK d   1     -20.649   0.276 -37.702  0.00  0.00     0.130 C 
ATOM      9  O   UNK d   1     -19.280   0.616 -37.685  0.00  0.00    -0.190 OA
ENDROOT
BRANCH   1  10
ATOM     10  C   UNK d   1     -20.478   1.589 -34.722  0.00  0.00    -0.028 A 
ATOM     11  C   UNK d   1     -19.247   2.146 -34.397  0.00  0.00     0.033 A 
ATOM     12  C   UNK d   1     -19.090   3.445 -33.974  0.00  0.00     0.034 A 
ATOM     13 Cl   UNK d   1     -17.523   4.115 -33.577  0.00  0.00    -0.084 Cl
ATOM     14  C   UNK d   1     -20.218   4.228 -33.869  0.00  0.00     0.024 A 
ATOM     15  C   UNK d   1     -21.462   3.719 -34.180  0.00  0.00     0.002 A 
ATOM     16  C   UNK d   1     -21.591   2.414 -34.601  0.00  0.00     0.010 A 
ENDBRANCH   1  10
BRANCH   8  17
ATOM     17  C   UNK d   1     -21.321   0.156 -38.989  0.00  0.00     0.001 A 
ATOM     18  C   UNK d   1     -21.809   1.306 -39.624  0.00  0.00     0.014 A 
ATOM     19  C   UNK d   1     -22.423   1.226 -40.855  0.00  0.00     0.001 A 
ATOM     20  C   UNK d   1     -22.587   0.029 -41.519  0.00  0.00     0.000 A 
ATOM     21  C   UNK d   1     -22.114  -1.113 -40.913  0.00  0.00     0.001 A 
ATOM     22  C   UNK d   1     -21.493  -1.029 -39.666  0.00  0.00     0.014 A 
ENDBRANCH   8  17
BRANCH   2  23
ATOM     23  C   UNK d   1     -21.158  -1.246 -33.162  0.00  0.00     0.710 A 
ATOM     24  N   UNK d   1     -21.377  -2.587 -33.113  0.00  0.00    -0.200 N 
ATOM     25  C   UNK d   1     -21.102  -3.303 -32.024  0.00  0.00     0.107 A 
ATOM     26  H   UNK d   1     -21.775  -3.099 -33.948  0.00  0.00     0.183 HD
ATOM     27  C   UNK d   1     -20.579  -2.649 -30.932  0.00  0.00     0.037 A 
ATOM     28  C   UNK d   1     -20.364  -1.288 -31.005  0.00  0.00     0.138 A 
ATOM     29  N   UNK d   1     -20.647  -0.573 -32.108  0.00  0.00    -0.077 NA
ENDBRANCH   2  23
TORSDOF 3
ENDMDL
