MODEL 1
REMARK VINA RESULT:    -8.577      0.000      0.000
REMARK INTER + INTRA:         -11.298
REMARK INTER:                 -10.332
REMARK INTRA:                  -0.966
REMARK UNBOUND:                -0.966
REMARK  4 active torsions:
REMARK  status: ('A' for Active; 'I' for Inactive)
REMARK    1  A    between atoms: S_1  and  C_5 
REMARK    2  A    between atoms: C_9  and  O_11 
REMARK    3  A    between atoms: N_13  and  C_16 
REMARK    4  A    between atoms: C_16  and  C_17 
ROOT
ATOM      1  C   UNK d   1     -21.154   2.192 -37.335  0.00  0.00     0.249 A 
ATOM      2  N   UNK d   1     -21.786   1.030 -37.536  0.00  0.00    -0.223 NA
ATOM      3  C   UNK d   1     -22.647   0.486 -36.681  0.00  0.00     0.051 A 
ATOM      4  C   UNK d   1     -22.892   1.186 -35.489  0.00  0.00     0.048 A 
ATOM      5  C   UNK d   1     -22.253   2.358 -35.292  0.00  0.00     0.175 A 
ATOM      6  N   UNK d   1     -21.388   2.858 -36.219  0.00  0.00    -0.194 NA
ATOM      7  C   UNK d   1     -23.735   0.481 -34.520  0.00  0.00     0.318 C 
ATOM      8  N   UNK d   1     -23.168  -0.826 -34.396  0.00  0.00     0.097 N 
ATOM      9  C   UNK d   1     -23.708  -1.543 -35.635  0.00  0.00     0.279 C 
ATOM     10  C   UNK d   1     -23.343  -0.813 -36.879  0.00  0.00     0.090 C 
ENDROOT
BRANCH   8  11
ATOM     11  C   UNK d   1     -21.687  -0.956 -34.650  0.00  0.00     0.319 C 
BRANCH  11  12
ATOM     12  C   UNK d   1     -21.228  -1.285 -33.227  0.00  0.00     0.068 A 
ATOM     13  C   UNK d   1     -21.359  -2.469 -32.614  0.00  0.00     0.061 A 
ATOM     14  C   UNK d   1     -20.914  -2.731 -31.290  0.00  0.00     0.020 A 
ATOM     15 Cl   UNK d   1     -22.059  -3.779 -33.504  0.00  0.00    -0.083 Cl
ATOM     16  C   UNK d   1     -20.310  -1.640 -30.659  0.00  0.00     0.091 A 
ATOM     17  C   UNK d   1     -21.028  -3.907 -30.631  0.00  0.00     0.016 A 
ATOM     18  C   UNK d   1     -19.862  -1.831 -29.384  0.00  0.00     0.038 A 
ATOM     19  O   UNK d   1     -20.168  -0.501 -31.244  0.00  0.00    -0.274 OA
ATOM     20  C   UNK d   1     -19.973  -3.048 -28.676  0.00  0.00     0.003 A 
ATOM     21  C   UNK d   1     -20.584  -4.118 -29.356  0.00  0.00     0.001 A 
ATOM     22  C   UNK d   1     -20.601  -0.280 -32.495  0.00  0.00     0.298 A 
ATOM     23  O   UNK d   1     -20.462   0.870 -33.064  0.00  0.00    -0.259 OA
ENDBRANCH  11  12
ENDBRANCH   8  11
BRANCH   5  24
ATOM     24  O   UNK d   1     -22.503   3.059 -34.121  0.00  0.00    -0.344 OA
ATOM     25  H   UNK d   1     -21.952   2.953 -33.263  0.00  0.00     0.219 HD
ENDBRANCH   5  24
BRANCH   1  26
ATOM     26  S   UNK d   1     -19.961   2.720 -38.536  0.00  0.00     0.207 S 
ATOM     27  O   UNK d   1     -19.571   1.653 -39.432  0.00  0.00    -0.220 OA
ATOM     28  O   UNK d   1     -18.794   3.261 -37.765  0.00  0.00    -0.220 OA
ATOM     29  C   UNK d   1     -20.731   4.115 -39.394  0.00  0.00     0.170 C 
ENDBRANCH   1  26
TORSDOF 4
ENDMDL
