MODEL 1
REMARK VINA RESULT:    -8.460      0.000      0.000
REMARK INTER + INTRA:         -13.091
REMARK INTER:                 -11.675
REMARK INTRA:                  -1.417
REMARK UNBOUND:                -1.417
REMARK  7 active torsions:
REMARK  status: ('A' for Active; 'I' for Inactive)
REMARK    1  A    between atoms: S_1  and  C_4 
REMARK    2  A    between atoms: S_1  and  C_26 
REMARK    3  A    between atoms: C_5  and  N_25 
REMARK    4  A    between atoms: C_7  and  N_10 
REMARK    5  A    between atoms: C_13  and  N_16 
REMARK    6  A    between atoms: C_13  and  C_22 
REMARK       I    between atoms: C_22  and  N_24 
REMARK    7  A    between atoms: C_27  and  O_33 
ROOT
ATOM      1  C   UNK d   1     -20.009   0.039 -32.391  0.00  0.00     0.128 A 
ATOM      2  C   UNK d   1     -18.944  -0.029 -33.280  0.00  0.00     0.164 A 
ATOM      3  N   UNK d   1     -19.089   0.452 -34.544  0.00  0.00    -0.044 NA
ATOM      4  C   UNK d   1     -20.229   0.999 -34.984  0.00  0.00     0.726 A 
ATOM      5  N   UNK d   1     -21.265   1.068 -34.129  0.00  0.00    -0.073 NA
ATOM      6  C   UNK d   1     -21.170   0.607 -32.871  0.00  0.00     0.164 A 
ENDROOT
BRANCH   4   7
ATOM      7  N   UNK d   1     -20.378   1.507 -36.308  0.00  0.00    -0.214 N 
ATOM      8  C   UNK d   1     -19.530   1.081 -37.395  0.00  0.00     0.144 C 
ATOM      9  C   UNK d   1     -20.274   0.559 -38.593  0.00  0.00     0.072 C 
ATOM     10  C   UNK d   1     -21.685   1.116 -38.681  0.00  0.00     0.241 C 
ATOM     11  C   UNK d   1     -21.546   2.537 -38.109  0.00  0.00     0.072 C 
ATOM     12  C   UNK d   1     -21.399   2.490 -36.625  0.00  0.00     0.144 C 
BRANCH  10  13
ATOM     13  N   UNK d   1     -22.638   0.427 -37.952  0.00  0.00     0.107 N 
ATOM     14  C   UNK d   1     -22.589  -0.974 -37.790  0.00  0.00     0.274 C 
ATOM     15  C   UNK d   1     -23.183  -1.294 -36.408  0.00  0.00     0.030 C 
ATOM     16  C   UNK d   1     -24.089  -0.158 -36.019  0.00  0.00     0.003 C 
ATOM     17  C   UNK d   1     -24.891   0.366 -37.183  0.00  0.00     0.030 C 
ATOM     18  C   UNK d   1     -23.983   0.756 -38.338  0.00  0.00     0.274 C 
ENDBRANCH  10  13
BRANCH  10  19
ATOM     19  C   UNK d   1     -22.012   1.292 -40.114  0.00  0.00     0.255 C 
ATOM     20  O   UNK d   1     -22.381   2.429 -40.564  0.00  0.00    -0.271 OA
ATOM     21  N   UNK d   1     -21.944   0.257 -41.053  0.00  0.00    -0.368 N 
ATOM     22  H   UNK d   1     -22.850  -0.169 -41.393  0.00  0.00     0.159 HD
ATOM     23  H   UNK d   1     -21.083  -0.148 -41.472  0.00  0.00     0.159 HD
ENDBRANCH  10  19
ENDBRANCH   4   7
BRANCH   2  24
ATOM     24  N   UNK d   1     -17.748  -0.604 -32.812  0.00  0.00    -0.382 N 
ATOM     25  H   UNK d   1     -17.579  -0.854 -31.816  0.00  0.00     0.157 HD
ATOM     26  H   UNK d   1     -16.981  -0.796 -33.488  0.00  0.00     0.157 HD
ENDBRANCH   2  24
BRANCH   1  27
ATOM     27  S   UNK d   1     -19.870  -0.564 -30.753  0.00  0.00     0.214 S 
ATOM     28  O   UNK d   1     -18.486  -0.396 -30.217  0.00  0.00    -0.217 OA
ATOM     29  O   UNK d   1     -20.890   0.163 -29.916  0.00  0.00    -0.217 OA
BRANCH  27  30
ATOM     30  C   UNK d   1     -20.315  -2.277 -30.772  0.00  0.00     0.099 A 
ATOM     31  C   UNK d   1     -20.001  -3.084 -29.698  0.00  0.00     0.090 A 
ATOM     32  C   UNK d   1     -20.368  -4.412 -29.756  0.00  0.00     0.040 A 
ATOM     33  C   UNK d   1     -21.034  -4.939 -30.857  0.00  0.00     0.026 A 
ATOM     34  C   UNK d   1     -21.330  -4.100 -31.910  0.00  0.00     0.035 A 
ATOM     35  C   UNK d   1     -20.976  -2.767 -31.882  0.00  0.00     0.050 A 
ATOM     36 Cl   UNK d   1     -22.177  -4.752 -33.320  0.00  0.00    -0.084 Cl
BRANCH  31  37
ATOM     37  O   UNK d   1     -19.345  -2.532 -28.633  0.00  0.00    -0.354 OA
ATOM     38  C   UNK d   1     -19.869  -2.387 -27.342  0.00  0.00     0.210 C 
ENDBRANCH  31  37
ENDBRANCH  27  30
ENDBRANCH   1  27
TORSDOF 7
ENDMDL
