MODEL 1
REMARK VINA RESULT:    -7.564      0.000      0.000
REMARK INTER + INTRA:          -7.564
REMARK INTER:                  -7.564
REMARK INTRA:                   0.000
REMARK UNBOUND:                 0.000
REMARK  0 active torsions:
REMARK  status: ('A' for Active; 'I' for Inactive)
ROOT
ATOM      1 Cl   UNK d   1     -19.255   0.336 -27.410  0.00  0.00    -0.084 Cl
ATOM      2  C   UNK d   1     -19.776  -0.631 -28.793  0.00  0.00     0.034 A 
ATOM      3  C   UNK d   1     -20.099  -0.054 -29.997  0.00  0.00     0.034 A 
ATOM      4  C   UNK d   1     -20.510  -0.844 -31.081  0.00  0.00    -0.006 A 
ATOM      5  C   UNK d   1     -20.602  -2.203 -30.978  0.00  0.00     0.044 A 
ATOM      6  C   UNK d   1     -20.273  -2.802 -29.749  0.00  0.00     0.032 A 
ATOM      7  C   UNK d   1     -19.875  -1.999 -28.708  0.00  0.00     0.026 A 
ATOM      8  N   UNK d   1     -21.034  -2.805 -32.188  0.00  0.00    -0.321 N 
ATOM      9  C   UNK d   1     -21.227  -1.749 -33.113  0.00  0.00     0.242 A 
ATOM     10  O   UNK d   1     -21.615  -1.921 -34.306  0.00  0.00    -0.271 OA
ATOM     11  C   UNK d   1     -20.904  -0.462 -32.459  0.00  0.00     0.111 A 
ATOM     12  C   UNK d   1     -22.175   0.361 -32.465  0.00  0.00     0.132 C 
ATOM     13  C   UNK d   1     -22.377   0.758 -33.899  0.00  0.00     0.225 C 
ATOM     14  O   UNK d   1     -23.432   0.544 -34.524  0.00  0.00    -0.273 OA
ATOM     15  N   UNK d   1     -21.272   1.412 -34.534  0.00  0.00    -0.311 N 
ATOM     16  C   UNK d   1     -19.948   1.120 -34.108  0.00  0.00     0.133 A 
ATOM     17  N   UNK d   1     -18.726   1.573 -34.501  0.00  0.00    -0.262 N 
ATOM     18  N   UNK d   1     -17.815   0.980 -33.769  0.00  0.00    -0.185 NA
ATOM     19  C   UNK d   1     -18.376   0.137 -32.889  0.00  0.00     0.151 A 
ATOM     20  C   UNK d   1     -19.759   0.214 -33.095  0.00  0.00     0.030 A 
ATOM     21  C   UNK d   1     -21.237  -4.239 -32.414  0.00  0.00     0.159 C 
ATOM     22  H   UNK d   1     -21.423   2.099 -35.305  0.00  0.00     0.170 HD
ATOM     23  H   UNK d   1     -18.600   2.277 -35.265  0.00  0.00     0.191 HD
ENDROOT
TORSDOF 0
ENDMDL
