MODEL 1
REMARK VINA RESULT:    -8.648      0.000      0.000
REMARK INTER + INTRA:         -10.099
REMARK INTER:                  -9.659
REMARK INTRA:                  -0.440
REMARK UNBOUND:                -0.440
REMARK  2 active torsions:
REMARK  status: ('A' for Active; 'I' for Inactive)
REMARK    1  A    between atoms: N_15  and  C_20 
REMARK       I    between atoms: C_21  and  N_23 
REMARK    2  A    between atoms: N_26  and  C_29 
ROOT
ATOM      1 Cl   UNK d   1     -18.470  -0.720 -25.251  0.00  0.00    -0.084 Cl
ATOM      2  C   UNK d   1     -18.642  -1.002 -26.988  0.00  0.00     0.035 A 
ATOM      3  C   UNK d   1     -19.442  -2.025 -27.449  0.00  0.00     0.043 A 
ATOM      4  C   UNK d   1     -19.573  -2.238 -28.783  0.00  0.00     0.060 A 
ATOM      5  C   UNK d   1     -18.897  -1.423 -29.701  0.00  0.00     0.045 A 
ATOM      6  C   UNK d   1     -18.104  -0.409 -29.219  0.00  0.00     0.032 A 
ATOM      7  C   UNK d   1     -17.960  -0.177 -27.857  0.00  0.00     0.026 A 
ATOM      8  N   UNK d   1     -19.031  -1.639 -31.102  0.00  0.00    -0.363 N 
ATOM      9  C   UNK d   1     -20.241  -2.270 -31.604  0.00  0.00     0.108 C 
ATOM     10  N   UNK d   1     -20.466  -3.434 -30.778  0.00  0.00    -0.330 N 
ATOM     11  C   UNK d   1     -20.395  -3.293 -29.369  0.00  0.00     0.255 C 
ATOM     12  O   UNK d   1     -21.015  -4.044 -28.572  0.00  0.00    -0.268 OA
ATOM     13  C   UNK d   1     -20.009  -2.679 -33.020  0.00  0.00     0.074 C 
ATOM     14  C   UNK d   1     -20.307  -1.584 -34.018  0.00  0.00     0.130 C 
ATOM     15  N   UNK d   1     -19.706  -0.323 -33.636  0.00  0.00    -0.344 N 
ATOM     16  C   UNK d   1     -20.036   0.368 -32.405  0.00  0.00     0.220 C 
ATOM     17  O   UNK d   1     -19.330   1.371 -32.152  0.00  0.00    -0.273 OA
ATOM     18  C   UNK d   1     -21.074   0.076 -31.403  0.00  0.00     0.107 C 
ATOM     19  C   UNK d   1     -21.449  -1.376 -31.411  0.00  0.00     0.063 C 
ATOM     20  H   UNK d   1     -18.241  -1.328 -31.706  0.00  0.00     0.162 HD
ATOM     21  H   UNK d   1     -20.678  -4.374 -31.165  0.00  0.00     0.165 HD
ENDROOT
BRANCH  15  22
ATOM     22  C   UNK d   1     -18.735   0.294 -34.444  0.00  0.00     0.212 C 
ATOM     23  C   UNK d   1     -19.086   1.148 -35.556  0.00  0.00     0.171 C 
ATOM     24  O   UNK d   1     -17.995   1.640 -36.146  0.00  0.00    -0.175 OA
ATOM     25  N   UNK d   1     -20.311   1.508 -36.072  0.00  0.00    -0.359 N 
ATOM     26  C   UNK d   1     -20.347   2.421 -37.243  0.00  0.00     0.144 C 
ATOM     27  C   UNK d   1     -21.583   1.090 -35.629  0.00  0.00     0.144 C 
ATOM     28  C   UNK d   1     -21.377   1.779 -38.184  0.00  0.00     0.137 C 
ATOM     29  N   UNK d   1     -21.545   0.392 -37.904  0.00  0.00    -0.406 N 
ATOM     30  C   UNK d   1     -22.169   0.078 -36.654  0.00  0.00     0.137 C 
BRANCH  29  31
ATOM     31  C   UNK d   1     -21.952  -0.425 -38.997  0.00  0.00     0.071 C 
ATOM     32  C   UNK d   1     -22.950  -1.499 -38.617  0.00  0.00     0.031 C 
ATOM     33  C   UNK d   1     -22.489   0.356 -40.165  0.00  0.00     0.031 C 
ENDBRANCH  29  31
ENDBRANCH  15  22
TORSDOF 2
ENDMDL
