/Users/jonathanwahrer/Desktop/Msc/3_Semester/Drug_Design_Praktikum/waehrer_HTS_screening/HTS_experiment/out/docking_results/vina_output/5l4q/1660_docked.pdbqt
 OpenBabel03212218573D

 31 34  0  0  0  0  0  0  0  0999 V2000
  -19.6330   -1.8960  -27.8520 N   0  0  0  0  0  0  0  0  0  0  0  0
  -19.9560   -3.0700  -27.3820 N   0  0  0  0  0  0  0  0  0  0  0  0
  -20.3580   -3.9150  -28.3380 C   0  0  0  0  0  3  0  0  0  0  0  0
  -20.2890   -3.2210  -29.5380 C   0  0  0  0  0  0  0  0  0  0  0  0
  -19.8280   -1.9550  -29.1900 C   0  0  0  0  0  0  0  0  0  0  0  0
  -19.6800   -1.0830  -30.1900 N   0  0  0  0  0  0  0  0  0  0  0  0
  -19.9610   -1.4160  -31.4690 C   0  0  0  0  0  3  0  0  0  0  0  0
  -20.4060   -2.6280  -31.8360 N   0  0  0  0  0  0  0  0  0  0  0  0
  -20.5700   -3.5420  -30.8460 C   0  0  0  0  0  0  0  0  0  0  0  0
  -20.9860   -4.6910  -31.1410 O   0  0  0  0  0  0  0  0  0  0  0  0
  -20.6980   -2.9990  -33.2240 C   0  0  0  0  0  2  0  0  0  0  0  0
  -22.0190   -2.5130  -33.6610 C   0  0  0  0  0  0  0  0  0  0  0  0
  -23.0140   -3.1140  -33.1200 O   0  0  0  0  0  0  0  0  0  0  0  0
  -22.2800   -1.4950  -34.5740 N   0  0  0  0  0  0  0  0  0  0  0  0
  -23.6590   -1.1590  -34.9630 C   0  0  0  0  0  2  0  0  0  0  0  0
  -21.2430   -0.6860  -35.1760 C   0  0  0  0  0  2  0  0  0  0  0  0
  -23.7270   -1.5170  -36.4530 C   0  0  0  0  0  2  0  0  0  0  0  0
  -22.6470   -0.8900  -37.1690 N   0  0  0  0  0  0  0  0  0  0  0  0
  -21.7670   -0.0130  -36.4180 C   0  0  0  0  0  2  0  0  0  0  0  0
  -22.4330   -1.1360  -38.5430 C   0  0  0  0  0  0  0  0  0  0  0  0
  -23.2210   -1.9700  -39.1250 O   0  0  0  0  0  0  0  0  0  0  0  0
  -21.4590   -0.5650  -39.3300 O   0  0  0  0  0  0  0  0  0  0  0  0
  -21.5740   -0.5680  -40.7660 C   0  0  0  0  0  2  0  0  0  0  0  0
  -22.2780    0.7250  -41.1370 C   0  0  0  0  0  1  0  0  0  0  0  0
  -19.1530   -0.7780  -27.1220 C   0  0  0  0  0  0  0  0  0  0  0  0
  -19.1340    0.5140  -27.5770 C   0  0  0  0  0  3  0  0  0  0  0  0
  -18.6130    1.5240  -26.7930 C   0  0  0  0  0  3  0  0  0  0  0  0
  -18.0910    1.3080  -25.5370 C   0  0  0  0  0  0  0  0  0  0  0  0
  -17.4260    2.5570  -24.5350 Cl  0  0  0  0  0  0  0  0  0  0  0  0
  -18.1020    0.0110  -25.0600 C   0  0  0  0  0  3  0  0  0  0  0  0
  -18.6260   -0.9830  -25.8580 C   0  0  0  0  0  3  0  0  0  0  0  0
  1  2  1  0  0  0  0
  1 25  1  0  0  0  0
  3  2  2  0  0  0  0
  4  5  2  0  0  0  0
  4  3  1  0  0  0  0
  5  1  1  0  0  0  0
  6  5  1  0  0  0  0
  7  6  2  0  0  0  0
  8  7  1  0  0  0  0
  8  9  1  0  0  0  0
  9  4  1  0  0  0  0
 10  9  2  0  0  0  0
 11  8  1  0  0  0  0
 12 11  1  0  0  0  0
 12 13  2  0  0  0  0
 14 12  1  0  0  0  0
 15 14  1  0  0  0  0
 16 14  1  0  0  0  0
 17 15  1  0  0  0  0
 18 17  1  0  0  0  0
 18 19  1  0  0  0  0
 19 16  1  0  0  0  0
 20 18  1  0  0  0  0
 21 20  2  0  0  0  0
 22 20  1  0  0  0  0
 23 22  1  0  0  0  0
 24 23  1  0  0  0  0
 25 31  1  0  0  0  0
 26 25  2  0  0  0  0
 26 27  1  0  0  0  0
 27 28  2  0  0  0  0
 28 30  1  0  0  0  0
 28 29  1  0  0  0  0
 31 30  2  0  0  0  0
M  END
>  <Pose>
1

>  <Score>
-9.577

$$$$
