MODEL 1
REMARK VINA RESULT:    -9.577      0.000      0.000
REMARK INTER + INTRA:         -12.860
REMARK INTER:                 -12.376
REMARK INTRA:                  -0.483
REMARK UNBOUND:                -0.483
REMARK  5 active torsions:
REMARK  status: ('A' for Active; 'I' for Inactive)
REMARK    1  A    between atoms: C_5  and  N_8 
REMARK    2  A    between atoms: N_15  and  C_18 
REMARK    3  A    between atoms: C_18  and  C_19 
REMARK       I    between atoms: C_19  and  N_21 
REMARK       I    between atoms: N_24  and  C_27 
REMARK    4  A    between atoms: C_27  and  O_29 
REMARK    5  A    between atoms: O_29  and  C_30 
ROOT
ATOM      1  N   UNK d   1     -19.633  -1.896 -27.852  0.00  0.00    -0.215 N 
ATOM      2  N   UNK d   1     -19.956  -3.070 -27.382  0.00  0.00    -0.177 NA
ATOM      3  C   UNK d   1     -20.358  -3.915 -28.338  0.00  0.00     0.160 A 
ATOM      4  C   UNK d   1     -20.289  -3.221 -29.538  0.00  0.00     0.099 A 
ATOM      5  C   UNK d   1     -19.828  -1.955 -29.190  0.00  0.00     0.169 A 
ATOM      6  N   UNK d   1     -19.680  -1.083 -30.190  0.00  0.00    -0.223 NA
ATOM      7  C   UNK d   1     -19.961  -1.416 -31.469  0.00  0.00     0.215 A 
ATOM      8  N   UNK d   1     -20.406  -2.628 -31.836  0.00  0.00    -0.299 N 
ATOM      9  C   UNK d   1     -20.570  -3.542 -30.846  0.00  0.00     0.264 A 
ATOM     10  O   UNK d   1     -20.986  -4.691 -31.141  0.00  0.00    -0.267 OA
ENDROOT
BRANCH   8  11
ATOM     11  C   UNK d   1     -20.698  -2.999 -33.224  0.00  0.00     0.236 C 
BRANCH  11  12
ATOM     12  C   UNK d   1     -22.019  -2.513 -33.661  0.00  0.00     0.238 C 
ATOM     13  O   UNK d   1     -23.014  -3.114 -33.120  0.00  0.00    -0.272 OA
ATOM     14  N   UNK d   1     -22.280  -1.495 -34.574  0.00  0.00    -0.348 N 
ATOM     15  C   UNK d   1     -23.659  -1.159 -34.963  0.00  0.00     0.145 C 
ATOM     16  C   UNK d   1     -21.243  -0.686 -35.176  0.00  0.00     0.145 C 
ATOM     17  C   UNK d   1     -23.727  -1.517 -36.453  0.00  0.00     0.148 C 
ATOM     18  N   UNK d   1     -22.647  -0.890 -37.169  0.00  0.00    -0.325 N 
ATOM     19  C   UNK d   1     -21.767  -0.013 -36.418  0.00  0.00     0.148 C 
ATOM     20  C   UNK d   1     -22.433  -1.136 -38.543  0.00  0.00     0.362 C 
ATOM     21  O   UNK d   1     -23.221  -1.970 -39.125  0.00  0.00    -0.238 OA
BRANCH  20  22
ATOM     22  O   UNK d   1     -21.459  -0.565 -39.330  0.00  0.00    -0.304 OA
BRANCH  22  23
ATOM     23  C   UNK d   1     -21.574  -0.568 -40.766  0.00  0.00     0.176 C 
ATOM     24  C   UNK d   1     -22.278   0.725 -41.137  0.00  0.00     0.034 C 
ENDBRANCH  22  23
ENDBRANCH  20  22
ENDBRANCH  11  12
ENDBRANCH   8  11
BRANCH   1  25
ATOM     25  C   UNK d   1     -19.153  -0.778 -27.122  0.00  0.00     0.060 A 
ATOM     26  C   UNK d   1     -19.134   0.514 -27.577  0.00  0.00     0.033 A 
ATOM     27  C   UNK d   1     -18.613   1.524 -26.793  0.00  0.00     0.026 A 
ATOM     28  C   UNK d   1     -18.091   1.308 -25.537  0.00  0.00     0.034 A 
ATOM     29 Cl   UNK d   1     -17.426   2.557 -24.535  0.00  0.00    -0.084 Cl
ATOM     30  C   UNK d   1     -18.102   0.011 -25.060  0.00  0.00     0.026 A 
ATOM     31  C   UNK d   1     -18.626  -0.983 -25.858  0.00  0.00     0.033 A 
ENDBRANCH   1  25
TORSDOF 5
ENDMDL
