/Users/jonathanwahrer/Desktop/Msc/3_Semester/Drug_Design_Praktikum/waehrer_HTS_screening/HTS_experiment/out/docking_results/vina_output/5l4q/1676_docked.pdbqt
 OpenBabel03212218583D

 25 28  0  0  0  0  0  0  0  0999 V2000
  -20.1780   -2.1830  -29.4040 C   0  0  0  0  0  0  0  0  0  0  0  0
  -20.9130   -3.1730  -29.2300 O   0  0  0  0  0  0  0  0  0  0  0  0
  -19.9120   -1.7520  -30.7290 N   0  0  0  0  0  0  0  0  0  0  0  0
  -19.3040   -0.9320  -30.8870 H   0  0  0  0  0  0  0  0  0  0  0  0
  -19.6220   -1.5110  -28.2340 C   0  0  0  0  0  0  0  0  0  0  0  0
  -19.3710   -2.2660  -27.1020 C   0  0  0  0  0  0  0  0  0  0  0  0
  -18.8490   -1.6570  -25.9870 C   0  0  0  0  0  0  0  0  0  0  0  0
  -19.5370   -3.5850  -26.8130 N   0  0  0  0  0  0  0  0  0  0  0  0
  -18.5840   -0.3080  -26.0170 C   0  0  0  0  0  3  0  0  0  0  0  0
  -18.7110   -2.6260  -25.0500 N   0  0  0  0  0  0  0  0  0  0  0  0
  -18.8320    0.4500  -27.1420 C   0  0  0  0  0  0  0  0  0  0  0  0
  -18.4540    2.3240  -27.1540 Br  0  0  0  0  0  0  0  0  0  0  0  0
  -19.3530   -0.1510  -28.2580 C   0  0  0  0  0  3  0  0  0  0  0  0
  -19.1330   -3.7570  -25.5850 N   0  0  0  0  0  0  0  0  0  0  0  0
  -19.9240   -4.2490  -27.5140 H   0  0  0  0  0  0  0  0  0  0  0  0
  -20.4750   -2.4360  -31.8670 C   0  0  0  0  0  2  0  0  0  0  0  0
  -20.4360   -1.5160  -33.0560 C   0  0  0  0  0  0  0  0  0  0  0  0
  -21.3180   -1.4620  -34.0670 N   0  0  0  0  0  0  0  0  0  0  0  0
  -20.9640   -0.5130  -34.9600 C   0  0  0  0  0  0  0  0  0  0  0  0
  -22.5250   -2.2020  -34.3610 C   0  0  0  0  0  2  0  0  0  0  0  0
  -19.8360    0.0320  -34.4890 N   0  0  0  0  0  0  0  0  0  0  0  0
  -21.8600   -0.3450  -36.1360 C   0  0  0  0  0  2  0  0  0  0  0  0
  -19.5130   -0.5750  -33.3360 N   0  0  0  0  0  0  0  0  0  0  0  0
  -23.2560   -0.1270  -35.5340 C   0  0  0  0  0  2  0  0  0  0  0  0
  -23.6480   -1.2130  -34.5860 C   0  0  0  0  0  2  0  0  0  0  0  0
  1  2  2  0  0  0  0
  1  5  1  0  0  0  0
  3  1  1  0  0  0  0
  4  3  1  0  0  0  0
  5  6  1  0  0  0  0
  6  8  1  0  0  0  0
  6  7  2  0  0  0  0
  7 10  1  0  0  0  0
  8 14  1  0  0  0  0
  9  7  1  0  0  0  0
 11  9  2  0  0  0  0
 12 11  1  0  0  0  0
 13  5  2  0  0  0  0
 13 11  1  0  0  0  0
 14 10  2  0  0  0  0
 15  8  1  0  0  0  0
 16  3  1  0  0  0  0
 17 16  1  0  0  0  0
 18 17  1  0  0  0  0
 19 21  2  0  0  0  0
 19 18  1  0  0  0  0
 20 18  1  0  0  0  0
 21 23  1  0  0  0  0
 22 24  1  0  0  0  0
 22 19  1  0  0  0  0
 23 17  2  0  0  0  0
 24 25  1  0  0  0  0
 25 20  1  0  0  0  0
M  END
>  <Pose>
1

>  <Score>
-8.675

$$$$
