/Users/jonathanwahrer/Desktop/Msc/3_Semester/Drug_Design_Praktikum/waehrer_HTS_screening/HTS_experiment/out/docking_results/vina_output/5l4q/1687_docked.pdbqt
 OpenBabel03212218583D

 27 30  0  0  0  0  0  0  0  0999 V2000
  -19.9840   -1.2730  -29.4350 N   0  0  0  0  0  0  0  0  0  0  0  0
  -20.2590   -2.5480  -29.0800 C   0  0  0  0  0  2  0  0  0  0  0  0
  -19.8290   -3.0860  -27.8870 C   0  0  0  0  0  0  0  0  0  0  0  0
  -19.0520   -2.2650  -26.9670 C   0  0  0  0  0  0  0  0  0  0  0  0
  -18.7790   -3.0410  -25.9090 N   0  0  0  0  0  2  0  0  0  0  0  0
  -19.3090   -4.2630  -26.0790 N   0  0  0  0  0  0  0  0  0  0  0  0
  -19.9440   -4.3080  -27.2600 C   0  0  0  0  0  0  0  0  0  0  0  0
  -20.5390   -5.3180  -27.6990 O   0  0  0  0  0  0  0  0  0  0  0  0
  -18.7870   -0.9640  -27.3630 C   0  0  0  0  0  0  0  0  0  0  0  0
  -19.2670   -0.5400  -28.5720 C   0  0  0  0  0  3  0  0  0  0  0  0
  -19.2090   -5.0240  -25.3610 H   0  0  0  0  0  0  0  0  0  0  0  0
  -20.4550   -0.7350  -30.7070 C   0  0  0  0  0  2  0  0  0  0  0  0
  -19.8410   -1.5600  -31.8170 C   0  0  0  0  0  2  0  0  0  0  0  0
  -20.8420   -2.0380  -32.7470 N   0  0  0  0  0  0  0  0  0  0  0  0
  -21.4380   -3.2490  -32.7100 C   0  0  0  0  0  3  0  0  0  0  0  0
  -22.3160   -3.3630  -33.7220 N   0  0  0  0  0  0  0  0  0  0  0  0
  -22.3080   -2.2100  -34.4460 C   0  0  0  0  0  0  0  0  0  0  0  0
  -23.0000   -1.7930  -35.5650 C   0  0  0  0  0  3  0  0  0  0  0  0
  -21.3790   -1.4120  -33.8090 C   0  0  0  0  0  0  0  0  0  0  0  0
  -22.7670   -0.5340  -36.0790 C   0  0  0  0  0  0  0  0  0  0  0  0
  -23.6130    0.0660  -37.5050 Cl  0  0  0  0  0  0  0  0  0  0  0  0
  -21.8350    0.2550  -35.4330 C   0  0  0  0  0  3  0  0  0  0  0  0
  -21.1390   -0.1550  -34.3140 C   0  0  0  0  0  3  0  0  0  0  0  0
  -18.0120   -0.1120  -26.4690 C   0  0  0  0  0  0  0  0  0  0  0  0
  -17.0600    0.5620  -26.9400 O   0  0  0  0  0  0  0  0  0  0  0  0
  -18.2920   -0.0280  -25.1310 O   0  0  0  0  0  0  0  0  0  0  0  0
  -17.9150    1.1030  -24.3620 C   0  0  0  0  0  1  0  0  0  0  0  0
  1  2  1  0  0  0  0
  1 10  1  0  0  0  0
  2  3  1  0  0  0  0
  3  7  1  0  0  0  0
  3  4  2  0  0  0  0
  4  5  1  0  0  0  0
  6  5  1  0  0  0  0
  6 11  1  0  0  0  0
  7  6  1  0  0  0  0
  8  7  2  0  0  0  0
  9  4  1  0  0  0  0
  9 24  1  0  0  0  0
 10  9  2  0  0  0  0
 12  1  1  0  0  0  0
 13 12  1  0  0  0  0
 14 15  1  0  0  0  0
 14 13  1  0  0  0  0
 16 15  2  0  0  0  0
 17 19  1  0  0  0  0
 17 16  1  0  0  0  0
 18 17  2  0  0  0  0
 19 14  1  0  0  0  0
 20 18  1  0  0  0  0
 20 22  2  0  0  0  0
 21 20  1  0  0  0  0
 22 23  1  0  0  0  0
 23 19  2  0  0  0  0
 24 26  1  0  0  0  0
 25 24  2  0  0  0  0
 26 27  1  0  0  0  0
M  END
>  <Pose>
1

>  <Score>
-8.613

$$$$
