MODEL 1
REMARK VINA RESULT:    -8.613      0.000      0.000
REMARK INTER + INTRA:         -11.596
REMARK INTER:                 -11.130
REMARK INTRA:                  -0.466
REMARK UNBOUND:                -0.466
REMARK  5 active torsions:
REMARK  status: ('A' for Active; 'I' for Inactive)
REMARK    1  A    between atoms: N_7  and  C_11 
REMARK    2  A    between atoms: C_11  and  C_12 
REMARK    3  A    between atoms: C_12  and  N_13 
REMARK    4  A    between atoms: C_21  and  C_23 
REMARK    5  A    between atoms: C_23  and  O_25 
ROOT
ATOM      1  N   UNK d   1     -19.984  -1.273 -29.435  0.00  0.00    -0.363 N 
ATOM      2  C   UNK d   1     -20.259  -2.548 -29.080  0.00  0.00     0.110 A 
ATOM      3  C   UNK d   1     -19.829  -3.086 -27.887  0.00  0.00     0.080 A 
ATOM      4  C   UNK d   1     -19.052  -2.265 -26.967  0.00  0.00     0.111 A 
ATOM      5  N   UNK d   1     -18.779  -3.041 -25.909  0.00  0.00    -0.170 NA
ATOM      6  N   UNK d   1     -19.309  -4.263 -26.079  0.00  0.00    -0.242 N 
ATOM      7  C   UNK d   1     -19.944  -4.308 -27.260  0.00  0.00     0.275 A 
ATOM      8  O   UNK d   1     -20.539  -5.318 -27.699  0.00  0.00    -0.266 OA
ATOM      9  C   UNK d   1     -18.787  -0.964 -27.363  0.00  0.00     0.086 A 
ATOM     10  C   UNK d   1     -19.267  -0.540 -28.572  0.00  0.00     0.110 A 
ATOM     11  H   UNK d   1     -19.209  -5.024 -25.361  0.00  0.00     0.192 HD
ENDROOT
BRANCH   1  12
ATOM     12  C   UNK d   1     -20.455  -0.735 -30.707  0.00  0.00     0.148 C 
BRANCH  12  13
ATOM     13  C   UNK d   1     -19.841  -1.560 -31.817  0.00  0.00     0.150 C 
BRANCH  13  14
ATOM     14  N   UNK d   1     -20.842  -2.038 -32.747  0.00  0.00    -0.338 N 
ATOM     15  C   UNK d   1     -21.438  -3.249 -32.710  0.00  0.00     0.210 A 
ATOM     16  N   UNK d   1     -22.316  -3.363 -33.722  0.00  0.00    -0.242 NA
ATOM     17  C   UNK d   1     -22.308  -2.210 -34.446  0.00  0.00     0.086 A 
ATOM     18  C   UNK d   1     -23.000  -1.793 -35.565  0.00  0.00     0.057 A 
ATOM     19  C   UNK d   1     -21.379  -1.412 -33.809  0.00  0.00     0.064 A 
ATOM     20  C   UNK d   1     -22.767  -0.534 -36.079  0.00  0.00     0.036 A 
ATOM     21 Cl   UNK d   1     -23.613   0.066 -37.505  0.00  0.00    -0.084 Cl
ATOM     22  C   UNK d   1     -21.835   0.255 -35.433  0.00  0.00     0.026 A 
ATOM     23  C   UNK d   1     -21.139  -0.155 -34.314  0.00  0.00     0.034 A 
ENDBRANCH  13  14
ENDBRANCH  12  13
ENDBRANCH   1  12
BRANCH   9  24
ATOM     24  C   UNK d   1     -18.012  -0.112 -26.469  0.00  0.00     0.296 C 
ATOM     25  O   UNK d   1     -17.060   0.562 -26.940  0.00  0.00    -0.259 OA
BRANCH  24  26
ATOM     26  O   UNK d   1     -18.292  -0.028 -25.131  0.00  0.00    -0.322 OA
ATOM     27  C   UNK d   1     -17.915   1.103 -24.362  0.00  0.00     0.213 C 
ENDBRANCH  24  26
ENDBRANCH   9  24
TORSDOF 5
ENDMDL
