MODEL 1
REMARK VINA RESULT:    -9.299      0.000      0.000
REMARK INTER + INTRA:         -12.618
REMARK INTER:                 -11.746
REMARK INTRA:                  -0.872
REMARK UNBOUND:                -0.872
REMARK  5 active torsions:
REMARK  status: ('A' for Active; 'I' for Inactive)
REMARK    1  A    between atoms: C_6  and  C_11 
REMARK    2  A    between atoms: C_11  and  C_12 
REMARK    3  A    between atoms: C_12  and  C_13 
REMARK       I    between atoms: C_13  and  N_15 
REMARK    4  A    between atoms: C_17  and  N_21 
REMARK    5  A    between atoms: C_18  and  O_20 
ROOT
ATOM      1  C   UNK d   1     -20.921  -0.357 -33.695  0.00  0.00     0.220 C 
ATOM      2  O   UNK d   1     -21.712  -0.019 -32.780  0.00  0.00    -0.273 OA
ATOM      3  N   UNK d   1     -20.633   0.578 -34.712  0.00  0.00    -0.348 N 
ATOM      4  C   UNK d   1     -19.782   0.472 -35.880  0.00  0.00     0.154 C 
ATOM      5  C   UNK d   1     -20.545   1.162 -36.920  0.00  0.00     0.142 C 
ATOM      6  C   UNK d   1     -21.692   1.900 -36.226  0.00  0.00     0.161 C 
ATOM      7  C   UNK d   1     -21.169   1.912 -34.775  0.00  0.00     0.159 C 
ENDROOT
BRANCH   1   8
ATOM      8  C   UNK d   1     -20.340  -1.715 -33.652  0.00  0.00     0.110 C 
BRANCH   8   9
ATOM      9  C   UNK d   1     -21.337  -2.694 -33.112  0.00  0.00     0.087 C 
BRANCH   9  10
ATOM     10  C   UNK d   1     -21.002  -3.100 -31.734  0.00  0.00     0.105 A 
ATOM     11  N   UNK d   1     -20.722  -2.253 -30.706  0.00  0.00    -0.343 N 
ATOM     12  C   UNK d   1     -20.444  -2.929 -29.580  0.00  0.00     0.064 A 
ATOM     13  H   UNK d   1     -20.709  -1.203 -30.731  0.00  0.00     0.167 HD
ATOM     14  C   UNK d   1     -20.106  -2.570 -28.286  0.00  0.00     0.055 A 
ATOM     15  C   UNK d   1     -20.552  -4.261 -29.898  0.00  0.00     0.085 A 
ATOM     16  C   UNK d   1     -19.876  -3.539 -27.318  0.00  0.00     0.036 A 
ATOM     17 Cl   UNK d   1     -19.448  -3.065 -25.692  0.00  0.00    -0.084 Cl
ATOM     18  C   UNK d   1     -19.982  -4.876 -27.631  0.00  0.00     0.026 A 
ATOM     19  C   UNK d   1     -20.323  -5.218 -28.932  0.00  0.00     0.036 A 
ATOM     20  N   UNK d   1     -20.886  -4.341 -31.192  0.00  0.00    -0.233 NA
ENDBRANCH   9  10
ENDBRANCH   8   9
ENDBRANCH   1   8
BRANCH   5  21
ATOM     21  N   UNK d   1     -20.988   0.493 -38.081  0.00  0.00    -0.300 N 
ATOM     22  C   UNK d   1     -21.995  -0.410 -37.939  0.00  0.00     0.108 A 
ATOM     23  C   UNK d   1     -22.499  -1.112 -39.011  0.00  0.00     0.022 A 
ATOM     24  C   UNK d   1     -21.988  -0.911 -40.272  0.00  0.00     0.256 A 
ATOM     25  C   UNK d   1     -23.610  -2.104 -38.838  0.00  0.00     0.056 C 
ATOM     26  O   UNK d   1     -22.434  -1.544 -41.276  0.00  0.00    -0.267 OA
ATOM     27  N   UNK d   1     -20.995  -0.020 -40.412  0.00  0.00    -0.275 N 
ATOM     28  C   UNK d   1     -20.547   0.631 -39.336  0.00  0.00     0.329 A 
ATOM     29  H   UNK d   1     -20.580   0.153 -41.379  0.00  0.00     0.173 HD
ATOM     30  O   UNK d   1     -19.625   1.449 -39.525  0.00  0.00    -0.246 OA
ENDBRANCH   5  21
BRANCH   6  31
ATOM     31  O   UNK d   1     -21.872   3.178 -36.693  0.00  0.00    -0.392 OA
ATOM     32  H   UNK d   1     -21.765   3.803 -35.933  0.00  0.00     0.210 HD
ENDBRANCH   6  31
TORSDOF 5
ENDMDL
