/Users/jonathanwahrer/Desktop/Msc/3_Semester/Drug_Design_Praktikum/waehrer_HTS_screening/HTS_experiment/out/docking_results/vina_output/5l4q/1689_docked.pdbqt
 OpenBabel03212218583D

 32 35  0  0  1  0  0  0  0  0999 V2000
  -20.9210   -0.3570  -33.6950 C   0  0  0  0  0  0  0  0  0  0  0  0
  -21.7120   -0.0190  -32.7800 O   0  0  0  0  0  0  0  0  0  0  0  0
  -20.6330    0.5780  -34.7120 N   0  0  0  0  0  0  0  0  0  0  0  0
  -19.7820    0.4720  -35.8800 C   0  0  0  0  0  2  0  0  0  0  0  0
  -20.5450    1.1620  -36.9200 C   0  0  2  0  0  3  0  0  0  0  0  0
  -21.6920    1.9000  -36.2260 C   0  0  1  0  0  3  0  0  0  0  0  0
  -21.1690    1.9120  -34.7750 C   0  0  0  0  0  2  0  0  0  0  0  0
  -20.3400   -1.7150  -33.6520 C   0  0  0  0  0  2  0  0  0  0  0  0
  -21.3370   -2.6940  -33.1120 C   0  0  0  0  0  2  0  0  0  0  0  0
  -21.0020   -3.1000  -31.7340 C   0  0  0  0  0  0  0  0  0  0  0  0
  -20.7220   -2.2530  -30.7060 N   0  0  0  0  0  0  0  0  0  0  0  0
  -20.4440   -2.9290  -29.5800 C   0  0  0  0  0  0  0  0  0  0  0  0
  -20.7090   -1.2030  -30.7310 H   0  0  0  0  0  0  0  0  0  0  0  0
  -20.1060   -2.5700  -28.2860 C   0  0  0  0  0  3  0  0  0  0  0  0
  -20.5520   -4.2610  -29.8980 C   0  0  0  0  0  0  0  0  0  0  0  0
  -19.8760   -3.5390  -27.3180 C   0  0  0  0  0  0  0  0  0  0  0  0
  -19.4480   -3.0650  -25.6920 Cl  0  0  0  0  0  0  0  0  0  0  0  0
  -19.9820   -4.8760  -27.6310 C   0  0  0  0  0  3  0  0  0  0  0  0
  -20.3230   -5.2180  -28.9320 C   0  0  0  0  0  3  0  0  0  0  0  0
  -20.8860   -4.3410  -31.1920 N   0  0  0  0  0  0  0  0  0  0  0  0
  -20.9880    0.4930  -38.0810 N   0  0  0  0  0  0  0  0  0  0  0  0
  -21.9950   -0.4100  -37.9390 C   0  0  0  0  0  3  0  0  0  0  0  0
  -22.4990   -1.1120  -39.0110 C   0  0  0  0  0  0  0  0  0  0  0  0
  -21.9880   -0.9110  -40.2720 C   0  0  0  0  0  0  0  0  0  0  0  0
  -23.6100   -2.1040  -38.8380 C   0  0  0  0  0  1  0  0  0  0  0  0
  -22.4340   -1.5440  -41.2760 O   0  0  0  0  0  0  0  0  0  0  0  0
  -20.9950   -0.0200  -40.4120 N   0  0  0  0  0  0  0  0  0  0  0  0
  -20.5470    0.6310  -39.3360 C   0  0  0  0  0  0  0  0  0  0  0  0
  -20.5800    0.1530  -41.3790 H   0  0  0  0  0  0  0  0  0  0  0  0
  -19.6250    1.4490  -39.5250 O   0  0  0  0  0  0  0  0  0  0  0  0
  -21.8720    3.1780  -36.6930 O   0  0  0  0  0  0  0  0  0  0  0  0
  -21.7650    3.8030  -35.9330 H   0  0  0  0  0  0  0  0  0  0  0  0
  1  8  1  0  0  0  0
  1  2  2  0  0  0  0
  3  1  1  0  0  0  0
  4  3  1  0  0  0  0
  5 21  1  6  0  0  0
  5  6  1  0  0  0  0
  5  4  1  0  0  0  0
  6 31  1  6  0  0  0
  6  7  1  0  0  0  0
  7  3  1  0  0  0  0
  8  9  1  0  0  0  0
  9 10  1  0  0  0  0
 10 20  2  0  0  0  0
 10 11  1  0  0  0  0
 11 12  1  0  0  0  0
 12 14  1  0  0  0  0
 13 11  1  0  0  0  0
 14 16  2  0  0  0  0
 15 12  2  0  0  0  0
 15 19  1  0  0  0  0
 16 17  1  0  0  0  0
 18 16  1  0  0  0  0
 19 18  2  0  0  0  0
 20 15  1  0  0  0  0
 21 22  1  0  0  0  0
 23 25  1  0  0  0  0
 23 22  2  0  0  0  0
 24 23  1  0  0  0  0
 26 24  2  0  0  0  0
 27 24  1  0  0  0  0
 27 28  1  0  0  0  0
 28 21  1  0  0  0  0
 29 27  1  0  0  0  0
 30 28  2  0  0  0  0
 31 32  1  0  0  0  0
M  END
>  <Pose>
1

>  <Score>
-9.299

$$$$
