MODEL 1
REMARK VINA RESULT:    -9.717      0.000      0.000
REMARK INTER + INTRA:         -13.049
REMARK INTER:                 -12.273
REMARK INTRA:                  -0.776
REMARK UNBOUND:                -0.776
REMARK  5 active torsions:
REMARK  status: ('A' for Active; 'I' for Inactive)
REMARK    1  A    between atoms: C_6  and  C_11 
REMARK    2  A    between atoms: C_11  and  C_12 
REMARK    3  A    between atoms: C_12  and  C_13 
REMARK       I    between atoms: C_13  and  N_15 
REMARK    4  A    between atoms: C_17  and  O_30 
REMARK    5  A    between atoms: C_18  and  N_21 
ROOT
ATOM      1  C   UNK d   1     -20.014   0.106 -32.922  0.00  0.00     0.220 C 
ATOM      2  O   UNK d   1     -18.802  -0.228 -32.868  0.00  0.00    -0.273 OA
ATOM      3  N   UNK d   1     -20.547   0.744 -34.082  0.00  0.00    -0.349 N 
ATOM      4  C   UNK d   1     -21.926   1.156 -34.214  0.00  0.00     0.165 C 
ATOM      5  C   UNK d   1     -22.415   0.936 -35.656  0.00  0.00     0.091 C 
ATOM      6  C   UNK d   1     -21.584  -0.166 -36.218  0.00  0.00     0.131 C 
ATOM      7  C   UNK d   1     -20.183   0.343 -36.466  0.00  0.00     0.049 C 
ATOM      8  C   UNK d   1     -19.668   1.001 -35.203  0.00  0.00     0.128 C 
ATOM      9  C   UNK d   1     -22.298   2.251 -36.360  0.00  0.00     0.050 C 
ENDROOT
BRANCH   1  10
ATOM     10  C   UNK d   1     -20.916  -0.151 -31.786  0.00  0.00     0.110 C 
BRANCH  10  11
ATOM     11  C   UNK d   1     -20.689  -1.543 -31.271  0.00  0.00     0.087 C 
BRANCH  11  12
ATOM     12  C   UNK d   1     -20.181  -1.464 -29.880  0.00  0.00     0.105 A 
ATOM     13  N   UNK d   1     -19.781  -0.317 -29.265  0.00  0.00    -0.343 N 
ATOM     14  C   UNK d   1     -19.363  -0.572 -28.019  0.00  0.00     0.064 A 
ATOM     15  H   UNK d   1     -19.810   0.628 -29.737  0.00  0.00     0.167 HD
ATOM     16  C   UNK d   1     -18.872   0.217 -27.007  0.00  0.00     0.055 A 
ATOM     17  C   UNK d   1     -19.502  -1.926 -27.837  0.00  0.00     0.085 A 
ATOM     18  C   UNK d   1     -18.502  -0.309 -25.781  0.00  0.00     0.036 A 
ATOM     19 Cl   UNK d   1     -17.877   0.686 -24.486  0.00  0.00    -0.084 Cl
ATOM     20  C   UNK d   1     -18.645  -1.673 -25.604  0.00  0.00     0.026 A 
ATOM     21  C   UNK d   1     -19.142  -2.474 -26.626  0.00  0.00     0.036 A 
ATOM     22  N   UNK d   1     -19.995  -2.416 -28.978  0.00  0.00    -0.233 NA
ENDBRANCH  11  12
ENDBRANCH  10  11
ENDBRANCH   1  10
BRANCH   5  23
ATOM     23  O   UNK d   1     -23.766   0.579 -35.534  0.00  0.00    -0.386 OA
ATOM     24  H   UNK d   1     -24.293   1.392 -35.247  0.00  0.00     0.210 HD
ENDBRANCH   5  23
BRANCH   6  25
ATOM     25  N   UNK d   1     -22.136  -0.865 -37.324  0.00  0.00    -0.301 N 
ATOM     26  C   UNK d   1     -21.910  -0.532 -38.603  0.00  0.00     0.108 A 
ATOM     27  C   UNK d   1     -22.469  -1.240 -39.660  0.00  0.00     0.022 A 
ATOM     28  C   UNK d   1     -23.279  -2.317 -39.389  0.00  0.00     0.256 A 
ATOM     29  C   UNK d   1     -22.178  -0.819 -41.074  0.00  0.00     0.056 C 
ATOM     30  O   UNK d   1     -23.792  -2.968 -40.352  0.00  0.00    -0.267 OA
ATOM     31  N   UNK d   1     -23.504  -2.648 -38.110  0.00  0.00    -0.275 N 
ATOM     32  C   UNK d   1     -22.939  -1.931 -37.122  0.00  0.00     0.329 A 
ATOM     33  H   UNK d   1     -24.115  -3.462 -37.891  0.00  0.00     0.173 HD
ATOM     34  O   UNK d   1     -23.157  -2.251 -35.900  0.00  0.00    -0.246 OA
ENDBRANCH   6  25
TORSDOF 5
ENDMDL
