/Users/jonathanwahrer/Desktop/Msc/3_Semester/Drug_Design_Praktikum/waehrer_HTS_screening/HTS_experiment/out/docking_results/vina_output/5l4q/1690_docked.pdbqt
 OpenBabel03212218583D

 34 37  0  0  1  0  0  0  0  0999 V2000
  -20.0140    0.1060  -32.9220 C   0  0  0  0  0  0  0  0  0  0  0  0
  -18.8020   -0.2280  -32.8680 O   0  0  0  0  0  0  0  0  0  0  0  0
  -20.5470    0.7440  -34.0820 N   0  0  0  0  0  0  0  0  0  0  0  0
  -21.9260    1.1560  -34.2140 C   0  0  0  0  0  2  0  0  0  0  0  0
  -22.4150    0.9360  -35.6560 C   0  0  2  0  0  0  0  0  0  0  0  0
  -21.5840   -0.1660  -36.2180 C   0  0  2  0  0  3  0  0  0  0  0  0
  -20.1830    0.3430  -36.4660 C   0  0  0  0  0  2  0  0  0  0  0  0
  -19.6680    1.0010  -35.2030 C   0  0  0  0  0  2  0  0  0  0  0  0
  -22.2980    2.2510  -36.3600 C   0  0  0  0  0  1  0  0  0  0  0  0
  -20.9160   -0.1510  -31.7860 C   0  0  0  0  0  2  0  0  0  0  0  0
  -20.6890   -1.5430  -31.2710 C   0  0  0  0  0  2  0  0  0  0  0  0
  -20.1810   -1.4640  -29.8800 C   0  0  0  0  0  0  0  0  0  0  0  0
  -19.7810   -0.3170  -29.2650 N   0  0  0  0  0  0  0  0  0  0  0  0
  -19.3630   -0.5720  -28.0190 C   0  0  0  0  0  0  0  0  0  0  0  0
  -19.8100    0.6280  -29.7370 H   0  0  0  0  0  0  0  0  0  0  0  0
  -18.8720    0.2170  -27.0070 C   0  0  0  0  0  3  0  0  0  0  0  0
  -19.5020   -1.9260  -27.8370 C   0  0  0  0  0  0  0  0  0  0  0  0
  -18.5020   -0.3090  -25.7810 C   0  0  0  0  0  0  0  0  0  0  0  0
  -17.8770    0.6860  -24.4860 Cl  0  0  0  0  0  0  0  0  0  0  0  0
  -18.6450   -1.6730  -25.6040 C   0  0  0  0  0  3  0  0  0  0  0  0
  -19.1420   -2.4740  -26.6260 C   0  0  0  0  0  3  0  0  0  0  0  0
  -19.9950   -2.4160  -28.9780 N   0  0  0  0  0  0  0  0  0  0  0  0
  -23.7660    0.5790  -35.5340 O   0  0  0  0  0  0  0  0  0  0  0  0
  -24.2930    1.3920  -35.2470 H   0  0  0  0  0  0  0  0  0  0  0  0
  -22.1360   -0.8650  -37.3240 N   0  0  0  0  0  0  0  0  0  0  0  0
  -21.9100   -0.5320  -38.6030 C   0  0  0  0  0  3  0  0  0  0  0  0
  -22.4690   -1.2400  -39.6600 C   0  0  0  0  0  0  0  0  0  0  0  0
  -23.2790   -2.3170  -39.3890 C   0  0  0  0  0  0  0  0  0  0  0  0
  -22.1780   -0.8190  -41.0740 C   0  0  0  0  0  1  0  0  0  0  0  0
  -23.7920   -2.9680  -40.3520 O   0  0  0  0  0  0  0  0  0  0  0  0
  -23.5040   -2.6480  -38.1100 N   0  0  0  0  0  0  0  0  0  0  0  0
  -22.9390   -1.9310  -37.1220 C   0  0  0  0  0  0  0  0  0  0  0  0
  -24.1150   -3.4620  -37.8910 H   0  0  0  0  0  0  0  0  0  0  0  0
  -23.1570   -2.2510  -35.9000 O   0  0  0  0  0  0  0  0  0  0  0  0
  1  2  2  0  0  0  0
  1 10  1  0  0  0  0
  3  1  1  0  0  0  0
  4  3  1  0  0  0  0
  5  9  1  6  0  0  0
  5 23  1  0  0  0  0
  5  4  1  0  0  0  0
  6 25  1  6  0  0  0
  6  5  1  0  0  0  0
  7  6  1  0  0  0  0
  7  8  1  0  0  0  0
  8  3  1  0  0  0  0
 10 11  1  0  0  0  0
 11 12  1  0  0  0  0
 12 13  1  0  0  0  0
 12 22  2  0  0  0  0
 13 14  1  0  0  0  0
 14 17  2  0  0  0  0
 14 16  1  0  0  0  0
 15 13  1  0  0  0  0
 16 18  2  0  0  0  0
 17 21  1  0  0  0  0
 18 20  1  0  0  0  0
 18 19  1  0  0  0  0
 21 20  2  0  0  0  0
 22 17  1  0  0  0  0
 23 24  1  0  0  0  0
 25 32  1  0  0  0  0
 26 25  1  0  0  0  0
 27 28  1  0  0  0  0
 27 26  2  0  0  0  0
 28 31  1  0  0  0  0
 29 27  1  0  0  0  0
 30 28  2  0  0  0  0
 31 33  1  0  0  0  0
 31 32  1  0  0  0  0
 32 34  2  0  0  0  0
M  END
>  <Pose>
1

>  <Score>
-9.717

$$$$
