MODEL 1
REMARK VINA RESULT:    -9.971      0.000      0.000
REMARK INTER + INTRA:         -12.872
REMARK INTER:                 -12.594
REMARK INTRA:                  -0.278
REMARK UNBOUND:                -0.278
REMARK  5 active torsions:
REMARK  status: ('A' for Active; 'I' for Inactive)
REMARK    1  A    between atoms: C_6  and  C_11 
REMARK    2  A    between atoms: C_11  and  C_12 
REMARK    3  A    between atoms: C_12  and  C_13 
REMARK       I    between atoms: C_13  and  N_15 
REMARK    4  A    between atoms: C_17  and  N_21 
REMARK    5  A    between atoms: C_18  and  O_20 
ROOT
ATOM      1  C   UNK d   1     -20.681   0.142 -32.970  0.00  0.00     0.220 C 
ATOM      2  O   UNK d   1     -21.736   0.351 -32.342  0.00  0.00    -0.273 OA
ATOM      3  N   UNK d   1     -20.508   0.676 -34.257  0.00  0.00    -0.348 N 
ATOM      4  C   UNK d   1     -21.363   1.472 -35.079  0.00  0.00     0.154 C 
ATOM      5  C   UNK d   1     -21.189   0.885 -36.500  0.00  0.00     0.140 C 
ATOM      6  C   UNK d   1     -19.752   0.506 -36.441  0.00  0.00     0.161 C 
ATOM      7  C   UNK d   1     -19.289   0.501 -35.023  0.00  0.00     0.159 C 
ENDROOT
BRANCH   1   8
ATOM      8  C   UNK d   1     -19.620  -0.668 -32.350  0.00  0.00     0.110 C 
BRANCH   8   9
ATOM      9  C   UNK d   1     -20.217  -1.842 -31.608  0.00  0.00     0.087 C 
BRANCH   9  10
ATOM     10  C   UNK d   1     -19.844  -1.743 -30.159  0.00  0.00     0.105 A 
ATOM     11  N   UNK d   1     -19.429  -0.617 -29.552  0.00  0.00    -0.343 N 
ATOM     12  C   UNK d   1     -19.169  -0.839 -28.253  0.00  0.00     0.064 A 
ATOM     13  H   UNK d   1     -19.314   0.329 -30.004  0.00  0.00     0.167 HD
ATOM     14  C   UNK d   1     -18.724  -0.024 -27.212  0.00  0.00     0.055 A 
ATOM     15  C   UNK d   1     -19.434  -2.174 -28.037  0.00  0.00     0.085 A 
ATOM     16  C   UNK d   1     -18.545  -0.552 -25.955  0.00  0.00     0.036 A 
ATOM     17 Cl   UNK d   1     -17.986   0.433 -24.609  0.00  0.00    -0.084 Cl
ATOM     18  C   UNK d   1     -18.810  -1.877 -25.745  0.00  0.00     0.026 A 
ATOM     19  C   UNK d   1     -19.256  -2.703 -26.776  0.00  0.00     0.036 A 
ATOM     20  N   UNK d   1     -19.841  -2.687 -29.217  0.00  0.00    -0.233 NA
ENDBRANCH   9  10
ENDBRANCH   8   9
ENDBRANCH   1   8
BRANCH   5  21
ATOM     21  N   UNK d   1     -22.090  -0.222 -36.652  0.00  0.00    -0.316 N 
ATOM     22  C   UNK d   1     -22.419  -0.874 -37.780  0.00  0.00     0.149 A 
ATOM     23  C   UNK d   1     -23.337  -1.894 -37.458  0.00  0.00     0.170 A 
ATOM     24  N   UNK d   1     -22.036  -0.712 -39.062  0.00  0.00    -0.287 N 
ATOM     25  N   UNK d   1     -23.528  -1.816 -36.132  0.00  0.00    -0.234 NA
ATOM     26  C   UNK d   1     -23.849  -2.727 -38.428  0.00  0.00     0.283 A 
ATOM     27  C   UNK d   1     -22.792  -0.825 -35.635  0.00  0.00     0.212 A 
ATOM     28  O   UNK d   1     -24.667  -3.630 -38.110  0.00  0.00    -0.265 OA
ATOM     29  N   UNK d   1     -23.443  -2.534 -39.689  0.00  0.00    -0.269 N 
ATOM     30  C   UNK d   1     -22.575  -1.566 -39.984  0.00  0.00     0.332 A 
ATOM     31  C   UNK d   1     -23.969  -3.404 -40.743  0.00  0.00     0.164 C 
ATOM     32  O   UNK d   1     -22.204  -1.398 -41.176  0.00  0.00    -0.246 OA
ATOM     33  C   UNK d   1     -21.111   0.305 -39.451  0.00  0.00     0.163 C 
ENDBRANCH   5  21
BRANCH   6  34
ATOM     34  O   UNK d   1     -18.920   1.384 -37.136  0.00  0.00    -0.392 OA
ATOM     35  H   UNK d   1     -18.009   1.425 -36.731  0.00  0.00     0.210 HD
ENDBRANCH   6  34
TORSDOF 5
ENDMDL
