MODEL 1
REMARK VINA RESULT:    -7.726      0.000      0.000
REMARK INTER + INTRA:         -11.057
REMARK INTER:                 -10.210
REMARK INTRA:                  -0.847
REMARK UNBOUND:                -0.847
REMARK  6 active torsions:
REMARK  status: ('A' for Active; 'I' for Inactive)
REMARK    1  A    between atoms: C_13  and  C_26 
REMARK    2  A    between atoms: N_18  and  C_21 
REMARK    3  A    between atoms: C_21  and  C_22 
REMARK    4  A    between atoms: C_22  and  C_23 
REMARK    5  A    between atoms: C_23  and  O_24 
REMARK    6  A    between atoms: C_26  and  O_27 
ROOT
ATOM      1 Cl   UNK d   1     -21.937  -0.804 -40.186  0.00  0.00    -0.084 Cl
ATOM      2  C   UNK d   1     -22.606  -0.384 -38.643  0.00  0.00     0.034 A 
ATOM      3  C   UNK d   1     -21.818  -0.379 -37.502  0.00  0.00     0.036 A 
ATOM      4  C   UNK d   1     -22.337  -0.047 -36.267  0.00  0.00     0.019 A 
ATOM      5  C   UNK d   1     -23.662   0.282 -36.195  0.00  0.00     0.044 A 
ATOM      6  C   UNK d   1     -24.489   0.290 -37.322  0.00  0.00     0.032 A 
ATOM      7  C   UNK d   1     -23.939  -0.047 -38.539  0.00  0.00     0.026 A 
ATOM      8  N   UNK d   1     -24.012   0.571 -34.848  0.00  0.00    -0.324 N 
ATOM      9  C   UNK d   1     -22.851   0.412 -34.047  0.00  0.00     0.267 A 
ATOM     10  O   UNK d   1     -22.891   0.578 -32.784  0.00  0.00    -0.270 OA
ATOM     11  C   UNK d   1     -21.750   0.057 -34.932  0.00  0.00     0.279 A 
ATOM     12  N   UNK d   1     -20.668   1.044 -34.888  0.00  0.00     0.116 N 
ATOM     13  C   UNK d   1     -20.043   0.716 -33.627  0.00  0.00     0.264 C 
ATOM     14  C   UNK d   1     -20.047  -0.776 -33.532  0.00  0.00     0.130 C 
ATOM     15  C   UNK d   1     -21.015  -1.192 -34.598  0.00  0.00     0.147 C 
ATOM     16  C   UNK d   1     -21.859  -2.280 -34.045  0.00  0.00     0.234 C 
ATOM     17  O   UNK d   1     -22.677  -2.905 -34.768  0.00  0.00    -0.272 OA
ATOM     18  N   UNK d   1     -21.543  -2.412 -32.668  0.00  0.00    -0.287 N 
ATOM     19  C   UNK d   1     -20.742  -1.281 -32.305  0.00  0.00     0.233 C 
ATOM     20  O   UNK d   1     -20.612  -0.772 -31.187  0.00  0.00    -0.272 OA
ATOM     21  H   UNK d   1     -24.972   0.860 -34.496  0.00  0.00     0.169 HD
ATOM     22  H   UNK d   1     -20.010   0.765 -35.650  0.00  0.00     0.318 HD
ENDROOT
BRANCH  13  23
ATOM     23  C   UNK d   1     -18.665   1.313 -33.494  0.00  0.00     0.148 C 
ATOM     24  C   UNK d   1     -18.243   2.076 -34.723  0.00  0.00     0.041 C 
BRANCH  23  25
ATOM     25  O   UNK d   1     -17.776   0.275 -33.245  0.00  0.00    -0.394 OA
ATOM     26  H   UNK d   1     -18.231  -0.597 -33.125  0.00  0.00     0.210 HD
ENDBRANCH  23  25
ENDBRANCH  13  23
BRANCH  18  27
ATOM     27  C   UNK d   1     -21.934  -3.464 -31.808  0.00  0.00     0.137 C 
BRANCH  27  28
ATOM     28  C   UNK d   1     -20.926  -4.454 -31.373  0.00  0.00     0.046 C 
BRANCH  28  29
ATOM     29  C   UNK d   1     -20.442  -4.381 -29.976  0.00  0.00     0.168 C 
BRANCH  29  30
ATOM     30  O   UNK d   1     -21.213  -3.631 -29.101  0.00  0.00    -0.396 OA
ATOM     31  C   UNK d   1     -20.333  -3.046 -28.159  0.00  0.00     0.201 C 
ENDBRANCH  29  30
ENDBRANCH  28  29
ENDBRANCH  27  28
ENDBRANCH  18  27
TORSDOF 6
ENDMDL
