MODEL 1
REMARK VINA RESULT:    -8.101      0.000      0.000
REMARK INTER + INTRA:          -8.101
REMARK INTER:                  -8.101
REMARK INTRA:                   0.000
REMARK UNBOUND:                 0.000
REMARK  0 active torsions:
REMARK  status: ('A' for Active; 'I' for Inactive)
ROOT
ATOM      1  F   UNK d   1     -21.515  -4.119 -31.045  0.00  0.00    -0.202 F 
ATOM      2  C   UNK d   1     -21.097  -2.870 -31.440  0.00  0.00     0.165 A 
ATOM      3  C   UNK d   1     -21.501  -2.393 -32.694  0.00  0.00     0.086 A 
ATOM      4  C   UNK d   1     -21.098  -1.159 -33.104  0.00  0.00     0.030 A 
ATOM      5  C   UNK d   1     -20.286  -0.370 -32.277  0.00  0.00     0.016 A 
ATOM      6  C   UNK d   1     -19.907  -0.860 -31.058  0.00  0.00     0.028 A 
ATOM      7  C   UNK d   1     -20.301  -2.103 -30.625  0.00  0.00     0.074 A 
ATOM      8 Cl   UNK d   1     -19.808  -2.731 -29.046  0.00  0.00    -0.081 Cl
ATOM      9  C   UNK d   1     -21.660  -0.901 -34.455  0.00  0.00     0.222 A 
ATOM     10  N   UNK d   1     -20.593  -0.661 -35.374  0.00  0.00    -0.336 N 
ATOM     11  C   UNK d   1     -20.059   0.633 -35.550  0.00  0.00     0.141 A 
ATOM     12  N   UNK d   1     -18.856   0.842 -36.145  0.00  0.00    -0.243 NA
ATOM     13  C   UNK d   1     -18.306   2.046 -36.335  0.00  0.00     0.119 A 
ATOM     14  C   UNK d   1     -18.990   3.178 -35.907  0.00  0.00     0.020 A 
ATOM     15  C   UNK d   1     -20.208   3.055 -35.298  0.00  0.00     0.022 A 
ATOM     16  C   UNK d   1     -20.714   1.784 -35.134  0.00  0.00     0.077 A 
ATOM     17  C   UNK d   1     -22.011   1.544 -34.494  0.00  0.00     0.258 C 
ATOM     18  O   UNK d   1     -22.650   2.576 -34.094  0.00  0.00    -0.267 OA
ATOM     19  N   UNK d   1     -22.536   0.250 -34.323  0.00  0.00    -0.318 N 
ATOM     20  C   UNK d   1     -22.422  -2.114 -34.774  0.00  0.00     0.277 A 
ATOM     21  O   UNK d   1     -23.087  -2.354 -35.848  0.00  0.00    -0.268 OA
ATOM     22  N   UNK d   1     -22.318  -3.010 -33.698  0.00  0.00    -0.320 N 
ATOM     23  H   UNK d   1     -20.177  -1.439 -35.942  0.00  0.00     0.164 HD
ATOM     24  H   UNK d   1     -23.555   0.169 -34.102  0.00  0.00     0.166 HD
ATOM     25  H   UNK d   1     -22.738  -3.971 -33.587  0.00  0.00     0.169 HD
ENDROOT
TORSDOF 0
ENDMDL
