/Users/jonathanwahrer/Desktop/Msc/3_Semester/Drug_Design_Praktikum/waehrer_HTS_screening/HTS_experiment/out/docking_results/vina_output/5l4q/1706_docked.pdbqt
 OpenBabel03212218593D

 25 28  0  0  1  0  0  0  0  0999 V2000
  -21.5150   -4.1190  -31.0450 F   0  0  0  0  0  0  0  0  0  0  0  0
  -21.0970   -2.8700  -31.4400 C   0  0  0  0  0  0  0  0  0  0  0  0
  -21.5010   -2.3930  -32.6940 C   0  0  0  0  0  0  0  0  0  0  0  0
  -21.0980   -1.1590  -33.1040 C   0  0  0  0  0  0  0  0  0  0  0  0
  -20.2860   -0.3700  -32.2770 C   0  0  0  0  0  3  0  0  0  0  0  0
  -19.9070   -0.8600  -31.0580 C   0  0  0  0  0  3  0  0  0  0  0  0
  -20.3010   -2.1030  -30.6250 C   0  0  0  0  0  0  0  0  0  0  0  0
  -19.8080   -2.7310  -29.0460 Cl  0  0  0  0  0  0  0  0  0  0  0  0
  -21.6600   -0.9010  -34.4550 C   0  0  2  0  0  0  0  0  0  0  0  0
  -20.5930   -0.6610  -35.3740 N   0  0  0  0  0  0  0  0  0  0  0  0
  -20.0590    0.6330  -35.5500 C   0  0  0  0  0  0  0  0  0  0  0  0
  -18.8560    0.8420  -36.1450 N   0  0  0  0  0  0  0  0  0  0  0  0
  -18.3060    2.0460  -36.3350 C   0  0  0  0  0  3  0  0  0  0  0  0
  -18.9900    3.1780  -35.9070 C   0  0  0  0  0  3  0  0  0  0  0  0
  -20.2080    3.0550  -35.2980 C   0  0  0  0  0  3  0  0  0  0  0  0
  -20.7140    1.7840  -35.1340 C   0  0  0  0  0  0  0  0  0  0  0  0
  -22.0110    1.5440  -34.4940 C   0  0  0  0  0  0  0  0  0  0  0  0
  -22.6500    2.5760  -34.0940 O   0  0  0  0  0  0  0  0  0  0  0  0
  -22.5360    0.2500  -34.3230 N   0  0  0  0  0  0  0  0  0  0  0  0
  -22.4220   -2.1140  -34.7740 C   0  0  0  0  0  0  0  0  0  0  0  0
  -23.0870   -2.3540  -35.8480 O   0  0  0  0  0  0  0  0  0  0  0  0
  -22.3180   -3.0100  -33.6980 N   0  0  0  0  0  0  0  0  0  0  0  0
  -20.1770   -1.4390  -35.9420 H   0  0  0  0  0  0  0  0  0  0  0  0
  -23.5550    0.1690  -34.1020 H   0  0  0  0  0  0  0  0  0  0  0  0
  -22.7380   -3.9710  -33.5870 H   0  0  0  0  0  0  0  0  0  0  0  0
  2  1  1  0  0  0  0
  2  7  1  0  0  0  0
  3  2  2  0  0  0  0
  4  3  1  0  0  0  0
  4  5  2  0  0  0  0
  5  6  1  0  0  0  0
  6  7  2  0  0  0  0
  7  8  1  0  0  0  0
  9 20  1  6  0  0  0
  9 19  1  0  0  0  0
  9  4  1  0  0  0  0
 10  9  1  0  0  0  0
 11 10  1  0  0  0  0
 11 16  1  0  0  0  0
 12 11  2  0  0  0  0
 13 12  1  0  0  0  0
 13 14  2  0  0  0  0
 14 15  1  0  0  0  0
 15 16  2  0  0  0  0
 16 17  1  0  0  0  0
 17 19  1  0  0  0  0
 17 18  2  0  0  0  0
 19 24  1  0  0  0  0
 20 22  1  0  0  0  0
 21 20  2  0  0  0  0
 22 25  1  0  0  0  0
 22  3  1  0  0  0  0
 23 10  1  0  0  0  0
M  END
>  <Pose>
1

>  <Score>
-8.101

$$$$
