/Users/jonathanwahrer/Desktop/Msc/3_Semester/Drug_Design_Praktikum/waehrer_HTS_screening/HTS_experiment/out/docking_results/vina_output/5l4q/1711_docked.pdbqt
 OpenBabel03212218593D

 30 33  0  0  0  0  0  0  0  0999 V2000
  -20.0660    1.1080  -33.6930 N   0  0  0  0  0  0  0  0  0  0  0  0
  -18.8330    1.0420  -34.3960 C   0  0  0  0  0  2  0  0  0  0  0  0
  -18.7840    1.9460  -35.6020 C   0  0  0  0  0  2  0  0  0  0  0  0
  -20.0690    2.0970  -36.2320 N   0  0  0  0  0  0  0  0  0  0  0  0
  -21.2160    2.4370  -35.4240 C   0  0  0  0  0  2  0  0  0  0  0  0
  -20.8590    2.2460  -33.9830 C   0  0  0  0  0  2  0  0  0  0  0  0
  -20.2540    1.9230  -37.6260 C   0  0  0  0  0  0  0  0  0  0  0  0
  -19.2700    1.6290  -38.3310 O   0  0  0  0  0  0  0  0  0  0  0  0
  -21.5790    2.0800  -38.2660 C   0  0  0  0  0  2  0  0  0  0  0  0
  -22.1920    0.8070  -38.5110 N   0  0  0  0  0  0  0  0  0  0  0  0
  -21.9750   -0.1170  -39.5690 C   0  0  0  0  0  0  0  0  0  0  0  0
  -21.1600    0.0610  -40.5010 O   0  0  0  0  0  0  0  0  0  0  0  0
  -22.8460   -1.2620  -39.3640 C   0  0  0  0  0  0  0  0  0  0  0  0
  -23.5840   -1.0650  -38.2210 C   0  0  0  0  0  0  0  0  0  0  0  0
  -23.0310   -2.4180  -40.0800 C   0  0  0  0  0  3  0  0  0  0  0  0
  -24.4940   -2.0350  -37.8210 C   0  0  0  0  0  3  0  0  0  0  0  0
  -23.1920    0.2250  -37.6680 C   0  0  0  0  0  0  0  0  0  0  0  0
  -24.6760   -3.1860  -38.5370 C   0  0  0  0  0  3  0  0  0  0  0  0
  -23.9340   -3.3990  -39.6980 C   0  0  0  0  0  3  0  0  0  0  0  0
  -23.6970    0.6890  -36.6120 O   0  0  0  0  0  0  0  0  0  0  0  0
  -20.8610   -0.3460  -33.4220 S   0  0  0  0  0  0  0  0  0  0  0  0
  -22.3430   -0.1490  -33.7100 O   0  0  0  0  0  0  0  0  0  0  0  0
  -20.3900   -1.3510  -34.4560 O   0  0  0  0  0  0  0  0  0  0  0  0
  -20.6290   -1.0500  -31.8680 C   0  0  0  0  0  0  0  0  0  0  0  0
  -20.3220   -0.2430  -30.7850 C   0  0  0  0  0  3  0  0  0  0  0  0
  -20.1270   -0.7550  -29.5180 C   0  0  0  0  0  3  0  0  0  0  0  0
  -20.2470   -2.1220  -29.3470 C   0  0  0  0  0  0  0  0  0  0  0  0
  -20.5520   -2.9140  -30.4350 C   0  0  0  0  0  3  0  0  0  0  0  0
  -19.9880   -2.9030  -27.6050 Br  0  0  0  0  0  0  0  0  0  0  0  0
  -20.7510   -2.4160  -31.7060 C   0  0  0  0  0  3  0  0  0  0  0  0
  1 21  1  0  0  0  0
  2  1  1  0  0  0  0
  3  2  1  0  0  0  0
  4  3  1  0  0  0  0
  4  5  1  0  0  0  0
  5  6  1  0  0  0  0
  6  1  1  0  0  0  0
  7  4  1  0  0  0  0
  8  7  2  0  0  0  0
  9  7  1  0  0  0  0
 10  9  1  0  0  0  0
 10 17  1  0  0  0  0
 11 13  1  0  0  0  0
 11 10  1  0  0  0  0
 12 11  2  0  0  0  0
 13 14  1  0  0  0  0
 14 16  2  0  0  0  0
 14 17  1  0  0  0  0
 15 19  1  0  0  0  0
 15 13  2  0  0  0  0
 17 20  2  0  0  0  0
 18 16  1  0  0  0  0
 19 18  2  0  0  0  0
 21 24  1  0  0  0  0
 22 21  2  0  0  0  0
 23 21  2  0  0  0  0
 24 30  2  0  0  0  0
 24 25  1  0  0  0  0
 25 26  2  0  0  0  0
 26 27  1  0  0  0  0
 27 29  1  0  0  0  0
 28 27  2  0  0  0  0
 30 28  1  0  0  0  0
M  END
>  <Pose>
1

>  <Score>
-9.080

$$$$
