MODEL 1
REMARK VINA RESULT:    -7.983      0.000      0.000
REMARK INTER + INTRA:         -10.645
REMARK INTER:                  -9.850
REMARK INTRA:                  -0.796
REMARK UNBOUND:                -0.796
REMARK  4 active torsions:
REMARK  status: ('A' for Active; 'I' for Inactive)
REMARK    1  A    between atoms: C_10  and  C_24 
REMARK    2  A    between atoms: N_15  and  C_18 
REMARK    3  A    between atoms: C_18  and  C_19 
REMARK    4  A    between atoms: C_24  and  C_25 
REMARK       I    between atoms: C_25  and  N_27 
ROOT
ATOM      1 Cl   UNK d   1     -17.357   4.604 -37.220  0.00  0.00    -0.082 Cl
ATOM      2  C   UNK d   1     -17.914   4.048 -35.658  0.00  0.00     0.061 A 
ATOM      3  C   UNK d   1     -18.527   2.795 -35.610  0.00  0.00     0.066 A 
ATOM      4  C   UNK d   1     -18.979   2.321 -34.398  0.00  0.00     0.019 A 
ATOM      5  C   UNK d   1     -18.799   3.126 -33.272  0.00  0.00     0.013 A 
ATOM      6  C   UNK d   1     -18.193   4.362 -33.329  0.00  0.00     0.002 A 
ATOM      7  C   UNK d   1     -17.740   4.836 -34.543  0.00  0.00     0.026 A 
ATOM      8  C   UNK d   1     -19.590   1.001 -34.552  0.00  0.00     0.279 A 
ATOM      9  N   UNK d   1     -18.971  -0.009 -33.714  0.00  0.00     0.114 N 
ATOM     10  C   UNK d   1     -19.971  -1.060 -33.582  0.00  0.00     0.245 C 
ATOM     11  C   UNK d   1     -21.309  -0.373 -33.596  0.00  0.00     0.128 C 
ATOM     12  C   UNK d   1     -21.061   0.986 -34.203  0.00  0.00     0.147 C 
ATOM     13  C   UNK d   1     -21.913   1.050 -35.417  0.00  0.00     0.235 C 
ATOM     14  O   UNK d   1     -21.835   2.013 -36.229  0.00  0.00    -0.272 OA
ATOM     15  N   UNK d   1     -22.753  -0.091 -35.468  0.00  0.00    -0.285 N 
ATOM     16  C   UNK d   1     -22.192  -1.063 -34.598  0.00  0.00     0.233 C 
ATOM     17  O   UNK d   1     -22.361  -2.315 -34.606  0.00  0.00    -0.272 OA
ATOM     18  C   UNK d   1     -19.463   0.697 -35.986  0.00  0.00     0.267 A 
ATOM     19  O   UNK d   1     -19.852  -0.365 -36.596  0.00  0.00    -0.270 OA
ATOM     20  N   UNK d   1     -18.819   1.806 -36.589  0.00  0.00    -0.323 N 
ATOM     21  H   UNK d   1     -18.692   0.373 -32.782  0.00  0.00     0.318 HD
ATOM     22  H   UNK d   1     -18.584   1.897 -37.614  0.00  0.00     0.169 HD
ENDROOT
BRANCH  10  23
ATOM     23  C   UNK d   1     -19.726  -1.809 -32.305  0.00  0.00     0.139 C 
BRANCH  23  24
ATOM     24  C   UNK d   1     -19.511  -0.787 -31.231  0.00  0.00     0.217 C 
ATOM     25  O   UNK d   1     -18.326  -0.411 -31.040  0.00  0.00    -0.274 OA
ATOM     26  N   UNK d   1     -20.575  -0.258 -30.457  0.00  0.00    -0.370 N 
ATOM     27  H   UNK d   1     -21.216   0.423 -30.908  0.00  0.00     0.159 HD
ATOM     28  H   UNK d   1     -20.755  -0.509 -29.465  0.00  0.00     0.159 HD
ENDBRANCH  23  24
ENDBRANCH  10  23
BRANCH  15  29
ATOM     29  C   UNK d   1     -23.934  -0.233 -36.238  0.00  0.00     0.166 C 
BRANCH  29  30
ATOM     30  C   UNK d   1     -23.840  -1.012 -37.489  0.00  0.00     0.140 C 
ATOM     31  O   UNK d   1     -23.874  -2.390 -37.333  0.00  0.00    -0.384 OA
ATOM     32  C   UNK d   1     -23.880  -2.809 -38.664  0.00  0.00     0.168 C 
ATOM     33  C   UNK d   1     -22.805  -1.955 -39.347  0.00  0.00     0.029 C 
ATOM     34  C   UNK d   1     -22.641  -0.805 -38.339  0.00  0.00     0.035 C 
ENDBRANCH  29  30
ENDBRANCH  15  29
TORSDOF 4
ENDMDL
