/Users/jonathanwahrer/Desktop/Msc/3_Semester/Drug_Design_Praktikum/waehrer_HTS_screening/HTS_experiment/out/docking_results/vina_output/5l4q/1718_docked.pdbqt
 OpenBabel03212219003D

 34 38  0  0  1  0  0  0  0  0999 V2000
  -17.3570    4.6040  -37.2200 Cl  0  0  0  0  0  0  0  0  0  0  0  0
  -17.9140    4.0480  -35.6580 C   0  0  0  0  0  0  0  0  0  0  0  0
  -18.5270    2.7950  -35.6100 C   0  0  0  0  0  0  0  0  0  0  0  0
  -18.9790    2.3210  -34.3980 C   0  0  0  0  0  0  0  0  0  0  0  0
  -18.7990    3.1260  -33.2720 C   0  0  0  0  0  3  0  0  0  0  0  0
  -18.1930    4.3620  -33.3290 C   0  0  0  0  0  3  0  0  0  0  0  0
  -17.7400    4.8360  -34.5430 C   0  0  0  0  0  3  0  0  0  0  0  0
  -19.5900    1.0010  -34.5520 C   0  0  1  0  0  0  0  0  0  0  0  0
  -18.9710   -0.0090  -33.7140 N   0  0  0  0  0  0  0  0  0  0  0  0
  -19.9710   -1.0600  -33.5820 C   0  0  2  0  0  3  0  0  0  0  0  0
  -21.3090   -0.3730  -33.5960 C   0  0  1  0  0  3  0  0  0  0  0  0
  -21.0610    0.9860  -34.2030 C   0  0  2  0  0  3  0  0  0  0  0  0
  -21.9130    1.0500  -35.4170 C   0  0  0  0  0  0  0  0  0  0  0  0
  -21.8350    2.0130  -36.2290 O   0  0  0  0  0  0  0  0  0  0  0  0
  -22.7530   -0.0910  -35.4680 N   0  0  0  0  0  0  0  0  0  0  0  0
  -22.1920   -1.0630  -34.5980 C   0  0  0  0  0  0  0  0  0  0  0  0
  -22.3610   -2.3150  -34.6060 O   0  0  0  0  0  0  0  0  0  0  0  0
  -19.4630    0.6970  -35.9860 C   0  0  0  0  0  0  0  0  0  0  0  0
  -19.8520   -0.3650  -36.5960 O   0  0  0  0  0  0  0  0  0  0  0  0
  -18.8190    1.8060  -36.5890 N   0  0  0  0  0  0  0  0  0  0  0  0
  -18.6920    0.3730  -32.7820 H   0  0  0  0  0  0  0  0  0  0  0  0
  -18.5840    1.8970  -37.6140 H   0  0  0  0  0  0  0  0  0  0  0  0
  -19.7260   -1.8090  -32.3050 C   0  0  0  0  0  2  0  0  0  0  0  0
  -19.5110   -0.7870  -31.2310 C   0  0  0  0  0  0  0  0  0  0  0  0
  -18.3260   -0.4110  -31.0400 O   0  0  0  0  0  0  0  0  0  0  0  0
  -20.5750   -0.2580  -30.4570 N   0  0  0  0  0  0  0  0  0  0  0  0
  -21.2160    0.4230  -30.9080 H   0  0  0  0  0  0  0  0  0  0  0  0
  -20.7550   -0.5090  -29.4650 H   0  0  0  0  0  0  0  0  0  0  0  0
  -23.9340   -0.2330  -36.2380 C   0  0  0  0  0  2  0  0  0  0  0  0
  -23.8400   -1.0120  -37.4890 C   0  0  2  0  0  3  0  0  0  0  0  0
  -23.8740   -2.3900  -37.3330 O   0  0  0  0  0  0  0  0  0  0  0  0
  -23.8800   -2.8090  -38.6640 C   0  0  0  0  0  2  0  0  0  0  0  0
  -22.8050   -1.9550  -39.3470 C   0  0  0  0  0  2  0  0  0  0  0  0
  -22.6410   -0.8050  -38.3390 C   0  0  0  0  0  2  0  0  0  0  0  0
  1  2  1  0  0  0  0
  2  3  2  0  0  0  0
  2  7  1  0  0  0  0
  3  4  1  0  0  0  0
  4  5  2  0  0  0  0
  6  5  1  0  0  0  0
  7  6  2  0  0  0  0
  8 18  1  6  0  0  0
  8  4  1  0  0  0  0
  8 12  1  0  0  0  0
  8  9  1  0  0  0  0
  9 10  1  0  0  0  0
  9 21  1  0  0  0  0
 10 23  1  1  0  0  0
 11 16  1  6  0  0  0
 11 10  1  0  0  0  0
 12 13  1  6  0  0  0
 12 11  1  0  0  0  0
 14 13  2  0  0  0  0
 15 13  1  0  0  0  0
 15 16  1  0  0  0  0
 17 16  2  0  0  0  0
 19 18  2  0  0  0  0
 20 18  1  0  0  0  0
 20  3  1  0  0  0  0
 22 20  1  0  0  0  0
 23 24  1  0  0  0  0
 24 25  2  0  0  0  0
 24 26  1  0  0  0  0
 26 28  1  0  0  0  0
 27 26  1  0  0  0  0
 29 15  1  0  0  0  0
 30 31  1  0  0  0  0
 30 29  1  1  0  0  0
 32 31  1  0  0  0  0
 33 32  1  0  0  0  0
 33 34  1  0  0  0  0
 34 30  1  0  0  0  0
M  END
>  <Pose>
1

>  <Score>
-7.983

$$$$
