MODEL 1
REMARK VINA RESULT:    -9.023      0.000      0.000
REMARK INTER + INTRA:         -12.447
REMARK INTER:                 -11.924
REMARK INTRA:                  -0.522
REMARK UNBOUND:                -0.522
REMARK  6 active torsions:
REMARK  status: ('A' for Active; 'I' for Inactive)
REMARK    1  A    between atoms: C_3  and  O_10 
REMARK    2  A    between atoms: O_10  and  C_11 
REMARK    3  A    between atoms: C_11  and  C_12 
REMARK    4  A    between atoms: C_12  and  O_13 
REMARK    5  A    between atoms: C_12  and  C_14 
REMARK    6  A    between atoms: C_14  and  N_15 
ROOT
ATOM      1  N   UNK d   1     -21.331  -0.482 -33.609  0.00  0.00    -0.068 N 
ATOM      2  C   UNK d   1     -22.161   0.653 -33.382  0.00  0.00     0.241 C 
ATOM      3  C   UNK d   1     -23.283   0.830 -34.355  0.00  0.00     0.031 C 
ATOM      4  C   UNK d   1     -22.863   1.285 -35.708  0.00  0.00     0.138 C 
ATOM      5  N   UNK d   1     -23.058   0.326 -36.759  0.00  0.00    -0.317 N 
ATOM      6  C   UNK d   1     -23.153  -1.004 -36.572  0.00  0.00     0.020 A 
ATOM      7  C   UNK d   1     -23.338  -1.916 -37.570  0.00  0.00     0.026 A 
ATOM      8  C   UNK d   1     -23.439  -1.463 -38.870  0.00  0.00     0.007 A 
ATOM      9  C   UNK d   1     -23.343  -0.106 -39.069  0.00  0.00     0.074 A 
ATOM     10  C   UNK d   1     -23.156   0.784 -38.040  0.00  0.00     0.247 A 
ATOM     11  O   UNK d   1     -23.073   2.020 -38.261  0.00  0.00    -0.268 OA
ATOM     12  C   UNK d   1     -23.034  -1.434 -35.127  0.00  0.00     0.062 C 
ATOM     13  C   UNK d   1     -21.617  -1.272 -34.744  0.00  0.00     0.245 C 
ATOM     14  C   UNK d   1     -23.995  -0.528 -34.397  0.00  0.00     0.020 C 
ATOM     15  H   UNK d   1     -21.412  -1.109 -32.751  0.00  0.00     0.280 HD
ENDROOT
BRANCH   1  16
ATOM     16  C   UNK d   1     -19.957  -0.018 -33.602  0.00  0.00     0.268 C 
BRANCH  16  17
ATOM     17  C   UNK d   1     -19.276  -0.159 -32.279  0.00  0.00     0.168 C 
BRANCH  17  18
ATOM     18  C   UNK d   1     -19.607  -1.560 -31.764  0.00  0.00     0.209 C 
BRANCH  18  19
ATOM     19  O   UNK d   1     -20.389  -1.391 -30.618  0.00  0.00    -0.346 OA
BRANCH  19  20
ATOM     20  C   UNK d   1     -20.153  -1.866 -29.372  0.00  0.00     0.103 A 
ATOM     21  C   UNK d   1     -19.763  -1.013 -28.364  0.00  0.00     0.046 A 
ATOM     22 Br   UNK d   1     -19.568   0.838 -28.768  0.00  0.00    -0.048 Br
ATOM     23  C   UNK d   1     -19.510  -1.464 -27.070  0.00  0.00     0.028 A 
ATOM     24  C   UNK d   1     -19.649  -2.790 -26.781  0.00  0.00    -0.059 A 
ATOM     25  C   UNK d   1     -20.039  -3.672 -27.770  0.00  0.00     0.028 A 
ATOM     26  C   UNK d   1     -19.375  -3.267 -25.389  0.00  0.00     0.048 C 
ATOM     27  C   UNK d   1     -20.289  -3.202 -29.063  0.00  0.00     0.046 A 
ATOM     28 Br   UNK d   1     -20.826  -4.408 -30.434  0.00  0.00    -0.048 Br
ENDBRANCH  19  20
ENDBRANCH  18  19
ENDBRANCH  17  18
BRANCH  17  29
ATOM     29  O   UNK d   1     -17.902   0.013 -32.433  0.00  0.00    -0.392 OA
ATOM     30  H   UNK d   1     -17.646  -0.532 -33.231  0.00  0.00     0.210 HD
ENDBRANCH  17  29
ENDBRANCH  16  17
ENDBRANCH   1  16
TORSDOF 6
ENDMDL
