MODEL 1
REMARK VINA RESULT:    -8.804      0.000      0.000
REMARK INTER + INTRA:         -12.578
REMARK INTER:                 -11.377
REMARK INTRA:                  -1.201
REMARK UNBOUND:                -1.201
REMARK  5 active torsions:
REMARK  status: ('A' for Active; 'I' for Inactive)
REMARK    1  A    between atoms: C_3  and  N_8 
REMARK       I    between atoms: N_8  and  C_9 
REMARK    2  A    between atoms: C_9  and  C_11 
REMARK    3  A    between atoms: C_11  and  N_12 
REMARK    4  A    between atoms: C_15  and  C_17 
REMARK    5  A    between atoms: C_18  and  N_23 
ROOT
ATOM      1  N   UNK d   1     -19.580   1.024 -33.087  0.00  0.00    -0.182 N 
ATOM      2  N   UNK d   1     -18.325   0.648 -32.902  0.00  0.00     0.025 NA
ATOM      3  N   UNK d   1     -18.279  -0.366 -32.045  0.00  0.00    -0.136 NA
ATOM      4  C   UNK d   1     -19.542  -0.653 -31.666  0.00  0.00     0.200 A 
ATOM      5  N   UNK d   1     -20.312   0.224 -32.330  0.00  0.00    -0.136 NA
ENDROOT
BRANCH   1   6
ATOM      6  C   UNK d   1     -20.064   2.107 -33.958  0.00  0.00     0.272 C 
BRANCH   6   7
ATOM      7  C   UNK d   1     -21.221   1.649 -34.771  0.00  0.00     0.243 C 
ATOM      8  N   UNK d   1     -21.120   0.557 -35.634  0.00  0.00    -0.324 N 
ATOM      9  H   UNK d   1     -20.168   0.084 -35.666  0.00  0.00     0.169 HD
ATOM     10  O   UNK d   1     -22.282   2.287 -34.645  0.00  0.00    -0.271 OA
BRANCH   8  11
ATOM     11  C   UNK d   1     -22.109  -0.003 -36.470  0.00  0.00     0.052 A 
ATOM     12  C   UNK d   1     -22.788  -1.161 -36.088  0.00  0.00     0.037 A 
ATOM     13 Br   UNK d   1     -22.341  -1.950 -34.426  0.00  0.00    -0.049 Br
ATOM     14  C   UNK d   1     -23.761  -1.762 -36.849  0.00  0.00     0.021 A 
ATOM     15  C   UNK d   1     -24.104  -1.209 -38.062  0.00  0.00     0.002 A 
ATOM     16  C   UNK d   1     -23.472  -0.069 -38.492  0.00  0.00     0.002 A 
ATOM     17  C   UNK d   1     -22.487   0.517 -37.694  0.00  0.00     0.031 A 
ENDBRANCH   8  11
ENDBRANCH   6   7
ENDBRANCH   1   6
BRANCH   4  18
ATOM     18  C   UNK d   1     -19.964  -1.692 -30.738  0.00  0.00     0.044 A 
ATOM     19  C   UNK d   1     -19.829  -1.451 -29.391  0.00  0.00     0.075 A 
ATOM     20  C   UNK d   1     -20.230  -2.440 -28.509  0.00  0.00     0.032 A 
ATOM     21  C   UNK d   1     -20.750  -3.635 -28.938  0.00  0.00     0.002 A 
ATOM     22  C   UNK d   1     -20.886  -3.880 -30.290  0.00  0.00     0.001 A 
ATOM     23  C   UNK d   1     -20.485  -2.890 -31.169  0.00  0.00     0.018 A 
BRANCH  19  24
ATOM     24  N   UNK d   1     -19.297  -0.234 -28.869  0.00  0.00    -0.205 N 
ATOM     25  N   UNK d   1     -18.046  -0.088 -28.451  0.00  0.00    -0.040 NA
ATOM     26  N   UNK d   1     -17.880   1.147 -28.033  0.00  0.00    -0.023 NA
ATOM     27  N   UNK d   1     -19.034   1.791 -28.185  0.00  0.00    -0.122 NA
ATOM     28  C   UNK d   1     -19.924   0.923 -28.710  0.00  0.00     0.262 A 
ENDBRANCH  19  24
ENDBRANCH   4  18
TORSDOF 5
ENDMDL
