/Users/jonathanwahrer/Desktop/Msc/3_Semester/Drug_Design_Praktikum/waehrer_HTS_screening/HTS_experiment/out/docking_results/vina_output/5l4q/1736_docked.pdbqt
 OpenBabel03212219013D

 35 39  0  0  1  0  0  0  0  0999 V2000
  -18.1090    1.7580  -36.2460 Cl  0  0  0  0  0  0  0  0  0  0  0  0
  -19.5270    2.4430  -37.0560 C   0  0  0  0  0  0  0  0  0  0  0  0
  -20.5590    1.6390  -37.4720 C   0  0  0  0  0  3  0  0  0  0  0  0
  -21.6510    2.1770  -38.0970 C   0  0  0  0  0  0  0  0  0  0  0  0
  -21.7060    3.5320  -38.3070 C   0  0  0  0  0  0  0  0  0  0  0  0
  -20.6730    4.3750  -37.8960 C   0  0  0  0  0  3  0  0  0  0  0  0
  -19.5890    3.8030  -37.2700 C   0  0  0  0  0  3  0  0  0  0  0  0
  -22.9030    3.9000  -38.9670 N   0  0  0  0  0  0  0  0  0  0  0  0
  -23.6330    2.7000  -39.1780 C   0  0  0  0  0  0  0  0  0  0  0  0
  -24.7470    2.6150  -39.7390 O   0  0  0  0  0  0  0  0  0  0  0  0
  -22.8820    1.5530  -38.6340 C   0  0  1  0  0  0  0  0  0  0  0  0
  -22.5990    0.5530  -39.6350 N   0  0  0  0  0  0  0  0  0  0  0  0
  -22.6920   -0.7280  -39.0090 C   0  0  1  0  0  3  0  0  0  0  0  0
  -23.7510   -0.6170  -37.9370 C   0  0  2  0  0  3  0  0  0  0  0  0
  -23.6950    0.8530  -37.6070 C   0  0  1  0  0  3  0  0  0  0  0  0
  -23.1600    0.9540  -36.2270 C   0  0  0  0  0  0  0  0  0  0  0  0
  -22.6200    1.9360  -35.6580 O   0  0  0  0  0  0  0  0  0  0  0  0
  -23.3840   -0.3370  -35.6240 N   0  0  0  0  0  0  0  0  0  0  0  0
  -23.3870   -1.3200  -36.6790 C   0  0  0  0  0  0  0  0  0  0  0  0
  -23.1330   -2.5480  -36.5780 O   0  0  0  0  0  0  0  0  0  0  0  0
  -23.2330    4.8650  -39.2640 H   0  0  0  0  0  0  0  0  0  0  0  0
  -21.6800    0.7210  -40.0570 H   0  0  0  0  0  0  0  0  0  0  0  0
  -23.0170   -1.8200  -40.0050 C   0  0  1  0  0  3  0  0  0  0  0  0
  -22.4360   -1.3730  -41.3430 C   0  0  0  0  0  1  0  0  0  0  0  0
  -22.3070   -2.9570  -39.6300 O   0  0  0  0  0  0  0  0  0  0  0  0
  -22.2380   -3.5700  -40.3960 H   0  0  0  0  0  0  0  0  0  0  0  0
  -23.5740   -0.6180  -34.2170 C   0  0  0  0  0  2  0  0  0  0  0  0
  -22.2510   -0.8000  -33.5480 C   0  0  0  0  0  0  0  0  0  0  0  0
  -21.7490   -2.0620  -33.3090 C   0  0  0  0  0  0  0  0  0  0  0  0
  -20.5200   -2.2050  -32.6880 C   0  0  0  0  0  3  0  0  0  0  0  0
  -19.7680   -1.1150  -32.2950 C   0  0  0  0  0  3  0  0  0  0  0  0
  -20.2600    0.1500  -32.5280 C   0  0  0  0  0  3  0  0  0  0  0  0
  -21.4830    0.2780  -33.1470 C   0  0  0  0  0  3  0  0  0  0  0  0
  -22.5110   -3.1640  -33.7080 O   0  0  0  0  0  0  0  0  0  0  0  0
  -22.2710   -4.4220  -33.0690 C   0  0  0  0  0  1  0  0  0  0  0  0
  2  1  1  0  0  0  0
  3  2  2  0  0  0  0
  4  3  1  0  0  0  0
  5  4  2  0  0  0  0
  5  6  1  0  0  0  0
  6  7  2  0  0  0  0
  7  2  1  0  0  0  0
  8  5  1  0  0  0  0
  9  8  1  0  0  0  0
 10  9  2  0  0  0  0
 11  9  1  6  0  0  0
 11  4  1  0  0  0  0
 11 15  1  0  0  0  0
 12 13  1  0  0  0  0
 12 11  1  0  0  0  0
 13 23  1  6  0  0  0
 13 14  1  0  0  0  0
 14 15  1  0  0  0  0
 14 19  1  1  0  0  0
 15 16  1  1  0  0  0
 16 17  2  0  0  0  0
 16 18  1  0  0  0  0
 18 27  1  0  0  0  0
 19 20  2  0  0  0  0
 19 18  1  0  0  0  0
 21  8  1  0  0  0  0
 22 12  1  0  0  0  0
 23 24  1  6  0  0  0
 23 25  1  0  0  0  0
 26 25  1  0  0  0  0
 27 28  1  0  0  0  0
 28 29  2  0  0  0  0
 28 33  1  0  0  0  0
 29 30  1  0  0  0  0
 30 31  2  0  0  0  0
 32 31  1  0  0  0  0
 33 32  2  0  0  0  0
 34 29  1  0  0  0  0
 34 35  1  0  0  0  0
M  END
>  <Pose>
1

>  <Score>
-8.447

$$$$
