MODEL 1
REMARK VINA RESULT:    -8.447      0.000      0.000
REMARK INTER + INTRA:         -11.810
REMARK INTER:                 -10.669
REMARK INTRA:                  -1.141
REMARK UNBOUND:                -1.141
REMARK  5 active torsions:
REMARK  status: ('A' for Active; 'I' for Inactive)
REMARK    1  A    between atoms: C_13  and  C_30 
REMARK    2  A    between atoms: N_18  and  C_21 
REMARK    3  A    between atoms: C_21  and  C_22 
REMARK    4  A    between atoms: C_23  and  O_28 
REMARK    5  A    between atoms: C_30  and  O_31 
ROOT
ATOM      1 Cl   UNK d   1     -18.109   1.758 -36.246  0.00  0.00    -0.084 Cl
ATOM      2  C   UNK d   1     -19.527   2.443 -37.056  0.00  0.00     0.034 A 
ATOM      3  C   UNK d   1     -20.559   1.639 -37.472  0.00  0.00     0.036 A 
ATOM      4  C   UNK d   1     -21.651   2.177 -38.097  0.00  0.00     0.019 A 
ATOM      5  C   UNK d   1     -21.706   3.532 -38.307  0.00  0.00     0.044 A 
ATOM      6  C   UNK d   1     -20.673   4.375 -37.896  0.00  0.00     0.032 A 
ATOM      7  C   UNK d   1     -19.589   3.803 -37.270  0.00  0.00     0.026 A 
ATOM      8  N   UNK d   1     -22.903   3.900 -38.967  0.00  0.00    -0.324 N 
ATOM      9  C   UNK d   1     -23.633   2.700 -39.178  0.00  0.00     0.267 A 
ATOM     10  O   UNK d   1     -24.747   2.615 -39.739  0.00  0.00    -0.270 OA
ATOM     11  C   UNK d   1     -22.882   1.553 -38.634  0.00  0.00     0.279 A 
ATOM     12  N   UNK d   1     -22.599   0.553 -39.635  0.00  0.00     0.116 N 
ATOM     13  C   UNK d   1     -22.692  -0.728 -39.009  0.00  0.00     0.264 C 
ATOM     14  C   UNK d   1     -23.751  -0.617 -37.937  0.00  0.00     0.130 C 
ATOM     15  C   UNK d   1     -23.695   0.853 -37.607  0.00  0.00     0.147 C 
ATOM     16  C   UNK d   1     -23.160   0.954 -36.227  0.00  0.00     0.235 C 
ATOM     17  O   UNK d   1     -22.620   1.936 -35.658  0.00  0.00    -0.272 OA
ATOM     18  N   UNK d   1     -23.384  -0.337 -35.624  0.00  0.00    -0.283 N 
ATOM     19  C   UNK d   1     -23.387  -1.320 -36.679  0.00  0.00     0.234 C 
ATOM     20  O   UNK d   1     -23.133  -2.548 -36.578  0.00  0.00    -0.272 OA
ATOM     21  H   UNK d   1     -23.233   4.865 -39.264  0.00  0.00     0.169 HD
ATOM     22  H   UNK d   1     -21.680   0.721 -40.057  0.00  0.00     0.318 HD
ENDROOT
BRANCH  13  23
ATOM     23  C   UNK d   1     -23.017  -1.820 -40.005  0.00  0.00     0.148 C 
ATOM     24  C   UNK d   1     -22.436  -1.373 -41.343  0.00  0.00     0.041 C 
BRANCH  23  25
ATOM     25  O   UNK d   1     -22.307  -2.957 -39.630  0.00  0.00    -0.394 OA
ATOM     26  H   UNK d   1     -22.238  -3.570 -40.396  0.00  0.00     0.210 HD
ENDBRANCH  23  25
ENDBRANCH  13  23
BRANCH  18  27
ATOM     27  C   UNK d   1     -23.574  -0.618 -34.217  0.00  0.00     0.176 C 
BRANCH  27  28
ATOM     28  C   UNK d   1     -22.251  -0.800 -33.548  0.00  0.00    -0.006 A 
ATOM     29  C   UNK d   1     -21.749  -2.062 -33.309  0.00  0.00     0.076 A 
ATOM     30  C   UNK d   1     -20.520  -2.205 -32.688  0.00  0.00     0.037 A 
ATOM     31  C   UNK d   1     -19.768  -1.115 -32.295  0.00  0.00     0.003 A 
ATOM     32  C   UNK d   1     -20.260   0.150 -32.528  0.00  0.00     0.001 A 
ATOM     33  C   UNK d   1     -21.483   0.278 -33.147  0.00  0.00     0.011 A 
BRANCH  29  34
ATOM     34  O   UNK d   1     -22.511  -3.164 -33.708  0.00  0.00    -0.355 OA
ATOM     35  C   UNK d   1     -22.271  -4.422 -33.069  0.00  0.00     0.210 C 
ENDBRANCH  29  34
ENDBRANCH  27  28
ENDBRANCH  18  27
TORSDOF 5
ENDMDL
