/Users/jonathanwahrer/Desktop/Msc/3_Semester/Drug_Design_Praktikum/waehrer_HTS_screening/HTS_experiment/out/docking_results/vina_output/5l4q/1741_docked.pdbqt
 OpenBabel03212219013D

 28 31  0  0  0  0  0  0  0  0999 V2000
  -19.5060    0.3420  -32.8430 C   0  0  0  0  0  0  0  0  0  0  0  0
  -18.4880   -0.3200  -32.5580 O   0  0  0  0  0  0  0  0  0  0  0  0
  -19.4120    1.4590  -33.6860 N   0  0  0  0  0  0  0  0  0  0  0  0
  -18.1710    1.9090  -34.2760 C   0  0  0  0  0  2  0  0  0  0  0  0
  -18.4130    2.0390  -35.7700 C   0  0  0  0  0  2  0  0  0  0  0  0
  -19.6730    1.5410  -36.1380 N   0  0  0  0  0  0  0  0  0  0  0  0
  -20.8350    2.0480  -35.5340 C   0  0  0  0  0  2  0  0  0  0  0  0
  -20.5860    2.2690  -34.0460 C   0  0  0  0  0  2  0  0  0  0  0  0
  -20.8260   -0.0820  -32.2640 C   0  0  0  0  0  2  0  0  0  0  0  0
  -20.7170   -1.3270  -31.5340 N   0  0  0  0  0  0  0  0  0  0  0  0
  -20.3940   -1.4410  -30.2140 C   0  0  0  0  0  0  0  0  0  0  0  0
  -20.3740   -2.7640  -29.8390 C   0  0  0  0  0  0  0  0  0  0  0  0
  -20.1090   -0.4670  -29.2850 C   0  0  0  0  0  3  0  0  0  0  0  0
  -20.0720   -3.1570  -28.5390 C   0  0  0  0  0  3  0  0  0  0  0  0
  -20.6950   -3.5000  -30.9590 C   0  0  0  0  0  3  0  0  0  0  0  0
  -19.7810   -2.1740  -27.5910 C   0  0  0  0  0  0  0  0  0  0  0  0
  -19.3620   -2.6820  -25.7900 Br  0  0  0  0  0  0  0  0  0  0  0  0
  -19.8060   -0.8530  -27.9830 C   0  0  0  0  0  3  0  0  0  0  0  0
  -20.8960   -2.5800  -31.9690 C   0  0  0  0  0  3  0  0  0  0  0  0
  -19.7590    0.4210  -36.9800 C   0  0  0  0  0  2  0  0  0  0  0  0
  -20.1280    0.7350  -38.3860 C   0  0  0  0  0  0  0  0  0  0  0  0
  -19.4020    1.5680  -38.9840 O   0  0  0  0  0  0  0  0  0  0  0  0
  -21.2210    0.1620  -39.0540 N   0  0  0  0  0  0  0  0  0  0  0  0
  -21.5180    0.5300  -40.4230 C   0  0  0  0  0  2  0  0  0  0  0  0
  -22.1150   -0.8110  -38.4580 C   0  0  0  0  0  2  0  0  0  0  0  0
  -21.5900   -0.7530  -41.2250 C   0  0  0  0  0  2  0  0  0  0  0  0
  -22.7030   -1.4440  -40.7250 O   0  0  0  0  0  0  0  0  0  0  0  0
  -22.4990   -1.8680  -39.4330 C   0  0  0  0  0  2  0  0  0  0  0  0
  1  2  2  0  0  0  0
  1  9  1  0  0  0  0
  3  1  1  0  0  0  0
  4  3  1  0  0  0  0
  5  4  1  0  0  0  0
  6  5  1  0  0  0  0
  6  7  1  0  0  0  0
  7  8  1  0  0  0  0
  8  3  1  0  0  0  0
  9 10  1  0  0  0  0
 10 11  1  0  0  0  0
 11 12  2  0  0  0  0
 11 13  1  0  0  0  0
 12 14  1  0  0  0  0
 13 18  2  0  0  0  0
 14 16  2  0  0  0  0
 15 12  1  0  0  0  0
 16 17  1  0  0  0  0
 18 16  1  0  0  0  0
 19 10  1  0  0  0  0
 19 15  2  0  0  0  0
 20  6  1  0  0  0  0
 21 20  1  0  0  0  0
 22 21  2  0  0  0  0
 23 25  1  0  0  0  0
 23 21  1  0  0  0  0
 24 23  1  0  0  0  0
 26 27  1  0  0  0  0
 26 24  1  0  0  0  0
 27 28  1  0  0  0  0
 28 25  1  0  0  0  0
M  END
>  <Pose>
1

>  <Score>
-8.886

$$$$
