MODEL 1
REMARK VINA RESULT:    -8.886      0.000      0.000
REMARK INTER + INTRA:         -11.516
REMARK INTER:                 -10.964
REMARK INTRA:                  -0.552
REMARK UNBOUND:                -0.552
REMARK  4 active torsions:
REMARK  status: ('A' for Active; 'I' for Inactive)
REMARK    1  A    between atoms: N_6  and  C_9 
REMARK    2  A    between atoms: C_9  and  C_10 
REMARK       I    between atoms: C_10  and  N_12 
REMARK    3  A    between atoms: N_15  and  C_18 
REMARK    4  A    between atoms: C_18  and  C_19 
REMARK       I    between atoms: C_19  and  N_21 
ROOT
ATOM      1  C   UNK d   1     -19.506   0.342 -32.843  0.00  0.00     0.238 C 
ATOM      2  O   UNK d   1     -18.488  -0.320 -32.558  0.00  0.00    -0.272 OA
ATOM      3  N   UNK d   1     -19.412   1.459 -33.686  0.00  0.00    -0.348 N 
ATOM      4  C   UNK d   1     -18.171   1.909 -34.276  0.00  0.00     0.145 C 
ATOM      5  C   UNK d   1     -18.413   2.039 -35.770  0.00  0.00     0.137 C 
ATOM      6  N   UNK d   1     -19.673   1.541 -36.138  0.00  0.00    -0.401 N 
ATOM      7  C   UNK d   1     -20.835   2.048 -35.534  0.00  0.00     0.137 C 
ATOM      8  C   UNK d   1     -20.586   2.269 -34.046  0.00  0.00     0.145 C 
ENDROOT
BRANCH   1   9
ATOM      9  C   UNK d   1     -20.826  -0.082 -32.264  0.00  0.00     0.231 C 
BRANCH   9  10
ATOM     10  N   UNK d   1     -20.717  -1.327 -31.534  0.00  0.00    -0.347 N 
ATOM     11  C   UNK d   1     -20.394  -1.441 -30.214  0.00  0.00     0.045 A 
ATOM     12  C   UNK d   1     -20.374  -2.764 -29.839  0.00  0.00    -0.007 A 
ATOM     13  C   UNK d   1     -20.109  -0.467 -29.285  0.00  0.00     0.032 A 
ATOM     14  C   UNK d   1     -20.072  -3.157 -28.539  0.00  0.00     0.032 A 
ATOM     15  C   UNK d   1     -20.695  -3.500 -30.959  0.00  0.00     0.031 A 
ATOM     16  C   UNK d   1     -19.781  -2.174 -27.591  0.00  0.00     0.011 A 
ATOM     17 Br   UNK d   1     -19.362  -2.682 -25.790  0.00  0.00    -0.051 Br
ATOM     18  C   UNK d   1     -19.806  -0.853 -27.983  0.00  0.00     0.021 A 
ATOM     19  C   UNK d   1     -20.896  -2.580 -31.969  0.00  0.00     0.092 A 
ENDBRANCH   9  10
ENDBRANCH   1   9
BRANCH   6  20
ATOM     20  C   UNK d   1     -19.759   0.421 -36.980  0.00  0.00     0.220 C 
BRANCH  20  21
ATOM     21  C   UNK d   1     -20.128   0.735 -38.386  0.00  0.00     0.237 C 
ATOM     22  O   UNK d   1     -19.402   1.568 -38.984  0.00  0.00    -0.272 OA
ATOM     23  N   UNK d   1     -21.221   0.162 -39.054  0.00  0.00    -0.347 N 
ATOM     24  C   UNK d   1     -21.518   0.530 -40.423  0.00  0.00     0.152 C 
ATOM     25  C   UNK d   1     -22.115  -0.811 -38.458  0.00  0.00     0.152 C 
ATOM     26  C   UNK d   1     -21.590  -0.753 -41.225  0.00  0.00     0.187 C 
ATOM     27  O   UNK d   1     -22.703  -1.444 -40.725  0.00  0.00    -0.388 OA
ATOM     28  C   UNK d   1     -22.499  -1.868 -39.433  0.00  0.00     0.187 C 
ENDBRANCH  20  21
ENDBRANCH   6  20
TORSDOF 4
ENDMDL
