/Users/jonathanwahrer/Desktop/Msc/3_Semester/Drug_Design_Praktikum/waehrer_HTS_screening/HTS_experiment/out/docking_results/vina_output/5l4q/1744_docked.pdbqt
 OpenBabel03212219013D

 34 37  0  0  1  0  0  0  0  0999 V2000
  -21.0260    1.2440  -34.5650 N   0  0  0  0  0  0  0  0  0  0  0  0
  -22.1230    2.1430  -34.4130 C   0  0  0  0  0  0  0  0  0  0  0  0
  -22.9990    2.0270  -33.5210 O   0  0  0  0  0  0  0  0  0  0  0  0
  -22.2310    3.2350  -35.3240 N   0  0  0  0  0  0  0  0  0  0  0  0
  -21.2430    3.3930  -36.3540 C   0  0  0  0  0  0  0  0  0  0  0  0
  -21.2620    4.5090  -36.9740 O   0  0  0  0  0  0  0  0  0  0  0  0
  -20.2630    2.3420  -36.6840 C   0  0  1  0  0  3  0  0  0  0  0  0
  -20.0350    1.3850  -35.5740 C   0  0  0  0  0  0  0  0  0  0  0  0
  -18.9660    0.7280  -35.5650 O   0  0  0  0  0  0  0  0  0  0  0  0
  -23.0150    3.9350  -35.2700 H   0  0  0  0  0  0  0  0  0  0  0  0
  -20.6860    1.5960  -37.9280 C   0  0  1  0  0  3  0  0  0  0  0  0
  -21.7390    1.9120  -38.6590 C   0  0  0  0  0  2  0  0  0  0  0  0
  -21.7620    0.9190  -39.7560 C   0  0  1  0  0  3  0  0  0  0  0  0
  -20.3550    0.5860  -39.8890 N   0  0  0  0  0  0  0  0  0  0  0  0
  -20.0210    0.4780  -38.5160 N   0  0  0  0  0  0  0  0  0  0  0  0
  -20.1540   -0.2560  -40.4340 H   0  0  0  0  0  0  0  0  0  0  0  0
  -19.4570   -0.1940  -37.9970 H   0  0  0  0  0  0  0  0  0  0  0  0
  -22.5540   -0.2810  -39.3660 C   0  0  0  0  0  0  0  0  0  0  0  0
  -22.2310   -1.5700  -39.6820 C   0  0  0  0  0  3  0  0  0  0  0  0
  -22.9790   -2.6520  -39.2610 C   0  0  0  0  0  0  0  0  0  0  0  0
  -24.1080   -2.4610  -38.4860 C   0  0  0  0  0  0  0  0  0  0  0  0
  -24.4340   -1.1330  -38.1640 C   0  0  0  0  0  3  0  0  0  0  0  0
  -23.6790   -0.0670  -38.5930 C   0  0  0  0  0  3  0  0  0  0  0  0
  -22.6050   -3.9600  -39.6170 O   0  0  0  0  0  0  0  0  0  0  0  0
  -21.9610   -4.4530  -39.0070 H   0  0  0  0  0  0  0  0  0  0  0  0
  -24.8740   -3.5130  -38.0450 O   0  0  0  0  0  0  0  0  0  0  0  0
  -25.9280   -4.0450  -38.8210 C   0  0  0  0  0  1  0  0  0  0  0  0
  -20.9490    0.1520  -33.6560 C   0  0  0  0  0  0  0  0  0  0  0  0
  -21.5100   -1.0770  -33.9560 C   0  0  0  0  0  3  0  0  0  0  0  0
  -21.4410   -2.1550  -33.1090 C   0  0  0  0  0  0  0  0  0  0  0  0
  -22.1700   -3.6820  -33.5290 Cl  0  0  0  0  0  0  0  0  0  0  0  0
  -20.7770   -1.9840  -31.9080 C   0  0  0  0  0  3  0  0  0  0  0  0
  -20.2030   -0.7750  -31.5700 C   0  0  0  0  0  3  0  0  0  0  0  0
  -20.3030    0.2870  -32.4650 C   0  0  0  0  0  3  0  0  0  0  0  0
  1  2  1  0  0  0  0
  1 28  1  0  0  0  0
  2  3  2  0  0  0  0
  4 10  1  0  0  0  0
  4  2  1  0  0  0  0
  5  4  1  0  0  0  0
  6  5  2  0  0  0  0
  7  5  1  1  0  0  0
  7  8  1  0  0  0  0
  8  9  2  0  0  0  0
  8  1  1  0  0  0  0
 11 12  1  6  0  0  0
 11  7  1  0  0  0  0
 13 18  1  1  0  0  0
 13 12  1  0  0  0  0
 14 13  1  0  0  0  0
 14 15  1  0  0  0  0
 15 17  1  0  0  0  0
 15 11  1  0  0  0  0
 16 14  1  0  0  0  0
 18 23  1  0  0  0  0
 19 18  2  0  0  0  0
 19 20  1  0  0  0  0
 20 21  2  0  0  0  0
 21 22  1  0  0  0  0
 21 26  1  0  0  0  0
 23 22  2  0  0  0  0
 24 20  1  0  0  0  0
 24 25  1  0  0  0  0
 27 26  1  0  0  0  0
 28 34  1  0  0  0  0
 29 28  2  0  0  0  0
 29 30  1  0  0  0  0
 30 32  2  0  0  0  0
 31 30  1  0  0  0  0
 32 33  1  0  0  0  0
 34 33  2  0  0  0  0
M  END
>  <Pose>
1

>  <Score>
-9.033

$$$$
