MODEL 1
REMARK VINA RESULT:    -7.972      0.000      0.000
REMARK INTER + INTRA:         -11.661
REMARK INTER:                 -10.070
REMARK INTRA:                  -1.592
REMARK UNBOUND:                -1.592
REMARK  5 active torsions:
REMARK  status: ('A' for Active; 'I' for Inactive)
REMARK    1  A    between atoms: C_4  and  N_8 
REMARK    2  A    between atoms: C_14  and  C_17 
REMARK    3  A    between atoms: C_19  and  C_22 
REMARK    4  A    between atoms: C_24  and  O_29 
REMARK    5  A    between atoms: C_25  and  O_28 
ROOT
ATOM      1  N   UNK d   1     -20.974   1.205 -34.842  0.00  0.00    -0.233 N 
ATOM      2  C   UNK d   1     -19.961   0.273 -35.185  0.00  0.00     0.336 C 
ATOM      3  O   UNK d   1     -18.898   0.635 -35.706  0.00  0.00    -0.246 OA
ATOM      4  N   UNK d   1     -20.159  -1.125 -34.929  0.00  0.00    -0.277 N 
ATOM      5  C   UNK d   1     -21.363  -1.599 -34.329  0.00  0.00     0.244 C 
ATOM      6  O   UNK d   1     -21.419  -2.678 -33.714  0.00  0.00    -0.272 OA
ATOM      7  C   UNK d   1     -22.601  -0.751 -34.454  0.00  0.00     0.221 C 
ATOM      8  C   UNK d   1     -22.164   0.645 -34.246  0.00  0.00     0.251 C 
ATOM      9  O   UNK d   1     -22.841   1.446 -33.505  0.00  0.00    -0.271 OA
ATOM     10  H   UNK d   1     -19.413  -1.784 -35.186  0.00  0.00     0.173 HD
ENDROOT
BRANCH   7  11
ATOM     11  C   UNK d   1     -23.219  -0.980 -35.794  0.00  0.00     0.041 C 
ATOM     12  C   UNK d   1     -24.016  -0.192 -36.486  0.00  0.00     0.026 C 
ATOM     13  C   UNK d   1     -24.362  -0.871 -37.765  0.00  0.00     0.134 C 
ATOM     14  N   UNK d   1     -24.150  -2.291 -37.386  0.00  0.00    -0.228 NA
ATOM     15  N   UNK d   1     -23.033  -2.186 -36.547  0.00  0.00    -0.323 N 
ATOM     16  H   UNK d   1     -24.991  -2.652 -36.893  0.00  0.00     0.147 HD
ATOM     17  H   UNK d   1     -22.243  -2.817 -36.469  0.00  0.00     0.180 HD
BRANCH  13  18
ATOM     18  C   UNK d   1     -23.311  -0.568 -38.775  0.00  0.00    -0.032 A 
ATOM     19  C   UNK d   1     -22.716   0.709 -38.858  0.00  0.00     0.048 A 
ATOM     20  C   UNK d   1     -21.729   1.023 -39.740  0.00  0.00     0.101 A 
ATOM     21  C   UNK d   1     -21.264   0.056 -40.613  0.00  0.00     0.099 A 
ATOM     22  C   UNK d   1     -21.823  -1.200 -40.560  0.00  0.00     0.040 A 
ATOM     23  C   UNK d   1     -22.822  -1.503 -39.662  0.00  0.00     0.012 A 
BRANCH  20  24
ATOM     24  O   UNK d   1     -21.174   2.310 -39.784  0.00  0.00    -0.353 OA
ATOM     25  C   UNK d   1     -21.738   3.279 -40.640  0.00  0.00     0.210 C 
ENDBRANCH  20  24
BRANCH  21  26
ATOM     26  O   UNK d   1     -20.254   0.359 -41.520  0.00  0.00    -0.358 OA
ATOM     27  H   UNK d   1     -19.921   1.312 -41.583  0.00  0.00     0.217 HD
ENDBRANCH  21  26
ENDBRANCH  13  18
ENDBRANCH   7  11
BRANCH   1  28
ATOM     28  C   UNK d   1     -20.870   2.611 -35.018  0.00  0.00     0.048 A 
ATOM     29  C   UNK d   1     -21.549   3.183 -36.101  0.00  0.00     0.054 A 
ATOM     30  C   UNK d   1     -21.500   4.534 -36.365  0.00  0.00     0.036 A 
ATOM     31 Cl   UNK d   1     -22.374   5.155 -37.739  0.00  0.00    -0.084 Cl
ATOM     32  C   UNK d   1     -20.778   5.387 -35.574  0.00  0.00     0.024 A 
ATOM     33  C   UNK d   1     -20.098   4.827 -34.490  0.00  0.00     0.004 A 
ATOM     34  C   UNK d   1     -20.152   3.474 -34.232  0.00  0.00     0.030 A 
ENDBRANCH   1  28
TORSDOF 5
ENDMDL
