MODEL 1
REMARK VINA RESULT:    -8.244      0.000      0.000
REMARK INTER + INTRA:         -10.253
REMARK INTER:                  -9.690
REMARK INTRA:                  -0.563
REMARK UNBOUND:                -0.563
REMARK  3 active torsions:
REMARK  status: ('A' for Active; 'I' for Inactive)
REMARK    1  A    between atoms: S_1  and  N_4 
REMARK    2  A    between atoms: S_1  and  N_22 
REMARK       I    between atoms: N_7  and  C_10 
REMARK    3  A    between atoms: C_10  and  C_12 
ROOT
ATOM      1  N   UNK d   1     -20.824   1.492 -38.844  0.00  0.00    -0.295 N 
ATOM      2  C   UNK d   1     -19.768   0.828 -38.143  0.00  0.00     0.156 C 
ATOM      3  C   UNK d   1     -20.189   0.356 -36.765  0.00  0.00     0.147 C 
ATOM      4  N   UNK d   1     -20.853   1.435 -36.084  0.00  0.00    -0.344 N 
ATOM      5  C   UNK d   1     -20.884   2.733 -36.729  0.00  0.00     0.147 C 
ATOM      6  C   UNK d   1     -21.462   2.533 -38.113  0.00  0.00     0.156 C 
ATOM      7  C   UNK d   1     -21.477   1.281 -34.812  0.00  0.00     0.274 C 
ATOM      8  O   UNK d   1     -22.050   2.237 -34.241  0.00  0.00    -0.266 OA
ENDROOT
BRANCH   7   9
ATOM      9  C   UNK d   1     -21.464  -0.015 -34.129  0.00  0.00     0.142 A 
ATOM     10  N   UNK d   1     -22.063  -1.159 -34.559  0.00  0.00    -0.224 NA
ATOM     11  C   UNK d   1     -21.831  -2.135 -33.666  0.00  0.00     0.134 A 
ATOM     12  N   UNK d   1     -21.096  -1.606 -32.688  0.00  0.00    -0.313 N 
ATOM     13  C   UNK d   1     -22.198  -3.470 -33.604  0.00  0.00     0.052 A 
ATOM     14  C   UNK d   1     -20.858  -0.313 -32.947  0.00  0.00     0.135 A 
ATOM     15  C   UNK d   1     -20.726  -2.392 -31.658  0.00  0.00     0.122 A 
ATOM     16  C   UNK d   1     -21.058  -3.714 -31.546  0.00  0.00     0.050 A 
ATOM     17  C   UNK d   1     -21.826  -4.282 -32.557  0.00  0.00     0.029 A 
ATOM     18 Cl   UNK d   1     -20.557  -4.711 -30.185  0.00  0.00    -0.083 Cl
ENDBRANCH   7   9
BRANCH   1  19
ATOM     19  S   UNK d   1     -21.863   0.489 -39.721  0.00  0.00     0.301 S 
ATOM     20  O   UNK d   1     -22.988   1.290 -40.290  0.00  0.00    -0.188 OA
ATOM     21  O   UNK d   1     -21.093  -0.123 -40.858  0.00  0.00    -0.188 OA
BRANCH  19  22
ATOM     22  N   UNK d   1     -22.527  -0.801 -38.801  0.00  0.00    -0.189 NA
ATOM     23  C   UNK d   1     -22.659  -2.021 -39.575  0.00  0.00     0.135 C 
ATOM     24  C   UNK d   1     -23.729  -2.857 -38.913  0.00  0.00     0.183 C 
ATOM     25  O   UNK d   1     -23.732  -2.691 -37.533  0.00  0.00    -0.389 OA
ATOM     26  C   UNK d   1     -24.132  -1.414 -37.146  0.00  0.00     0.183 C 
ATOM     27  C   UNK d   1     -23.855  -0.482 -38.309  0.00  0.00     0.135 C 
ENDBRANCH  19  22
ENDBRANCH   1  19
TORSDOF 3
ENDMDL
