/Users/jonathanwahrer/Desktop/Msc/3_Semester/Drug_Design_Praktikum/waehrer_HTS_screening/HTS_experiment/out/docking_results/vina_output/5l4q/1750_docked.pdbqt
 OpenBabel03212219023D

 27 30  0  0  0  0  0  0  0  0999 V2000
  -20.8240    1.4920  -38.8440 N   0  0  0  0  0  0  0  0  0  0  0  0
  -19.7680    0.8280  -38.1430 C   0  0  0  0  0  2  0  0  0  0  0  0
  -20.1890    0.3560  -36.7650 C   0  0  0  0  0  2  0  0  0  0  0  0
  -20.8530    1.4350  -36.0840 N   0  0  0  0  0  0  0  0  0  0  0  0
  -20.8840    2.7330  -36.7290 C   0  0  0  0  0  2  0  0  0  0  0  0
  -21.4620    2.5330  -38.1130 C   0  0  0  0  0  2  0  0  0  0  0  0
  -21.4770    1.2810  -34.8120 C   0  0  0  0  0  0  0  0  0  0  0  0
  -22.0500    2.2370  -34.2410 O   0  0  0  0  0  0  0  0  0  0  0  0
  -21.4640   -0.0150  -34.1290 C   0  0  0  0  0  0  0  0  0  0  0  0
  -22.0630   -1.1590  -34.5590 N   0  0  0  0  0  0  0  0  0  0  0  0
  -21.8310   -2.1350  -33.6660 C   0  0  0  0  0  0  0  0  0  0  0  0
  -21.0960   -1.6060  -32.6880 N   0  0  0  0  0  0  0  0  0  0  0  0
  -22.1980   -3.4700  -33.6040 C   0  0  0  0  0  3  0  0  0  0  0  0
  -20.8580   -0.3130  -32.9470 C   0  0  0  0  0  3  0  0  0  0  0  0
  -20.7260   -2.3920  -31.6580 C   0  0  0  0  0  3  0  0  0  0  0  0
  -21.0580   -3.7140  -31.5460 C   0  0  0  0  0  0  0  0  0  0  0  0
  -21.8260   -4.2820  -32.5570 C   0  0  0  0  0  3  0  0  0  0  0  0
  -20.5570   -4.7110  -30.1850 Cl  0  0  0  0  0  0  0  0  0  0  0  0
  -21.8630    0.4890  -39.7210 S   0  0  0  0  0  0  0  0  0  0  0  0
  -22.9880    1.2900  -40.2900 O   0  0  0  0  0  0  0  0  0  0  0  0
  -21.0930   -0.1230  -40.8580 O   0  0  0  0  0  0  0  0  0  0  0  0
  -22.5270   -0.8010  -38.8010 N   0  0  0  0  0  0  0  0  0  0  0  0
  -22.6590   -2.0210  -39.5750 C   0  0  0  0  0  2  0  0  0  0  0  0
  -23.7290   -2.8570  -38.9130 C   0  0  0  0  0  2  0  0  0  0  0  0
  -23.7320   -2.6910  -37.5330 O   0  0  0  0  0  0  0  0  0  0  0  0
  -24.1320   -1.4140  -37.1460 C   0  0  0  0  0  2  0  0  0  0  0  0
  -23.8550   -0.4820  -38.3090 C   0  0  0  0  0  2  0  0  0  0  0  0
  1  2  1  0  0  0  0
  1  6  1  0  0  0  0
  2  3  1  0  0  0  0
  3  4  1  0  0  0  0
  4  7  1  0  0  0  0
  5  4  1  0  0  0  0
  6  5  1  0  0  0  0
  7  8  2  0  0  0  0
  7  9  1  0  0  0  0
  9 14  2  0  0  0  0
 10  9  1  0  0  0  0
 10 11  2  0  0  0  0
 11 13  1  0  0  0  0
 11 12  1  0  0  0  0
 12 15  1  0  0  0  0
 13 17  2  0  0  0  0
 14 12  1  0  0  0  0
 15 16  2  0  0  0  0
 16 18  1  0  0  0  0
 17 16  1  0  0  0  0
 19  1  1  0  0  0  0
 19 22  1  0  0  0  0
 20 19  2  0  0  0  0
 21 19  2  0  0  0  0
 22 27  1  0  0  0  0
 23 24  1  0  0  0  0
 23 22  1  0  0  0  0
 24 25  1  0  0  0  0
 25 26  1  0  0  0  0
 27 26  1  0  0  0  0
M  END
>  <Pose>
1

>  <Score>
-8.244

$$$$
