/Users/jonathanwahrer/Desktop/Msc/3_Semester/Drug_Design_Praktikum/waehrer_HTS_screening/HTS_experiment/out/docking_results/vina_output/5l4q/1764_docked.pdbqt
 OpenBabel03212219023D

 34 37  0  0  1  0  0  0  0  0999 V2000
  -20.4720    1.5770  -33.7180 N   0  0  0  0  0  0  0  0  0  0  0  0
  -19.6210    0.4950  -33.8260 C   0  0  1  0  0  3  0  0  0  0  0  0
  -18.3270    1.0490  -34.4380 C   0  0  0  0  0  2  0  0  0  0  0  0
  -18.2410    2.4110  -33.7850 C   0  0  0  0  0  2  0  0  0  0  0  0
  -19.6800    2.7890  -33.5260 C   0  0  0  0  0  2  0  0  0  0  0  0
  -21.8600    1.8090  -34.6000 S   0  0  0  0  0  0  0  0  0  0  0  0
  -22.0940    3.2760  -34.9550 O   0  0  0  0  0  0  0  0  0  0  0  0
  -23.0570    1.4610  -33.7130 O   0  0  0  0  0  0  0  0  0  0  0  0
  -21.9960    0.8470  -36.0410 C   0  0  0  0  0  0  0  0  0  0  0  0
  -22.8760   -0.2480  -36.0420 C   0  0  0  0  0  3  0  0  0  0  0  0
  -23.0200   -1.1070  -37.0930 C   0  0  0  0  0  0  0  0  0  0  0  0
  -22.2450   -0.8680  -38.2140 C   0  0  0  0  0  0  0  0  0  0  0  0
  -23.8900   -2.1860  -37.0880 O   0  0  0  0  0  0  0  0  0  0  0  0
  -21.3720    0.1760  -38.2820 C   0  0  0  0  0  3  0  0  0  0  0  0
  -22.3900   -1.7610  -39.3290 N   0  0  0  0  0  0  0  0  0  0  0  0
  -21.2660    1.0200  -37.1830 C   0  0  0  0  0  0  0  0  0  0  0  0
  -20.2030    2.3950  -37.3870 Cl  0  0  0  0  0  0  0  0  0  0  0  0
  -23.3120   -2.8440  -39.2470 C   0  0  0  0  0  0  0  0  0  0  0  0
  -21.8080   -1.5920  -40.1870 H   0  0  0  0  0  0  0  0  0  0  0  0
  -23.1530   -3.8540  -39.9550 O   0  0  0  0  0  0  0  0  0  0  0  0
  -24.4430   -2.7040  -38.2950 C   0  0  0  0  0  2  0  0  0  0  0  0
  -19.3060   -0.0120  -32.4290 C   0  0  0  0  0  0  0  0  0  0  0  0
  -18.1040   -0.1290  -32.1580 O   0  0  0  0  0  0  0  0  0  0  0  0
  -20.3590   -0.3100  -31.5460 N   0  0  0  0  0  0  0  0  0  0  0  0
  -21.3600   -0.2140  -31.8110 H   0  0  0  0  0  0  0  0  0  0  0  0
  -20.0770   -0.7820  -30.2130 C   0  0  0  0  0  3  0  0  0  0  0  0
  -20.0350    0.2560  -29.1580 C   0  0  0  0  0  3  0  0  0  0  0  0
  -19.4600   -0.1230  -27.9160 N   0  0  0  0  0  0  0  0  0  0  0  0
  -18.0460    0.0400  -27.8120 C   0  0  0  0  0  2  0  0  0  0  0  0
  -17.7390    0.5430  -26.4160 C   0  0  0  0  0  2  0  0  0  0  0  0
  -18.4060   -0.3710  -25.4100 C   0  0  0  0  0  2  0  0  0  0  0  0
  -18.1200   -1.7960  -25.8010 C   0  0  0  0  0  2  0  0  0  0  0  0
  -18.9770   -2.3210  -26.8920 C   0  0  0  0  0  2  0  0  0  0  0  0
  -19.9670   -1.3750  -27.4590 C   0  0  0  0  0  2  0  0  0  0  0  0
  1  5  1  0  0  0  0
  2  1  1  0  0  0  0
  2 22  1  1  0  0  0
  3  2  1  0  0  0  0
  3  4  1  0  0  0  0
  4  5  1  0  0  0  0
  6  1  1  0  0  0  0
  6  8  2  0  0  0  0
  7  6  2  0  0  0  0
  9  6  1  0  0  0  0
 10  9  1  0  0  0  0
 11 13  1  0  0  0  0
 11 10  2  0  0  0  0
 12 11  1  0  0  0  0
 14 12  2  0  0  0  0
 14 16  1  0  0  0  0
 15 18  1  0  0  0  0
 15 12  1  0  0  0  0
 16  9  2  0  0  0  0
 17 16  1  0  0  0  0
 18 21  1  0  0  0  0
 19 15  1  0  0  0  0
 20 18  2  0  0  0  0
 21 13  1  0  0  0  0
 22 23  2  0  0  0  0
 22 24  1  0  0  0  0
 24 26  1  0  0  0  0
 25 24  1  0  0  0  0
 26 27  2  0  0  0  0
 27 28  1  0  0  0  0
 28 29  1  0  0  0  0
 28 34  1  0  0  0  0
 29 30  1  0  0  0  0
 30 31  1  0  0  0  0
 32 31  1  0  0  0  0
 33 32  1  0  0  0  0
 34 33  1  0  0  0  0
M  END
>  <Pose>
1

>  <Score>
-9.339

$$$$
