MODEL 1
REMARK VINA RESULT:    -9.339      0.000      0.000
REMARK INTER + INTRA:         -13.540
REMARK INTER:                 -12.615
REMARK INTRA:                  -0.925
REMARK UNBOUND:                -0.925
REMARK  6 active torsions:
REMARK  status: ('A' for Active; 'I' for Inactive)
REMARK    1  A    between atoms: S_1  and  N_4 
REMARK    2  A    between atoms: S_1  and  C_21 
REMARK    3  A    between atoms: C_5  and  C_9 
REMARK       I    between atoms: C_9  and  N_11 
REMARK    4  A    between atoms: N_11  and  C_12 
REMARK    5  A    between atoms: C_12  and  C_13 
REMARK    6  A    between atoms: C_13  and  N_14 
ROOT
ATOM      1  N   UNK d   1     -20.472   1.577 -33.718  0.00  0.00    -0.293 N 
ATOM      2  C   UNK d   1     -19.621   0.495 -33.826  0.00  0.00     0.188 C 
ATOM      3  C   UNK d   1     -18.327   1.049 -34.438  0.00  0.00     0.037 C 
ATOM      4  C   UNK d   1     -18.241   2.411 -33.785  0.00  0.00     0.023 C 
ATOM      5  C   UNK d   1     -19.680   2.789 -33.526  0.00  0.00     0.136 C 
ENDROOT
BRANCH   1   6
ATOM      6  S   UNK d   1     -21.860   1.809 -34.600  0.00  0.00     0.263 S 
ATOM      7  O   UNK d   1     -22.094   3.276 -34.955  0.00  0.00    -0.200 OA
ATOM      8  O   UNK d   1     -23.057   1.461 -33.713  0.00  0.00    -0.200 OA
BRANCH   6   9
ATOM      9  C   UNK d   1     -21.996   0.847 -36.041  0.00  0.00     0.104 A 
ATOM     10  C   UNK d   1     -22.876  -0.248 -36.042  0.00  0.00     0.066 A 
ATOM     11  C   UNK d   1     -23.020  -1.107 -37.093  0.00  0.00     0.097 A 
ATOM     12  C   UNK d   1     -22.245  -0.868 -38.214  0.00  0.00     0.070 A 
ATOM     13  O   UNK d   1     -23.890  -2.186 -37.088  0.00  0.00    -0.340 OA
ATOM     14  C   UNK d   1     -21.372   0.176 -38.282  0.00  0.00     0.058 A 
ATOM     15  N   UNK d   1     -22.390  -1.761 -39.329  0.00  0.00    -0.323 N 
ATOM     16  C   UNK d   1     -21.266   1.020 -37.183  0.00  0.00     0.059 A 
ATOM     17 Cl   UNK d   1     -20.203   2.395 -37.387  0.00  0.00    -0.083 Cl
ATOM     18  C   UNK d   1     -23.312  -2.844 -39.247  0.00  0.00     0.246 C 
ATOM     19  H   UNK d   1     -21.808  -1.592 -40.187  0.00  0.00     0.169 HD
ATOM     20  O   UNK d   1     -23.153  -3.854 -39.955  0.00  0.00    -0.271 OA
ATOM     21  C   UNK d   1     -24.443  -2.704 -38.295  0.00  0.00     0.278 C 
ENDBRANCH   6   9
ENDBRANCH   1   6
BRANCH   2  22
ATOM     22  C   UNK d   1     -19.306  -0.012 -32.429  0.00  0.00     0.241 C 
ATOM     23  O   UNK d   1     -18.104  -0.129 -32.158  0.00  0.00    -0.271 OA
ATOM     24  N   UNK d   1     -20.359  -0.310 -31.546  0.00  0.00    -0.358 N 
ATOM     25  H   UNK d   1     -21.360  -0.214 -31.811  0.00  0.00     0.162 HD
BRANCH  24  26
ATOM     26  C   UNK d   1     -20.077  -0.782 -30.213  0.00  0.00     0.152 C 
BRANCH  26  27
ATOM     27  C   UNK d   1     -20.035   0.256 -29.158  0.00  0.00     0.292 C 
BRANCH  27  28
ATOM     28  N   UNK d   1     -19.460  -0.123 -27.916  0.00  0.00     0.090 N 
ATOM     29  C   UNK d   1     -18.046   0.040 -27.812  0.00  0.00     0.272 C 
ATOM     30  C   UNK d   1     -17.739   0.543 -26.416  0.00  0.00     0.030 C 
ATOM     31  C   UNK d   1     -18.406  -0.371 -25.410  0.00  0.00     0.002 C 
ATOM     32  C   UNK d   1     -18.120  -1.796 -25.801  0.00  0.00     0.002 C 
ATOM     33  C   UNK d   1     -18.977  -2.321 -26.892  0.00  0.00     0.030 C 
ATOM     34  C   UNK d   1     -19.967  -1.375 -27.459  0.00  0.00     0.272 C 
ENDBRANCH  27  28
ENDBRANCH  26  27
ENDBRANCH  24  26
ENDBRANCH   2  22
TORSDOF 6
ENDMDL
