MODEL 1
REMARK VINA RESULT:    -8.841      0.000      0.000
REMARK INTER + INTRA:         -10.440
REMARK INTER:                  -9.874
REMARK INTRA:                  -0.566
REMARK UNBOUND:                -0.566
REMARK  2 active torsions:
REMARK  status: ('A' for Active; 'I' for Inactive)
REMARK    1  A    between atoms: C_5  and  C_8 
REMARK       I    between atoms: C_8  and  N_10 
REMARK    2  A    between atoms: N_13  and  C_16 
ROOT
ATOM      1  C   UNK d   1     -20.657   0.002 -33.192  0.00  0.00     0.187 C 
ATOM      2  O   UNK d   1     -19.458   0.242 -33.662  0.00  0.00    -0.171 OA
ATOM      3  N   UNK d   1     -21.651   0.835 -33.684  0.00  0.00    -0.356 N 
ATOM      4  C   UNK d   1     -23.040   0.926 -33.379  0.00  0.00     0.145 C 
ATOM      5  C   UNK d   1     -23.750   0.188 -34.532  0.00  0.00     0.144 C 
ATOM      6  N   UNK d   1     -23.059   0.568 -35.777  0.00  0.00    -0.361 N 
ATOM      7  C   UNK d   1     -22.365   1.824 -35.802  0.00  0.00     0.144 C 
ATOM      8  C   UNK d   1     -21.252   1.790 -34.772  0.00  0.00     0.145 C 
ENDROOT
BRANCH   1   9
ATOM      9  C   UNK d   1     -20.702  -1.084 -32.255  0.00  0.00     0.018 A 
ATOM     10  C   UNK d   1     -20.311  -0.870 -30.928  0.00  0.00     0.017 A 
ATOM     11  C   UNK d   1     -20.284  -1.862 -29.976  0.00  0.00     0.025 A 
ATOM     12  C   UNK d   1     -20.651  -3.147 -30.289  0.00  0.00     0.034 A 
ATOM     13 Cl   UNK d   1     -20.619  -4.427 -29.068  0.00  0.00    -0.084 Cl
ATOM     14  C   UNK d   1     -21.041  -3.405 -31.577  0.00  0.00     0.025 A 
ATOM     15  C   UNK d   1     -21.063  -2.381 -32.541  0.00  0.00     0.017 A 
ENDBRANCH   1   9
BRANCH   6  16
ATOM     16  C   UNK d   1     -23.105  -0.310 -36.899  0.00  0.00     0.146 A 
ATOM     17  N   UNK d   1     -22.529   0.026 -38.075  0.00  0.00    -0.147 NA
ATOM     18  N   UNK d   1     -22.554  -0.760 -39.136  0.00  0.00    -0.204 N 
ATOM     19  C   UNK d   1     -23.156  -1.958 -39.128  0.00  0.00     0.174 A 
ATOM     20  C   UNK d   1     -22.049  -0.624 -40.394  0.00  0.00     0.261 A 
ATOM     21  N   UNK d   1     -23.033  -2.553 -40.340  0.00  0.00    -0.129 NA
ATOM     22  C   UNK d   1     -23.770  -2.374 -37.959  0.00  0.00     0.058 A 
ATOM     23  N   UNK d   1     -22.351  -1.723 -41.107  0.00  0.00    -0.141 NA
ATOM     24  C   UNK d   1     -23.730  -1.537 -36.869  0.00  0.00     0.056 A 
ENDBRANCH   6  16
TORSDOF 2
ENDMDL
