MODEL 1
REMARK VINA RESULT:    -9.605      0.000      0.000
REMARK INTER + INTRA:         -11.536
REMARK INTER:                 -11.851
REMARK INTRA:                   0.315
REMARK UNBOUND:                 0.315
REMARK  4 active torsions:
REMARK  status: ('A' for Active; 'I' for Inactive)
REMARK    1  A    between atoms: C_5  and  N_8 
REMARK    2  A    between atoms: N_15  and  C_18 
REMARK    3  A    between atoms: C_20  and  O_26 
REMARK    4  A    between atoms: C_21  and  O_24 
ROOT
ATOM      1  N   UNK d   1     -19.917  -3.552 -28.449  0.00  0.00    -0.234 N 
ATOM      2  N   UNK d   1     -19.997  -4.840 -28.217  0.00  0.00    -0.234 N 
ATOM      3  N   UNK d   1     -20.439  -5.403 -29.337  0.00  0.00    -0.278 N 
ATOM      4  C   UNK d   1     -20.644  -4.475 -30.292  0.00  0.00     0.152 A 
ATOM      5  C   UNK d   1     -20.309  -3.316 -29.714  0.00  0.00     0.160 A 
ATOM      6  C   UNK d   1     -20.520  -2.357 -30.695  0.00  0.00     0.286 A 
ATOM      7  O   UNK d   1     -20.315  -1.134 -30.530  0.00  0.00    -0.265 OA
ATOM      8  N   UNK d   1     -20.967  -2.900 -31.838  0.00  0.00    -0.241 N 
ATOM      9  C   UNK d   1     -21.045  -4.220 -31.587  0.00  0.00     0.286 A 
ATOM     10  O   UNK d   1     -21.429  -5.098 -32.417  0.00  0.00    -0.265 OA
ATOM     11  H   UNK d   1     -19.757  -5.344 -27.312  0.00  0.00     0.209 HD
ATOM     12  H   UNK d   1     -20.597  -6.435 -29.433  0.00  0.00     0.189 HD
ENDROOT
BRANCH   8  13
ATOM     13  C   UNK d   1     -21.299  -2.262 -33.067  0.00  0.00     0.049 A 
ATOM     14  C   UNK d   1     -20.420  -1.443 -33.749  0.00  0.00     0.069 A 
ATOM     15  C   UNK d   1     -20.749  -0.829 -34.941  0.00  0.00     0.103 A 
ATOM     16  C   UNK d   1     -21.992  -1.009 -35.511  0.00  0.00     0.101 A 
ATOM     17  C   UNK d   1     -22.879  -1.824 -34.842  0.00  0.00     0.042 A 
ATOM     18  C   UNK d   1     -22.540  -2.436 -33.648  0.00  0.00     0.033 A 
BRANCH  15  19
ATOM     19  O   UNK d   1     -19.864  -0.004 -35.627  0.00  0.00    -0.353 OA
ATOM     20  C   UNK d   1     -19.081   0.891 -34.859  0.00  0.00     0.210 C 
ENDBRANCH  15  19
BRANCH  16  21
ATOM     21  O   UNK d   1     -22.314  -0.385 -36.714  0.00  0.00    -0.353 OA
ATOM     22  C   UNK d   1     -22.854  -1.054 -37.812  0.00  0.00     0.210 C 
ENDBRANCH  16  21
ENDBRANCH   8  13
BRANCH   1  23
ATOM     23  C   UNK d   1     -19.488  -2.578 -27.522  0.00  0.00     0.058 A 
ATOM     24  C   UNK d   1     -19.280  -2.924 -26.190  0.00  0.00     0.033 A 
ATOM     25  C   UNK d   1     -18.861  -1.921 -25.341  0.00  0.00     0.026 A 
ATOM     26  C   UNK d   1     -18.643  -0.628 -25.724  0.00  0.00     0.034 A 
ATOM     27 Cl   UNK d   1     -18.106   0.622 -24.598  0.00  0.00    -0.084 Cl
ATOM     28  C   UNK d   1     -18.850  -0.297 -27.040  0.00  0.00     0.026 A 
ATOM     29  C   UNK d   1     -19.265  -1.254 -27.922  0.00  0.00     0.033 A 
ENDBRANCH   1  23
TORSDOF 4
ENDMDL
