MODEL 1
REMARK VINA RESULT:    -9.767      0.000      0.000
REMARK INTER + INTRA:         -11.535
REMARK INTER:                 -12.051
REMARK INTRA:                   0.516
REMARK UNBOUND:                 0.516
REMARK  4 active torsions:
REMARK  status: ('A' for Active; 'I' for Inactive)
REMARK    1  A    between atoms: C_5  and  N_8 
REMARK    2  A    between atoms: N_15  and  C_18 
REMARK    3  A    between atoms: C_20  and  O_26 
REMARK    4  A    between atoms: C_22  and  O_24 
ROOT
ATOM      1  N   UNK d   1     -19.975  -3.433 -28.538  0.00  0.00    -0.234 N 
ATOM      2  N   UNK d   1     -20.118  -4.718 -28.283  0.00  0.00    -0.234 N 
ATOM      3  N   UNK d   1     -20.548  -5.269 -29.411  0.00  0.00    -0.278 N 
ATOM      4  C   UNK d   1     -20.683  -4.353 -30.385  0.00  0.00     0.152 A 
ATOM      5  C   UNK d   1     -20.316  -3.191 -29.819  0.00  0.00     0.160 A 
ATOM      6  C   UNK d   1     -20.456  -2.252 -30.823  0.00  0.00     0.286 A 
ATOM      7  O   UNK d   1     -20.193  -1.025 -30.645  0.00  0.00    -0.265 OA
ATOM      8  N   UNK d   1     -20.891  -2.802 -31.968  0.00  0.00    -0.241 N 
ATOM      9  C   UNK d   1     -21.033  -4.111 -31.697  0.00  0.00     0.286 A 
ATOM     10  O   UNK d   1     -21.431  -4.972 -32.538  0.00  0.00    -0.265 OA
ATOM     11  H   UNK d   1     -19.925  -5.188 -27.366  0.00  0.00     0.209 HD
ATOM     12  H   UNK d   1     -20.758  -6.284 -29.530  0.00  0.00     0.189 HD
ENDROOT
BRANCH   8  13
ATOM     13  C   UNK d   1     -21.132  -2.098 -33.184  0.00  0.00     0.051 A 
ATOM     14  C   UNK d   1     -22.285  -2.276 -33.922  0.00  0.00     0.067 A 
ATOM     15  C   UNK d   1     -22.541  -1.606 -35.101  0.00  0.00     0.073 A 
ATOM     16  C   UNK d   1     -21.597  -0.714 -35.565  0.00  0.00     0.073 A 
ATOM     17  C   UNK d   1     -20.426  -0.497 -34.868  0.00  0.00     0.073 A 
ATOM     18  C   UNK d   1     -20.212  -1.197 -33.685  0.00  0.00     0.067 A 
BRANCH  15  19
ATOM     19  O   UNK d   1     -23.734  -1.824 -35.817  0.00  0.00    -0.356 OA
ATOM     20  C   UNK d   1     -23.703  -1.786 -37.225  0.00  0.00     0.210 C 
ENDBRANCH  15  19
BRANCH  17  21
ATOM     21  O   UNK d   1     -19.498   0.409 -35.367  0.00  0.00    -0.356 OA
ATOM     22  C   UNK d   1     -19.155   0.448 -36.725  0.00  0.00     0.210 C 
ENDBRANCH  17  21
ENDBRANCH   8  13
BRANCH   1  23
ATOM     23  C   UNK d   1     -19.533  -2.450 -27.617  0.00  0.00     0.058 A 
ATOM     24  C   UNK d   1     -19.351  -1.124 -27.978  0.00  0.00     0.033 A 
ATOM     25  C   UNK d   1     -18.923  -0.200 -27.061  0.00  0.00     0.026 A 
ATOM     26  C   UNK d   1     -18.657  -0.541 -25.751  0.00  0.00     0.034 A 
ATOM     27 Cl   UNK d   1     -18.106   0.693 -24.611  0.00  0.00    -0.084 Cl
ATOM     28  C   UNK d   1     -18.830  -1.847 -25.373  0.00  0.00     0.026 A 
ATOM     29  C   UNK d   1     -19.261  -2.775 -26.298  0.00  0.00     0.033 A 
ENDBRANCH   1  23
TORSDOF 4
ENDMDL
