MODEL 1
REMARK VINA RESULT:    -8.488      0.000      0.000
REMARK INTER + INTRA:         -10.599
REMARK INTER:                  -9.977
REMARK INTRA:                  -0.622
REMARK UNBOUND:                -0.622
REMARK  3 active torsions:
REMARK  status: ('A' for Active; 'I' for Inactive)
REMARK    1  A    between atoms: N_15  and  C_19 
REMARK    2  A    between atoms: C_19  and  C_20 
REMARK       I    between atoms: C_20  and  N_22 
REMARK    3  A    between atoms: N_22  and  C_23 
ROOT
ATOM      1 Cl   UNK d   1     -17.931   0.325 -27.753  0.00  0.00    -0.084 Cl
ATOM      2  C   UNK d   1     -18.860  -0.771 -28.776  0.00  0.00     0.036 A 
ATOM      3  C   UNK d   1     -19.108  -0.450 -30.099  0.00  0.00     0.055 A 
ATOM      4  C   UNK d   1     -19.826  -1.291 -30.903  0.00  0.00     0.077 A 
ATOM      5  C   UNK d   1     -20.284  -2.456 -30.336  0.00  0.00     0.038 A 
ATOM      6  C   UNK d   1     -20.052  -2.798 -29.029  0.00  0.00     0.019 A 
ATOM      7  C   UNK d   1     -19.323  -1.937 -28.226  0.00  0.00     0.025 A 
ATOM      8  C   UNK d   1     -21.063  -3.389 -31.174  0.00  0.00     0.153 A 
ATOM      9  N   UNK d   1     -21.613  -4.528 -30.940  0.00  0.00    -0.270 NA
ATOM     10  C   UNK d   1     -22.275  -5.059 -32.097  0.00  0.00     0.172 A 
ATOM     11  C   UNK d   1     -22.057  -4.037 -33.164  0.00  0.00     0.171 A 
ATOM     12  N   UNK d   1     -21.283  -3.002 -32.520  0.00  0.00    -0.160 N 
ATOM     13  C   UNK d   1     -20.782  -1.771 -33.061  0.00  0.00     0.736 A 
ATOM     14  N   UNK d   1     -20.865  -1.212 -34.277  0.00  0.00     0.025 NA
ATOM     15  N   UNK d   1     -20.232  -0.052 -34.288  0.00  0.00    -0.194 N 
ATOM     16  C   UNK d   1     -19.747   0.107 -33.044  0.00  0.00     0.365 A 
ATOM     17  O   UNK d   1     -19.082   1.104 -32.674  0.00  0.00    -0.244 OA
ATOM     18  N   UNK d   1     -20.077  -0.954 -32.259  0.00  0.00    -0.090 N 
ENDROOT
BRANCH  15  19
ATOM     19  C   UNK d   1     -20.078   0.881 -35.399  0.00  0.00     0.259 C 
BRANCH  19  20
ATOM     20  C   UNK d   1     -21.240   0.742 -36.308  0.00  0.00     0.237 C 
ATOM     21  O   UNK d   1     -22.041   1.712 -36.422  0.00  0.00    -0.272 OA
ATOM     22  N   UNK d   1     -21.494  -0.438 -37.056  0.00  0.00    -0.356 N 
ATOM     23  H   UNK d   1     -20.824  -1.227 -36.949  0.00  0.00     0.162 HD
BRANCH  22  24
ATOM     24  C   UNK d   1     -22.642  -0.527 -37.929  0.00  0.00     0.076 C 
ATOM     25  C   UNK d   1     -22.227  -1.033 -39.313  0.00  0.00     0.032 C 
ATOM     26  C   UNK d   1     -23.548  -1.605 -37.349  0.00  0.00     0.032 C 
ENDBRANCH  22  24
ENDBRANCH  19  20
ENDBRANCH  15  19
TORSDOF 3
ENDMDL
