MODEL 1
REMARK VINA RESULT:    -8.156      0.000      0.000
REMARK INTER + INTRA:         -10.947
REMARK INTER:                 -10.540
REMARK INTRA:                  -0.407
REMARK UNBOUND:                -0.407
REMARK  5 active torsions:
REMARK  status: ('A' for Active; 'I' for Inactive)
REMARK    1  A    between atoms: N_15  and  C_19 
REMARK    2  A    between atoms: C_19  and  C_20 
REMARK       I    between atoms: C_20  and  N_22 
REMARK    3  A    between atoms: N_22  and  C_23 
REMARK    4  A    between atoms: C_23  and  C_24 
REMARK    5  A    between atoms: C_24  and  O_25 
ROOT
ATOM      1 Cl   UNK d   1     -17.957   1.800 -25.698  0.00  0.00    -0.084 Cl
ATOM      2  C   UNK d   1     -18.488   0.213 -26.262  0.00  0.00     0.036 A 
ATOM      3  C   UNK d   1     -18.801   0.064 -27.615  0.00  0.00     0.055 A 
ATOM      4  C   UNK d   1     -19.213  -1.151 -28.125  0.00  0.00     0.077 A 
ATOM      5  C   UNK d   1     -19.301  -2.200 -27.231  0.00  0.00     0.038 A 
ATOM      6  C   UNK d   1     -19.007  -2.098 -25.912  0.00  0.00     0.019 A 
ATOM      7  C   UNK d   1     -18.588  -0.859 -25.404  0.00  0.00     0.025 A 
ATOM      8  C   UNK d   1     -19.743  -3.499 -27.798  0.00  0.00     0.153 A 
ATOM      9  N   UNK d   1     -19.927  -4.659 -27.244  0.00  0.00    -0.270 NA
ATOM     10  C   UNK d   1     -20.366  -5.626 -28.224  0.00  0.00     0.172 A 
ATOM     11  C   UNK d   1     -20.430  -4.906 -29.549  0.00  0.00     0.171 A 
ATOM     12  N   UNK d   1     -20.033  -3.560 -29.171  0.00  0.00    -0.160 N 
ATOM     13  C   UNK d   1     -19.918  -2.427 -30.029  0.00  0.00     0.736 A 
ATOM     14  N   UNK d   1     -20.135  -2.273 -31.352  0.00  0.00     0.025 NA
ATOM     15  N   UNK d   1     -19.875  -1.012 -31.691  0.00  0.00    -0.194 N 
ATOM     16  C   UNK d   1     -19.501  -0.414 -30.563  0.00  0.00     0.365 A 
ATOM     17  O   UNK d   1     -19.166   0.800 -30.464  0.00  0.00    -0.244 OA
ATOM     18  N   UNK d   1     -19.519  -1.272 -29.505  0.00  0.00    -0.090 N 
ENDROOT
BRANCH  15  19
ATOM     19  C   UNK d   1     -19.972  -0.432 -33.034  0.00  0.00     0.259 C 
BRANCH  19  20
ATOM     20  C   UNK d   1     -21.513  -0.314 -33.244  0.00  0.00     0.237 C 
ATOM     21  O   UNK d   1     -21.931   0.669 -32.537  0.00  0.00    -0.272 OA
ATOM     22  N   UNK d   1     -22.164  -1.166 -34.048  0.00  0.00    -0.358 N 
ATOM     23  H   UNK d   1     -23.315  -0.472 -33.856  0.00  0.00     0.162 HD
BRANCH  22  24
ATOM     24  C   UNK d   1     -22.832  -2.042 -34.874  0.00  0.00     0.148 C 
BRANCH  24  25
ATOM     25  C   UNK d   1     -23.026  -1.484 -36.289  0.00  0.00     0.186 C 
BRANCH  25  26
ATOM     26  O   UNK d   1     -23.769  -2.337 -37.069  0.00  0.00    -0.394 OA
ATOM     27  C   UNK d   1     -23.436  -2.362 -38.393  0.00  0.00     0.201 C 
ENDBRANCH  25  26
ENDBRANCH  24  25
ENDBRANCH  22  24
ENDBRANCH  19  20
ENDBRANCH  15  19
TORSDOF 5
ENDMDL
