MODEL 1
REMARK VINA RESULT:    -9.950      0.000      0.000
REMARK INTER + INTRA:         -12.043
REMARK INTER:                 -11.695
REMARK INTRA:                  -0.348
REMARK UNBOUND:                -0.348
REMARK  3 active torsions:
REMARK  status: ('A' for Active; 'I' for Inactive)
REMARK    1  A    between atoms: C_10  and  N_11 
REMARK    2  A    between atoms: N_14  and  C_17 
REMARK    3  A    between atoms: C_22  and  C_23 
REMARK       I    between atoms: C_23  and  N_25 
ROOT
ATOM      1  N   UNK d   1     -22.013  -1.146 -34.679  0.00  0.00    -0.384 N 
ATOM      2  C   UNK d   1     -20.933  -0.406 -35.298  0.00  0.00     0.142 C 
ATOM      3  C   UNK d   1     -21.434   0.062 -36.674  0.00  0.00     0.144 C 
ATOM      4  N   UNK d   1     -22.701  -0.496 -37.000  0.00  0.00    -0.362 N 
ATOM      5  C   UNK d   1     -23.781  -0.117 -36.090  0.00  0.00     0.144 C 
ATOM      6  C   UNK d   1     -23.338  -0.558 -34.715  0.00  0.00     0.142 C 
ENDROOT
BRANCH   1   7
ATOM      7  C   UNK d   1     -21.830  -2.391 -34.019  0.00  0.00     0.134 C 
ATOM      8  C   UNK d   1     -21.424  -2.578 -32.785  0.00  0.00     0.124 A 
ATOM      9  N   UNK d   1     -21.100  -1.512 -31.914  0.00  0.00    -0.340 N 
ATOM     10  N   UNK d   1     -21.293  -3.925 -32.276  0.00  0.00    -0.308 N 
ATOM     11  C   UNK d   1     -20.656  -1.762 -30.561  0.00  0.00     0.049 A 
ATOM     12  H   UNK d   1     -21.180  -0.532 -32.239  0.00  0.00     0.167 HD
ATOM     13  C   UNK d   1     -20.526  -3.032 -30.059  0.00  0.00     0.060 A 
ATOM     14  C   UNK d   1     -20.353  -0.699 -29.750  0.00  0.00     0.032 A 
ATOM     15  C   UNK d   1     -20.098  -3.235 -28.762  0.00  0.00     0.043 A 
ATOM     16  C   UNK d   1     -20.855  -4.138 -30.947  0.00  0.00     0.259 A 
ATOM     17  C   UNK d   1     -19.797  -2.178 -27.959  0.00  0.00     0.035 A 
ATOM     18 Cl   UNK d   1     -19.247  -2.376 -26.296  0.00  0.00    -0.084 Cl
ATOM     19  C   UNK d   1     -19.924  -0.899 -28.450  0.00  0.00     0.026 A 
ATOM     20  O   UNK d   1     -20.732  -5.320 -30.474  0.00  0.00    -0.267 OA
ATOM     21  H   UNK d   1     -21.522  -4.733 -32.888  0.00  0.00     0.170 HD
ENDBRANCH   1   7
BRANCH   4  22
ATOM     22  C   UNK d   1     -23.048  -1.371 -38.060  0.00  0.00     0.141 A 
ATOM     23  N   UNK d   1     -23.697  -2.552 -37.743  0.00  0.00    -0.242 NA
ATOM     24  C   UNK d   1     -24.064  -3.463 -38.643  0.00  0.00     0.119 A 
ATOM     25  C   UNK d   1     -23.785  -3.219 -39.959  0.00  0.00     0.020 A 
ATOM     26  C   UNK d   1     -23.146  -2.063 -40.309  0.00  0.00     0.022 A 
ATOM     27  C   UNK d   1     -22.756  -1.095 -39.362  0.00  0.00     0.077 A 
BRANCH  27  28
ATOM     28  C   UNK d   1     -22.116   0.119 -39.768  0.00  0.00     0.253 C 
ATOM     29  O   UNK d   1     -22.656   1.219 -39.859  0.00  0.00    -0.268 OA
ATOM     30  N   UNK d   1     -20.734   0.078 -40.100  0.00  0.00    -0.366 N 
ATOM     31  H   UNK d   1     -20.013  -0.102 -39.366  0.00  0.00     0.159 HD
ATOM     32  H   UNK d   1     -20.369   0.219 -41.068  0.00  0.00     0.159 HD
ENDBRANCH  27  28
ENDBRANCH   4  22
TORSDOF 3
ENDMDL
