/Users/jonathanwahrer/Desktop/Msc/3_Semester/Drug_Design_Praktikum/waehrer_HTS_screening/HTS_experiment/out/docking_results/vina_output/5l4q/1808_docked.pdbqt
 OpenBabel03212219043D

 24 28  0  0  1  0  0  0  0  0999 V2000
  -21.1870   -1.3950  -33.4050 N   0  0  0  0  0  0  0  0  0  0  0  0
  -20.4610   -0.6130  -34.3410 C   0  0  0  0  0  0  0  0  0  0  0  0
  -19.2900   -0.2010  -34.1570 O   0  0  0  0  0  0  0  0  0  0  0  0
  -21.3090   -0.3770  -35.5400 C   0  0  2  0  0  3  0  0  0  0  0  0
  -22.0480    0.9240  -35.4640 C   0  0  1  0  0  0  0  0  0  0  0  0
  -23.2200    0.5940  -36.1810 O   0  0  0  0  0  0  0  0  0  0  0  0
  -23.6440   -0.4630  -35.3370 C   0  0  1  0  0  3  0  0  0  0  0  0
  -22.4630   -1.3700  -35.3980 C   0  0  2  0  0  3  0  0  0  0  0  0
  -22.2600   -2.0430  -34.0870 C   0  0  0  0  0  0  0  0  0  0  0  0
  -22.9210   -3.0020  -33.6780 O   0  0  0  0  0  0  0  0  0  0  0  0
  -23.6250    0.2470  -34.0310 C   0  0  0  0  0  2  0  0  0  0  0  0
  -22.5810    1.0680  -34.1000 C   0  0  0  0  0  2  0  0  0  0  0  0
  -20.8380   -1.4680  -32.0170 C   0  0  0  0  0  0  0  0  0  0  0  0
  -20.7670   -0.3410  -31.2290 C   0  0  0  0  0  3  0  0  0  0  0  0
  -20.4300   -0.3980  -29.8950 C   0  0  0  0  0  3  0  0  0  0  0  0
  -20.1570   -1.6260  -29.3450 C   0  0  0  0  0  0  0  0  0  0  0  0
  -19.6880   -1.7450  -27.5100 Br  0  0  0  0  0  0  0  0  0  0  0  0
  -20.2190   -2.7640  -30.1100 C   0  0  0  0  0  3  0  0  0  0  0  0
  -20.5610   -2.7100  -31.4630 C   0  0  0  0  0  3  0  0  0  0  0  0
  -21.3450    2.0870  -36.0190 C   0  0  0  0  0  3  0  0  0  0  0  0
  -22.1720    3.0230  -36.5780 O   0  0  0  0  0  0  0  0  0  0  0  0
  -21.9900    3.0160  -37.9380 C   0  0  0  0  0  2  0  0  0  0  0  0
  -20.9480    1.9840  -38.2200 C   0  0  0  0  0  2  0  0  0  0  0  0
  -20.4080    1.7190  -36.9670 O   0  0  0  0  0  0  0  0  0  0  0  0
  1 13  1  0  0  0  0
  2  3  2  0  0  0  0
  2  1  1  0  0  0  0
  4  5  1  0  0  0  0
  4  8  1  0  0  0  0
  4  2  1  1  0  0  0
  5 20  1  6  0  0  0
  5 12  1  0  0  0  0
  6  5  1  0  0  0  0
  6  7  1  0  0  0  0
  7 11  1  1  0  0  0
  8  7  1  0  0  0  0
  8  9  1  1  0  0  0
  9 10  2  0  0  0  0
  9  1  1  0  0  0  0
 12 11  1  0  0  0  0
 13 19  2  0  0  0  0
 13 14  1  0  0  0  0
 14 15  2  0  0  0  0
 15 16  1  0  0  0  0
 16 17  1  0  0  0  0
 18 16  2  0  0  0  0
 19 18  1  0  0  0  0
 21 20  1  0  0  0  0
 22 21  1  0  0  0  0
 23 22  1  0  0  0  0
 23 24  1  0  0  0  0
 24 20  1  0  0  0  0
M  END
>  <Pose>
1

>  <Score>
-7.679

$$$$
