MODEL 1
REMARK VINA RESULT:    -8.803      0.000      0.000
REMARK INTER + INTRA:         -11.549
REMARK INTER:                 -11.376
REMARK INTRA:                  -0.174
REMARK UNBOUND:                -0.174
REMARK  5 active torsions:
REMARK  status: ('A' for Active; 'I' for Inactive)
REMARK    1  A    between atoms: S_1  and  N_4 
REMARK    2  A    between atoms: S_1  and  C_26 
REMARK       I    between atoms: N_7  and  C_10 
REMARK    3  A    between atoms: C_10  and  C_12 
REMARK    4  A    between atoms: N_14  and  C_18 
REMARK    5  A    between atoms: C_18  and  C_19 
ROOT
ATOM      1  N   UNK d   1     -21.961   1.553 -37.899  0.00  0.00    -0.203 NA
ATOM      2  C   UNK d   1     -22.312   2.743 -37.165  0.00  0.00     0.127 C 
ATOM      3  C   UNK d   1     -21.241   2.976 -36.125  0.00  0.00     0.141 C 
ATOM      4  N   UNK d   1     -20.115   2.120 -36.398  0.00  0.00    -0.349 N 
ATOM      5  C   UNK d   1     -19.627   1.908 -37.756  0.00  0.00     0.141 C 
ATOM      6  C   UNK d   1     -20.812   1.867 -38.724  0.00  0.00     0.127 C 
ATOM      7  C   UNK d   1     -19.466   1.459 -35.340  0.00  0.00     0.226 C 
ATOM      8  O   UNK d   1     -18.443   0.735 -35.596  0.00  0.00    -0.273 OA
ENDROOT
BRANCH   7   9
ATOM      9  C   UNK d   1     -19.964   1.594 -33.944  0.00  0.00     0.105 C 
ATOM     10  C   UNK d   1     -20.966   0.537 -33.579  0.00  0.00     0.140 C 
ATOM     11  N   UNK d   1     -20.241  -0.414 -32.741  0.00  0.00    -0.347 N 
ATOM     12  C   UNK d   1     -18.881  -0.032 -32.651  0.00  0.00     0.221 C 
ATOM     13  O   UNK d   1     -17.940  -0.812 -32.370  0.00  0.00    -0.273 OA
ATOM     14  C   UNK d   1     -18.852   1.416 -32.948  0.00  0.00     0.118 C 
BRANCH  11  15
ATOM     15  C   UNK d   1     -20.836  -1.570 -32.110  0.00  0.00     0.166 C 
BRANCH  15  16
ATOM     16  C   UNK d   1     -20.602  -1.581 -30.647  0.00  0.00    -0.018 A 
ATOM     17  C   UNK d   1     -20.567  -2.795 -29.976  0.00  0.00     0.042 A 
ATOM     18  C   UNK d   1     -20.355  -2.884 -28.611  0.00  0.00     0.024 A 
ATOM     19 Cl   UNK d   1     -20.800  -4.252 -30.902  0.00  0.00    -0.084 Cl
ATOM     20  C   UNK d   1     -20.177  -1.701 -27.922  0.00  0.00     0.002 A 
ATOM     21  C   UNK d   1     -20.205  -0.473 -28.560  0.00  0.00     0.001 A 
ATOM     22  C   UNK d   1     -20.421  -0.414 -29.936  0.00  0.00     0.010 A 
ENDBRANCH  15  16
ENDBRANCH  11  15
ENDBRANCH   7   9
BRANCH   1  23
ATOM     23  S   UNK d   1     -23.287   0.976 -38.828  0.00  0.00     0.248 S 
ATOM     24  O   UNK d   1     -23.536   1.839 -40.033  0.00  0.00    -0.206 OA
ATOM     25  O   UNK d   1     -24.519   1.114 -37.960  0.00  0.00    -0.206 OA
BRANCH  23  26
ATOM     26  C   UNK d   1     -23.090  -0.695 -39.260  0.00  0.00     0.132 A 
ATOM     27  C   UNK d   1     -23.454  -1.846 -38.597  0.00  0.00     0.083 A 
ATOM     28  N   UNK d   1     -23.060  -2.907 -39.365  0.00  0.00    -0.132 NA
ATOM     29  C   UNK d   1     -24.149  -1.895 -37.297  0.00  0.00     0.074 C 
ATOM     30  O   UNK d   1     -22.500  -2.439 -40.416  0.00  0.00    -0.216 OA
ATOM     31  C   UNK d   1     -22.481  -1.128 -40.422  0.00  0.00     0.100 A 
ATOM     32  C   UNK d   1     -21.894  -0.324 -41.517  0.00  0.00     0.081 C 
ENDBRANCH  23  26
ENDBRANCH   1  23
TORSDOF 5
ENDMDL
