/Users/jonathanwahrer/Desktop/Msc/3_Semester/Drug_Design_Praktikum/waehrer_HTS_screening/HTS_experiment/out/docking_results/vina_output/5l4q/1816_docked.pdbqt
 OpenBabel03212219043D

 36 39  0  0  0  0  0  0  0  0999 V2000
  -19.8620   -2.4570  -30.4650 C   0  0  0  0  0  0  0  0  0  0  0  0
  -18.6310   -2.1130  -30.4030 O   0  0  0  0  0  0  0  0  0  0  0  0
  -20.3880   -2.7340  -31.7140 N   0  0  0  0  0  0  0  0  0  0  0  0
  -19.6290   -2.6520  -32.9230 C   0  0  0  0  0  2  0  0  0  0  0  0
  -20.3050   -1.6240  -33.8330 C   0  0  0  0  0  2  0  0  0  0  0  0
  -21.6680   -1.9860  -34.0280 N   0  0  0  0  0  0  0  0  0  0  0  0
  -22.1370   -3.1970  -33.3220 C   0  0  0  0  0  2  0  0  0  0  0  0
  -21.7710   -3.1300  -31.8560 C   0  0  0  0  0  2  0  0  0  0  0  0
  -22.5990   -1.2870  -34.8250 C   0  0  0  0  0  0  0  0  0  0  0  0
  -23.8040   -1.8480  -34.8420 O   0  0  0  0  0  0  0  0  0  0  0  0
  -20.6160   -2.5280  -29.1840 C   0  0  0  0  0  2  0  0  0  0  0  0
  -19.9630   -1.7230  -28.1270 C   0  0  0  0  0  0  0  0  0  0  0  0
  -19.4220   -2.3500  -27.0050 C   0  0  0  0  0  0  0  0  0  0  0  0
  -18.8320   -1.6880  -26.0410 O   0  0  0  0  0  0  0  0  0  0  0  0
  -19.5290   -3.6210  -26.9610 O   0  0  0  0  0  0  0  0  0  0  0  0
  -18.7020   -0.3840  -26.0490 C   0  0  0  0  0  0  0  0  0  0  0  0
  -19.2010    0.3340  -27.1110 C   0  0  0  0  0  0  0  0  0  0  0  0
  -18.0660    0.2960  -25.0020 C   0  0  0  0  0  3  0  0  0  0  0  0
  -19.0560    1.7000  -27.1070 C   0  0  0  0  0  3  0  0  0  0  0  0
  -19.8330   -0.3530  -28.1520 C   0  0  0  0  0  0  0  0  0  0  0  0
  -18.4250    2.3720  -26.0650 C   0  0  0  0  0  0  0  0  0  0  0  0
  -18.2410    4.1110  -26.0550 Cl  0  0  0  0  0  0  0  0  0  0  0  0
  -17.9220    1.6640  -24.9970 C   0  0  0  0  0  0  0  0  0  0  0  0
  -20.3560    0.4170  -29.2770 C   0  0  0  0  0  1  0  0  0  0  0  0
  -17.2820    2.3380  -23.9400 O   0  0  0  0  0  0  0  0  0  0  0  0
  -16.9640    1.6940  -22.7310 C   0  0  0  0  0  1  0  0  0  0  0  0
  -22.4820   -0.0960  -35.6100 C   0  0  0  0  0  0  0  0  0  0  0  0
  -22.6780   -0.1660  -37.0130 C   0  0  0  0  0  3  0  0  0  0  0  0
  -22.5700    0.9490  -37.8000 C   0  0  0  0  0  0  0  0  0  0  0  0
  -22.7490    0.8590  -39.0430 O   0  0  0  0  0  0  0  0  0  0  0  0
  -22.2760    2.1580  -37.3050 N   0  0  0  0  0  0  0  0  0  0  0  0
  -22.0910    2.2250  -35.9860 C   0  0  0  0  0  0  0  0  0  0  0  0
  -22.1640    3.3230  -38.1520 C   0  0  0  0  0  1  0  0  0  0  0  0
  -21.8090    3.3530  -35.4640 O   0  0  0  0  0  0  0  0  0  0  0  0
  -22.1930    1.1210  -35.1650 N   0  0  0  0  0  0  0  0  0  0  0  0
  -22.0350    1.2810  -34.1500 H   0  0  0  0  0  0  0  0  0  0  0  0
  1  2  2  0  0  0  0
  1 11  1  0  0  0  0
  3  1  1  0  0  0  0
  4  3  1  0  0  0  0
  5  4  1  0  0  0  0
  6  5  1  0  0  0  0
  6  7  1  0  0  0  0
  7  8  1  0  0  0  0
  8  3  1  0  0  0  0
  9  6  1  0  0  0  0
 10  9  2  0  0  0  0
 11 12  1  0  0  0  0
 12 13  1  0  0  0  0
 13 15  2  0  0  0  0
 13 14  1  0  0  0  0
 16 14  1  0  0  0  0
 16 18  1  0  0  0  0
 17 19  1  0  0  0  0
 17 16  2  0  0  0  0
 18 23  2  0  0  0  0
 19 21  2  0  0  0  0
 20 12  2  0  0  0  0
 20 17  1  0  0  0  0
 21 22  1  0  0  0  0
 21 23  1  0  0  0  0
 23 25  1  0  0  0  0
 24 20  1  0  0  0  0
 25 26  1  0  0  0  0
 27 35  1  0  0  0  0
 27  9  1  0  0  0  0
 28 27  2  0  0  0  0
 29 31  1  0  0  0  0
 29 28  1  0  0  0  0
 30 29  2  0  0  0  0
 31 32  1  0  0  0  0
 32 34  2  0  0  0  0
 32 35  1  0  0  0  0
 33 31  1  0  0  0  0
 35 36  1  0  0  0  0
M  END
>  <Pose>
1

>  <Score>
-9.596

$$$$
