MODEL 1
REMARK VINA RESULT:    -9.596      0.000      0.000
REMARK INTER + INTRA:         -11.980
REMARK INTER:                 -11.840
REMARK INTRA:                  -0.140
REMARK UNBOUND:                -0.140
REMARK  4 active torsions:
REMARK  status: ('A' for Active; 'I' for Inactive)
REMARK    1  A    between atoms: C_7  and  O_8 
REMARK    2  A    between atoms: C_13  and  C_16 
REMARK    3  A    between atoms: C_16  and  C_17 
REMARK       I    between atoms: C_17  and  N_19 
REMARK       I    between atoms: N_22  and  C_25 
REMARK    4  A    between atoms: C_25  and  C_27 
ROOT
ATOM      1  C   UNK d   1     -19.862  -2.457 -30.465  0.00  0.00     0.224 C 
ATOM      2  O   UNK d   1     -18.631  -2.113 -30.403  0.00  0.00    -0.273 OA
ATOM      3  N   UNK d   1     -20.388  -2.734 -31.714  0.00  0.00    -0.349 N 
ATOM      4  C   UNK d   1     -19.629  -2.652 -32.923  0.00  0.00     0.145 C 
ATOM      5  C   UNK d   1     -20.305  -1.624 -33.833  0.00  0.00     0.145 C 
ATOM      6  N   UNK d   1     -21.668  -1.986 -34.028  0.00  0.00    -0.355 N 
ATOM      7  C   UNK d   1     -22.137  -3.197 -33.322  0.00  0.00     0.145 C 
ATOM      8  C   UNK d   1     -21.771  -3.130 -31.856  0.00  0.00     0.145 C 
ATOM      9  C   UNK d   1     -22.599  -1.287 -34.825  0.00  0.00     0.204 C 
ATOM     10  O   UNK d   1     -23.804  -1.848 -34.842  0.00  0.00    -0.170 OA
ENDROOT
BRANCH   1  11
ATOM     11  C   UNK d   1     -20.616  -2.528 -29.184  0.00  0.00     0.148 C 
BRANCH  11  12
ATOM     12  C   UNK d   1     -19.963  -1.723 -28.127  0.00  0.00     0.033 A 
ATOM     13  C   UNK d   1     -19.422  -2.350 -27.005  0.00  0.00     0.295 A 
ATOM     14  O   UNK d   1     -18.832  -1.688 -26.041  0.00  0.00    -0.274 OA
ATOM     15  O   UNK d   1     -19.529  -3.621 -26.961  0.00  0.00    -0.259 OA
ATOM     16  C   UNK d   1     -18.702  -0.384 -26.049  0.00  0.00     0.093 A 
ATOM     17  C   UNK d   1     -19.201   0.334 -27.111  0.00  0.00     0.006 A 
ATOM     18  C   UNK d   1     -18.066   0.296 -25.002  0.00  0.00     0.076 A 
ATOM     19  C   UNK d   1     -19.056   1.700 -27.107  0.00  0.00     0.041 A 
ATOM     20  C   UNK d   1     -19.833  -0.353 -28.152  0.00  0.00    -0.036 A 
ATOM     21  C   UNK d   1     -18.425   2.372 -26.065  0.00  0.00     0.068 A 
ATOM     22 Cl   UNK d   1     -18.241   4.111 -26.055  0.00  0.00    -0.081 Cl
ATOM     23  C   UNK d   1     -17.922   1.664 -24.997  0.00  0.00     0.092 A 
ATOM     24  C   UNK d   1     -20.356   0.417 -29.277  0.00  0.00     0.050 C 
BRANCH  23  25
ATOM     25  O   UNK d   1     -17.282   2.338 -23.940  0.00  0.00    -0.354 OA
ATOM     26  C   UNK d   1     -16.964   1.694 -22.731  0.00  0.00     0.210 C 
ENDBRANCH  23  25
ENDBRANCH  11  12
ENDBRANCH   1  11
BRANCH   9  27
ATOM     27  C   UNK d   1     -22.482  -0.096 -35.610  0.00  0.00     0.095 A 
ATOM     28  C   UNK d   1     -22.678  -0.166 -37.013  0.00  0.00     0.108 A 
ATOM     29  C   UNK d   1     -22.570   0.949 -37.800  0.00  0.00     0.253 A 
ATOM     30  O   UNK d   1     -22.749   0.859 -39.043  0.00  0.00    -0.268 OA
ATOM     31  N   UNK d   1     -22.276   2.158 -37.305  0.00  0.00    -0.271 N 
ATOM     32  C   UNK d   1     -22.091   2.225 -35.986  0.00  0.00     0.329 A 
ATOM     33  C   UNK d   1     -22.164   3.323 -38.152  0.00  0.00     0.164 C 
ATOM     34  O   UNK d   1     -21.809   3.353 -35.464  0.00  0.00    -0.246 OA
ATOM     35  N   UNK d   1     -22.193   1.121 -35.165  0.00  0.00    -0.304 N 
ATOM     36  H   UNK d   1     -22.035   1.281 -34.150  0.00  0.00     0.171 HD
ENDBRANCH   9  27
TORSDOF 4
ENDMDL
