MODEL 1
REMARK VINA RESULT:    -9.085      0.000      0.000
REMARK INTER + INTRA:          -9.924
REMARK INTER:                  -9.616
REMARK INTRA:                  -0.308
REMARK UNBOUND:                -0.308
REMARK  1 active torsions:
REMARK  status: ('A' for Active; 'I' for Inactive)
REMARK    1  A    between atoms: C_8  and  N_10 
ROOT
ATOM      1 Cl   UNK d   1     -24.732   0.711 -37.421  0.00  0.00    -0.076 Cl
ATOM      2  C   UNK d   1     -23.707  -0.225 -36.337  0.00  0.00     0.127 A 
ATOM      3  C   UNK d   1     -23.381  -1.513 -36.695  0.00  0.00     0.050 A 
ATOM      4  N   UNK d   1     -22.599  -2.218 -35.862  0.00  0.00    -0.190 N 
ATOM      5  C   UNK d   1     -22.124  -1.709 -34.695  0.00  0.00     0.747 A 
ATOM      6  N   UNK d   1     -22.436  -0.453 -34.336  0.00  0.00    -0.005 N 
ATOM      7  N   UNK d   1     -21.860  -0.187 -33.167  0.00  0.00     0.046 NA
ATOM      8  C   UNK d   1     -21.163  -1.259 -32.739  0.00  0.00     0.772 A 
ATOM      9  N   UNK d   1     -21.345  -2.190 -33.709  0.00  0.00     0.133 NA
ATOM     10  C   UNK d   1     -23.224   0.287 -35.153  0.00  0.00     0.308 A 
ATOM     11  O   UNK d   1     -23.520   1.477 -34.816  0.00  0.00    -0.264 OA
ATOM     12  C   UNK d   1     -23.897  -2.090 -37.982  0.00  0.00     0.071 C 
ATOM     13  H   UNK d   1     -22.348  -3.199 -36.129  0.00  0.00     0.184 HD
ENDROOT
BRANCH   8  14
ATOM     14  N   UNK d   1     -20.406  -1.389 -31.539  0.00  0.00    -0.076 N 
ATOM     15  C   UNK d   1     -19.413  -0.483 -31.078  0.00  0.00     0.251 C 
ATOM     16  O   UNK d   1     -19.241   0.718 -31.409  0.00  0.00    -0.272 OA
ATOM     17  C   UNK d   1     -18.536  -1.182 -30.079  0.00  0.00     0.096 C 
ATOM     18  C   UNK d   1     -19.241  -2.448 -29.743  0.00  0.00     0.096 C 
ATOM     19  C   UNK d   1     -18.395  -0.304 -28.854  0.00  0.00     0.042 C 
ATOM     20  C   UNK d   1     -19.696  -2.549 -28.298  0.00  0.00     0.042 C 
ATOM     21  C   UNK d   1     -20.467  -2.417 -30.563  0.00  0.00     0.251 C 
ATOM     22  C   UNK d   1     -20.417  -1.272 -27.990  0.00  0.00    -0.030 C 
ATOM     23  C   UNK d   1     -19.752  -0.167 -28.275  0.00  0.00    -0.030 C 
ATOM     24  O   UNK d   1     -21.460  -3.204 -30.426  0.00  0.00    -0.272 OA
ENDBRANCH   8  14
TORSDOF 1
ENDMDL
