/Users/jonathanwahrer/Desktop/Msc/3_Semester/Drug_Design_Praktikum/waehrer_HTS_screening/HTS_experiment/out/docking_results/vina_output/5l4q/1822_docked.pdbqt
 OpenBabel03212219043D

 24 27  0  0  1  0  0  0  0  0999 V2000
  -24.7320    0.7110  -37.4210 Cl  0  0  0  0  0  0  0  0  0  0  0  0
  -23.7070   -0.2250  -36.3370 C   0  0  0  0  0  0  0  0  0  0  0  0
  -23.3810   -1.5130  -36.6950 C   0  0  0  0  0  0  0  0  0  0  0  0
  -22.5990   -2.2180  -35.8620 N   0  0  0  0  0  0  0  0  0  0  0  0
  -22.1240   -1.7090  -34.6950 C   0  0  0  0  0  0  0  0  0  0  0  0
  -22.4360   -0.4530  -34.3360 N   0  0  0  0  0  0  0  0  0  0  0  0
  -21.8600   -0.1870  -33.1670 N   0  0  0  0  0  0  0  0  0  0  0  0
  -21.1630   -1.2590  -32.7390 C   0  0  0  0  0  0  0  0  0  0  0  0
  -21.3450   -2.1900  -33.7090 N   0  0  0  0  0  0  0  0  0  0  0  0
  -23.2240    0.2870  -35.1530 C   0  0  0  0  0  0  0  0  0  0  0  0
  -23.5200    1.4770  -34.8160 O   0  0  0  0  0  0  0  0  0  0  0  0
  -23.8970   -2.0900  -37.9820 C   0  0  0  0  0  1  0  0  0  0  0  0
  -22.3480   -3.1990  -36.1290 H   0  0  0  0  0  0  0  0  0  0  0  0
  -20.4060   -1.3890  -31.5390 N   0  0  0  0  0  0  0  0  0  0  0  0
  -19.4130   -0.4830  -31.0780 C   0  0  0  0  0  0  0  0  0  0  0  0
  -19.2410    0.7180  -31.4090 O   0  0  0  0  0  0  0  0  0  0  0  0
  -18.5360   -1.1820  -30.0790 C   0  0  2  0  0  3  0  0  0  0  0  0
  -19.2410   -2.4480  -29.7430 C   0  0  1  0  0  3  0  0  0  0  0  0
  -18.3950   -0.3040  -28.8540 C   0  0  0  0  0  2  0  0  0  0  0  0
  -19.6960   -2.5490  -28.2980 C   0  0  0  0  0  2  0  0  0  0  0  0
  -20.4670   -2.4170  -30.5630 C   0  0  0  0  0  0  0  0  0  0  0  0
  -20.4170   -1.2720  -27.9900 C   0  0  0  0  0  3  0  0  0  0  0  0
  -19.7520   -0.1670  -28.2750 C   0  0  0  0  0  3  0  0  0  0  0  0
  -21.4600   -3.2040  -30.4260 O   0  0  0  0  0  0  0  0  0  0  0  0
  1  2  1  0  0  0  0
  2 10  1  0  0  0  0
  3  2  2  0  0  0  0
  3  4  1  0  0  0  0
  4  5  1  0  0  0  0
  5  6  1  0  0  0  0
  5  9  2  0  0  0  0
  6  7  1  0  0  0  0
  7  8  2  0  0  0  0
  8 14  1  0  0  0  0
  9  8  1  0  0  0  0
 10 11  2  0  0  0  0
 10  6  1  0  0  0  0
 12  3  1  0  0  0  0
 13  4  1  0  0  0  0
 14 15  1  0  0  0  0
 14 21  1  0  0  0  0
 15 17  1  0  0  0  0
 16 15  2  0  0  0  0
 17 18  1  0  0  0  0
 17 19  1  1  0  0  0
 18 20  1  1  0  0  0
 19 23  1  0  0  0  0
 20 22  1  0  0  0  0
 21 24  2  0  0  0  0
 21 18  1  0  0  0  0
 23 22  2  0  0  0  0
M  END
>  <Pose>
1

>  <Score>
-9.085

$$$$
