/Users/jonathanwahrer/Desktop/Msc/3_Semester/Drug_Design_Praktikum/waehrer_HTS_screening/HTS_experiment/out/docking_results/vina_output/5l4q/1825_docked.pdbqt
 OpenBabel03212219053D

 29 32  0  0  1  0  0  0  0  0999 V2000
  -18.8490   -1.2910  -30.6550 N   0  0  0  0  0  0  0  0  0  0  0  0
  -19.5630   -2.2470  -29.9880 C   0  0  1  0  0  3  0  0  0  0  0  0
  -19.6070   -1.9330  -28.6830 N   0  0  0  0  0  0  0  0  0  0  0  0
  -18.9440   -0.7920  -28.4550 C   0  0  0  0  0  0  0  0  0  0  0  0
  -18.4780   -0.4120  -29.7220 C   0  0  0  0  0  3  0  0  0  0  0  0
  -20.3640   -2.9680  -27.9790 C   0  0  0  0  0  2  0  0  0  0  0  0
  -20.4240   -4.1400  -28.9400 C   0  0  0  0  0  2  0  0  0  0  0  0
  -20.3060   -3.4990  -30.2770 C   0  0  0  0  0  2  0  0  0  0  0  0
  -18.5700   -1.3060  -32.0980 C   0  0  0  0  0  2  0  0  0  0  0  0
  -19.8230   -0.8730  -32.8300 C   0  0  0  0  0  0  0  0  0  0  0  0
  -20.2070   -1.4600  -34.0250 N   0  0  0  0  0  0  0  0  0  0  0  0
  -19.5770   -2.2350  -34.3950 H   0  0  0  0  0  0  0  0  0  0  0  0
  -20.4600    0.0330  -32.2820 O   0  0  0  0  0  0  0  0  0  0  0  0
  -21.3430   -1.1270  -34.7890 C   0  0  0  0  0  0  0  0  0  0  0  0
  -21.1830   -0.2220  -35.8600 C   0  0  0  0  0  0  0  0  0  0  0  0
  -22.2500    0.1520  -36.6450 C   0  0  0  0  0  0  0  0  0  0  0  0
  -19.8510    0.3390  -36.1470 C   0  0  0  0  0  1  0  0  0  0  0  0
  -22.0670    1.2690  -37.9810 Cl  0  0  0  0  0  0  0  0  0  0  0  0
  -23.5170   -0.3360  -36.4220 C   0  0  0  0  0  3  0  0  0  0  0  0
  -23.7030   -1.2160  -35.3870 C   0  0  0  0  0  3  0  0  0  0  0  0
  -22.6080   -1.5970  -34.5860 C   0  0  0  0  0  3  0  0  0  0  0  0
  -18.6880   -0.0330  -27.2420 C   0  0  0  0  0  0  0  0  0  0  0  0
  -18.4080   -0.6270  -26.0430 C   0  0  0  0  0  3  0  0  0  0  0  0
  -18.1430    0.0820  -24.8860 C   0  0  0  0  0  3  0  0  0  0  0  0
  -18.1520    1.4690  -24.8870 C   0  0  0  0  0  0  0  0  0  0  0  0
  -18.4330    2.0680  -26.0910 C   0  0  0  0  0  3  0  0  0  0  0  0
  -18.6970    1.3590  -27.2470 C   0  0  0  0  0  3  0  0  0  0  0  0
  -17.8920    2.2120  -23.7480 O   0  0  0  0  0  0  0  0  0  0  0  0
  -16.9880    1.7880  -22.7450 C   0  0  0  0  0  1  0  0  0  0  0  0
  1  2  1  0  0  0  0
  1  5  1  0  0  0  0
  2  8  1  6  0  0  0
  2  3  1  0  0  0  0
  3  4  1  0  0  0  0
  3  6  1  0  0  0  0
  4 22  1  0  0  0  0
  5  4  2  0  0  0  0
  7  6  1  0  0  0  0
  8  7  1  0  0  0  0
  9  1  1  0  0  0  0
 10 13  2  0  0  0  0
 10  9  1  0  0  0  0
 11 10  1  0  0  0  0
 12 11  1  0  0  0  0
 14 21  1  0  0  0  0
 14 11  1  0  0  0  0
 15 14  2  0  0  0  0
 16 19  2  0  0  0  0
 16 15  1  0  0  0  0
 17 15  1  0  0  0  0
 18 16  1  0  0  0  0
 19 20  1  0  0  0  0
 20 21  2  0  0  0  0
 22 23  1  0  0  0  0
 23 24  2  0  0  0  0
 25 24  1  0  0  0  0
 25 28  1  0  0  0  0
 26 25  2  0  0  0  0
 27 22  2  0  0  0  0
 27 26  1  0  0  0  0
 28 29  1  0  0  0  0
M  END
>  <Pose>
1

>  <Score>
-8.771

$$$$
