MODEL 1
REMARK VINA RESULT:    -8.771      0.000      0.000
REMARK INTER + INTRA:         -11.958
REMARK INTER:                 -11.335
REMARK INTRA:                  -0.623
REMARK UNBOUND:                -0.623
REMARK  5 active torsions:
REMARK  status: ('A' for Active; 'I' for Inactive)
REMARK    1  A    between atoms: C_4  and  N_8 
REMARK       I    between atoms: N_8  and  C_9 
REMARK    2  A    between atoms: C_9  and  C_11 
REMARK    3  A    between atoms: C_11  and  N_12 
REMARK    4  A    between atoms: C_15  and  C_17 
REMARK    5  A    between atoms: C_20  and  O_23 
ROOT
ATOM      1  N   UNK d   1     -18.849  -1.291 -30.655  0.00  0.00    -0.336 N 
ATOM      2  C   UNK d   1     -19.563  -2.247 -29.988  0.00  0.00     0.086 A 
ATOM      3  N   UNK d   1     -19.607  -1.933 -28.683  0.00  0.00    -0.335 N 
ATOM      4  C   UNK d   1     -18.944  -0.792 -28.455  0.00  0.00     0.061 A 
ATOM      5  C   UNK d   1     -18.478  -0.412 -29.722  0.00  0.00     0.123 A 
ATOM      6  C   UNK d   1     -20.364  -2.968 -27.979  0.00  0.00     0.131 C 
ATOM      7  C   UNK d   1     -20.424  -4.140 -28.940  0.00  0.00     0.028 C 
ATOM      8  C   UNK d   1     -20.306  -3.499 -30.277  0.00  0.00     0.078 C 
ENDROOT
BRANCH   1   9
ATOM      9  C   UNK d   1     -18.570  -1.306 -32.098  0.00  0.00     0.232 C 
BRANCH   9  10
ATOM     10  C   UNK d   1     -19.823  -0.873 -32.830  0.00  0.00     0.240 C 
ATOM     11  N   UNK d   1     -20.207  -1.460 -34.025  0.00  0.00    -0.325 N 
ATOM     12  H   UNK d   1     -19.577  -2.235 -34.395  0.00  0.00     0.169 HD
ATOM     13  O   UNK d   1     -20.460   0.033 -32.282  0.00  0.00    -0.271 OA
BRANCH  11  14
ATOM     14  C   UNK d   1     -21.343  -1.127 -34.789  0.00  0.00     0.042 A 
ATOM     15  C   UNK d   1     -21.183  -0.222 -35.860  0.00  0.00    -0.013 A 
ATOM     16  C   UNK d   1     -22.250   0.152 -36.645  0.00  0.00     0.042 A 
ATOM     17  C   UNK d   1     -19.851   0.339 -36.147  0.00  0.00     0.052 C 
ATOM     18 Cl   UNK d   1     -22.067   1.269 -37.981  0.00  0.00    -0.084 Cl
ATOM     19  C   UNK d   1     -23.517  -0.336 -36.422  0.00  0.00     0.024 A 
ATOM     20  C   UNK d   1     -23.703  -1.216 -35.387  0.00  0.00     0.004 A 
ATOM     21  C   UNK d   1     -22.608  -1.597 -34.586  0.00  0.00     0.030 A 
ENDBRANCH  11  14
ENDBRANCH   9  10
ENDBRANCH   1   9
BRANCH   4  22
ATOM     22  C   UNK d   1     -18.688  -0.033 -27.242  0.00  0.00    -0.008 A 
ATOM     23  C   UNK d   1     -18.408  -0.627 -26.043  0.00  0.00     0.016 A 
ATOM     24  C   UNK d   1     -18.143   0.082 -24.886  0.00  0.00     0.037 A 
ATOM     25  C   UNK d   1     -18.152   1.469 -24.887  0.00  0.00     0.068 A 
ATOM     26  C   UNK d   1     -18.433   2.068 -26.091  0.00  0.00     0.037 A 
ATOM     27  C   UNK d   1     -18.697   1.359 -27.247  0.00  0.00     0.016 A 
BRANCH  25  28
ATOM     28  O   UNK d   1     -17.892   2.212 -23.748  0.00  0.00    -0.356 OA
ATOM     29  C   UNK d   1     -16.988   1.788 -22.745  0.00  0.00     0.210 C 
ENDBRANCH  25  28
ENDBRANCH   4  22
TORSDOF 5
ENDMDL
