/Users/jonathanwahrer/Desktop/Msc/3_Semester/Drug_Design_Praktikum/waehrer_HTS_screening/HTS_experiment/out/docking_results/vina_output/5l4q/1837_docked.pdbqt
 OpenBabel03212219053D

 29 32  0  0  0  0  0  0  0  0999 V2000
  -20.0610    1.4220  -37.0330 N   0  0  0  0  0  0  0  0  0  0  0  0
  -18.7600    2.0010  -36.6380 C   0  0  0  0  0  2  0  0  0  0  0  0
  -18.4910    1.3050  -35.2880 C   0  0  0  0  0  2  0  0  0  0  0  0
  -19.8330    1.2050  -34.6950 N   0  0  0  0  0  0  0  0  0  0  0  0
  -20.6730    2.3400  -34.9110 C   0  0  0  0  0  2  0  0  0  0  0  0
  -21.0740    2.2960  -36.3940 C   0  0  0  0  0  2  0  0  0  0  0  0
  -20.2330    1.4870  -38.4730 C   0  0  0  0  0  2  0  0  0  0  0  0
  -21.4430    0.6410  -38.7950 C   0  0  0  0  0  0  0  0  0  0  0  0
  -21.6360   -0.6210  -38.2270 N   0  0  0  0  0  0  0  0  0  0  0  0
  -20.8590   -0.9690  -37.5820 H   0  0  0  0  0  0  0  0  0  0  0  0
  -22.2900    1.1010  -39.6030 O   0  0  0  0  0  0  0  0  0  0  0  0
  -22.7110   -1.5130  -38.4220 C   0  0  0  0  0  0  0  0  0  0  0  0
  -22.6950   -2.4180  -39.4940 C   0  0  0  0  0  3  0  0  0  0  0  0
  -23.7080   -3.3120  -39.7230 C   0  0  0  0  0  3  0  0  0  0  0  0
  -24.8110   -3.3500  -38.8810 C   0  0  0  0  0  0  0  0  0  0  0  0
  -26.1220   -4.4790  -39.1440 Cl  0  0  0  0  0  0  0  0  0  0  0  0
  -24.8420   -2.4700  -37.8270 C   0  0  0  0  0  3  0  0  0  0  0  0
  -23.8060   -1.5700  -37.6060 C   0  0  0  0  0  3  0  0  0  0  0  0
  -20.1790    0.0360  -34.0030 C   0  0  0  0  0  0  0  0  0  0  0  0
  -21.0210   -0.8810  -34.5730 N   0  0  0  0  0  0  0  0  0  0  0  0
  -21.4060   -2.0070  -33.9740 C   0  0  0  0  0  3  0  0  0  0  0  0
  -20.9610   -2.2850  -32.7440 N   0  0  0  0  0  0  0  0  0  0  0  0
  -20.1380   -1.4730  -32.0880 C   0  0  0  0  0  0  0  0  0  0  0  0
  -19.5560   -1.5080  -30.8730 N   0  0  0  0  0  0  0  0  0  0  0  0
  -19.7420   -0.2940  -32.7280 C   0  0  0  0  0  0  0  0  0  0  0  0
  -18.8420   -0.4160  -30.7690 N   0  0  0  0  0  0  0  0  0  0  0  0
  -18.9450    0.3140  -31.8690 N   0  0  0  0  0  0  0  0  0  0  0  0
  -19.6670   -2.5260  -29.8450 C   0  0  0  0  0  2  0  0  0  0  0  0
  -19.9910   -1.9160  -28.4980 C   0  0  0  0  0  1  0  0  0  0  0  0
  1  2  1  0  0  0  0
  1  6  1  0  0  0  0
  2  3  1  0  0  0  0
  3  4  1  0  0  0  0
  4 19  1  0  0  0  0
  5  4  1  0  0  0  0
  6  5  1  0  0  0  0
  7  1  1  0  0  0  0
  8  7  1  0  0  0  0
  8  9  1  0  0  0  0
  9 10  1  0  0  0  0
 11  8  2  0  0  0  0
 12  9  1  0  0  0  0
 12 18  1  0  0  0  0
 13 12  2  0  0  0  0
 14 13  1  0  0  0  0
 14 15  2  0  0  0  0
 15 17  1  0  0  0  0
 16 15  1  0  0  0  0
 17 18  2  0  0  0  0
 19 25  1  0  0  0  0
 20 19  2  0  0  0  0
 20 21  1  0  0  0  0
 21 22  2  0  0  0  0
 22 23  1  0  0  0  0
 23 24  1  0  0  0  0
 24 26  1  0  0  0  0
 24 28  1  0  0  0  0
 25 23  2  0  0  0  0
 25 27  1  0  0  0  0
 27 26  2  0  0  0  0
 28 29  1  0  0  0  0
M  END
>  <Pose>
1

>  <Score>
-8.063

$$$$
