MODEL 1
REMARK VINA RESULT:    -8.926      0.000      0.000
REMARK INTER + INTRA:         -12.215
REMARK INTER:                 -11.535
REMARK INTRA:                  -0.680
REMARK UNBOUND:                -0.680
REMARK  5 active torsions:
REMARK  status: ('A' for Active; 'I' for Inactive)
REMARK    1  A    between atoms: C_3  and  O_29 
REMARK    2  A    between atoms: C_6  and  N_8 
REMARK       I    between atoms: N_8  and  C_9 
REMARK    3  A    between atoms: C_9  and  C_11 
REMARK    4  A    between atoms: C_11  and  N_12 
REMARK    5  A    between atoms: C_17  and  N_23 
ROOT
ATOM      1  N   UNK d   1     -19.825  -2.108 -30.633  0.00  0.00    -0.299 N 
ATOM      2  C   UNK d   1     -19.388  -0.957 -31.190  0.00  0.00     0.215 A 
ATOM      3  N   UNK d   1     -19.864  -0.551 -32.386  0.00  0.00    -0.223 NA
ATOM      4  C   UNK d   1     -20.775  -1.245 -33.078  0.00  0.00     0.186 A 
ATOM      5  N   UNK d   1     -21.255  -0.850 -34.269  0.00  0.00    -0.042 NA
ATOM      6  C   UNK d   1     -22.169  -1.527 -34.984  0.00  0.00     0.726 A 
ATOM      7  N   UNK d   1     -22.622  -2.689 -34.440  0.00  0.00    -0.074 NA
ATOM      8  C   UNK d   1     -22.170  -3.120 -33.252  0.00  0.00     0.157 A 
ATOM      9  C   UNK d   1     -21.231  -2.417 -32.527  0.00  0.00     0.099 A 
ATOM     10  C   UNK d   1     -20.754  -2.844 -31.305  0.00  0.00     0.264 A 
ATOM     11  O   UNK d   1     -21.209  -3.924 -30.854  0.00  0.00    -0.267 OA
ENDROOT
BRANCH   1  12
ATOM     12  C   UNK d   1     -19.373  -2.607 -29.373  0.00  0.00     0.236 C 
BRANCH  12  13
ATOM     13  C   UNK d   1     -19.317  -1.538 -28.317  0.00  0.00     0.240 C 
ATOM     14  N   UNK d   1     -18.098  -1.152 -27.739  0.00  0.00    -0.326 N 
ATOM     15  H   UNK d   1     -17.201  -1.643 -28.070  0.00  0.00     0.169 HD
ATOM     16  O   UNK d   1     -20.403  -1.029 -27.999  0.00  0.00    -0.271 OA
BRANCH  14  17
ATOM     17  C   UNK d   1     -17.986  -0.159 -26.742  0.00  0.00     0.036 A 
ATOM     18  C   UNK d   1     -18.207  -0.342 -25.401  0.00  0.00     0.032 A 
ATOM     19  C   UNK d   1     -18.079   0.725 -24.510  0.00  0.00     0.041 A 
ATOM     20  C   UNK d   1     -17.735   1.996 -24.898  0.00  0.00     0.090 A 
ATOM     21  C   UNK d   1     -17.512   2.190 -26.240  0.00  0.00     0.069 A 
ATOM     22 Cl   UNK d   1     -17.066   3.773 -26.843  0.00  0.00    -0.081 Cl
ATOM     23  C   UNK d   1     -17.634   1.149 -27.126  0.00  0.00     0.056 A 
BRANCH  20  24
ATOM     24  O   UNK d   1     -17.616   3.043 -23.974  0.00  0.00    -0.354 OA
ATOM     25  C   UNK d   1     -16.530   3.067 -23.077  0.00  0.00     0.210 C 
ENDBRANCH  20  24
ENDBRANCH  14  17
ENDBRANCH  12  13
ENDBRANCH   1  12
BRANCH   6  26
ATOM     26  N   UNK d   1     -22.648  -1.076 -36.237  0.00  0.00    -0.210 N 
ATOM     27  C   UNK d   1     -21.960   0.015 -36.886  0.00  0.00     0.167 C 
ATOM     28  C   UNK d   1     -21.892  -0.269 -38.386  0.00  0.00     0.188 C 
ATOM     29  O   UNK d   1     -23.134  -0.637 -38.898  0.00  0.00    -0.388 OA
ATOM     30  C   UNK d   1     -23.430  -1.891 -38.365  0.00  0.00     0.188 C 
ATOM     31  C   UNK d   1     -23.794  -1.655 -36.899  0.00  0.00     0.167 C 
ENDBRANCH   6  26
TORSDOF 5
ENDMDL
