/Users/jonathanwahrer/Desktop/Msc/3_Semester/Drug_Design_Praktikum/waehrer_HTS_screening/HTS_experiment/out/docking_results/vina_output/5l4q/1850_docked.pdbqt
 OpenBabel03212219063D

 24 27  0  0  0  0  0  0  0  0999 V2000
  -20.5500   -4.1650  -28.0560 Cl  0  0  0  0  0  0  0  0  0  0  0  0
  -20.3470   -2.5990  -28.8280 C   0  0  0  0  0  0  0  0  0  0  0  0
  -20.5390   -2.4590  -30.1880 C   0  0  0  0  0  0  0  0  0  0  0  0
  -20.3810   -1.2420  -30.7890 C   0  0  0  0  0  0  0  0  0  0  0  0
  -20.0280   -0.1660  -30.0060 C   0  0  0  0  0  3  0  0  0  0  0  0
  -19.8320   -0.2840  -28.6480 C   0  0  0  0  0  3  0  0  0  0  0  0
  -19.9940   -1.5180  -28.0500 C   0  0  0  0  0  3  0  0  0  0  0  0
  -20.5690   -1.0110  -32.2420 C   0  0  0  0  0  2  0  0  0  0  0  0
  -21.1160   -2.2240  -32.7980 N   0  0  0  0  0  0  0  0  0  0  0  0
  -20.4930   -3.4630  -32.3950 C   0  0  0  0  0  2  0  0  0  0  0  0
  -20.9180   -3.6900  -30.9400 C   0  0  0  0  0  2  0  0  0  0  0  0
  -22.2090   -2.2300  -33.6960 C   0  0  0  0  0  0  0  0  0  0  0  0
  -22.6390   -3.3250  -34.1460 O   0  0  0  0  0  0  0  0  0  0  0  0
  -22.8950   -0.9980  -34.1520 C   0  0  0  0  0  2  0  0  0  0  0  0
  -23.8210   -1.2530  -35.1620 O   0  0  0  0  0  0  0  0  0  0  0  0
  -23.4950   -1.3630  -36.5070 C   0  0  0  0  0  0  0  0  0  0  0  0
  -23.9580   -2.4140  -37.2120 N   0  0  0  0  0  0  0  0  0  0  0  0
  -23.6820   -2.5770  -38.5030 N   0  0  0  0  0  0  0  0  0  0  0  0
  -22.9270   -1.7090  -39.1890 C   0  0  0  0  0  0  0  0  0  0  0  0
  -24.0460   -3.5450  -39.3630 C   0  0  0  0  0  3  0  0  0  0  0  0
  -22.8190   -2.1290  -40.4650 N   0  0  0  0  0  0  0  0  0  0  0  0
  -22.4310   -0.6120  -38.4940 C   0  0  0  0  0  3  0  0  0  0  0  0
  -23.5030   -3.2440  -40.5550 N   0  0  0  0  0  0  0  0  0  0  0  0
  -22.7160   -0.4420  -37.1610 C   0  0  0  0  0  3  0  0  0  0  0  0
  2  1  1  0  0  0  0
  2  7  1  0  0  0  0
  3  2  2  0  0  0  0
  4  3  1  0  0  0  0
  4  5  2  0  0  0  0
  5  6  1  0  0  0  0
  6  7  2  0  0  0  0
  8  4  1  0  0  0  0
  9 10  1  0  0  0  0
  9  8  1  0  0  0  0
 10 11  1  0  0  0  0
 11  3  1  0  0  0  0
 12  9  1  0  0  0  0
 13 12  2  0  0  0  0
 14 12  1  0  0  0  0
 15 14  1  0  0  0  0
 16 15  1  0  0  0  0
 17 16  2  0  0  0  0
 18 17  1  0  0  0  0
 19 18  1  0  0  0  0
 19 22  1  0  0  0  0
 20 18  1  0  0  0  0
 21 19  2  0  0  0  0
 22 24  2  0  0  0  0
 23 21  1  0  0  0  0
 23 20  2  0  0  0  0
 24 16  1  0  0  0  0
M  END
>  <Pose>
1

>  <Score>
-9.536

$$$$
