/Users/jonathanwahrer/Desktop/Msc/3_Semester/Drug_Design_Praktikum/waehrer_HTS_screening/HTS_experiment/out/docking_results/vina_output/5l4q/1863_docked.pdbqt
 OpenBabel03212219063D

 33 36  0  0  0  0  0  0  0  0999 V2000
  -20.2670   -0.9390  -32.7720 N   0  0  0  0  0  0  0  0  0  0  0  0
  -20.2430   -1.5090  -31.5360 C   0  0  0  0  0  0  0  0  0  0  0  0
  -19.6390   -0.6230  -30.6830 C   0  0  0  0  0  0  0  0  0  0  0  0
  -19.3210    0.4410  -31.4190 N   0  0  0  0  0  0  0  0  0  0  0  0
  -19.6990    0.2680  -32.7140 C   0  0  0  0  0  0  0  0  0  0  0  0
  -19.4850   -0.9780  -29.3950 N   0  0  0  0  0  0  0  0  0  0  0  0
  -19.9100   -2.1840  -28.9310 C   0  0  0  0  0  0  0  0  0  0  0  0
  -19.7690   -2.5280  -27.7150 O   0  0  0  0  0  0  0  0  0  0  0  0
  -20.5050   -3.0730  -29.7440 N   0  0  0  0  0  0  0  0  0  0  0  0
  -20.6670   -2.7360  -31.0310 C   0  0  0  0  0  0  0  0  0  0  0  0
  -21.2220   -3.5870  -31.7620 O   0  0  0  0  0  0  0  0  0  0  0  0
  -18.8530   -0.0840  -28.4610 C   0  0  0  0  0  1  0  0  0  0  0  0
  -20.8360   -4.0160  -29.3770 H   0  0  0  0  0  0  0  0  0  0  0  0
  -19.4560    1.2240  -33.7680 N   0  0  0  0  0  0  0  0  0  0  0  0
  -18.1860    1.0870  -34.4430 C   0  0  0  0  0  2  0  0  0  0  0  0
  -18.0040    2.0450  -35.5920 C   0  0  0  0  0  2  0  0  0  0  0  0
  -19.1880    2.0220  -36.3710 N   0  0  0  0  0  0  0  0  0  0  0  0
  -20.3150    2.5200  -35.6560 C   0  0  0  0  0  2  0  0  0  0  0  0
  -20.3390    2.2600  -34.1790 C   0  0  0  0  0  2  0  0  0  0  0  0
  -19.3850    0.7360  -36.9630 C   0  0  0  0  0  2  0  0  0  0  0  0
  -19.8310    0.7840  -38.3860 C   0  0  0  0  0  0  0  0  0  0  0  0
  -19.6180    1.7350  -39.1540 O   0  0  0  0  0  0  0  0  0  0  0  0
  -20.5490   -0.3740  -38.8350 N   0  0  0  0  0  0  0  0  0  0  0  0
  -21.5710   -0.4930  -38.6510 H   0  0  0  0  0  0  0  0  0  0  0  0
  -20.0430   -1.0940  -39.3460 H   0  0  0  0  0  0  0  0  0  0  0  0
  -20.8500   -1.5660  -33.9100 C   0  0  0  0  0  2  0  0  0  0  0  0
  -22.0810   -0.9220  -34.4400 C   0  0  0  0  0  0  0  0  0  0  0  0
  -22.4250   -1.1620  -35.7790 C   0  0  0  0  0  3  0  0  0  0  0  0
  -23.5290   -0.6190  -36.3750 C   0  0  0  0  0  0  0  0  0  0  0  0
  -23.9740   -0.9210  -38.0520 Cl  0  0  0  0  0  0  0  0  0  0  0  0
  -24.3510    0.2080  -35.6400 C   0  0  0  0  0  3  0  0  0  0  0  0
  -24.0200    0.4500  -34.3210 C   0  0  0  0  0  3  0  0  0  0  0  0
  -22.8990   -0.1050  -33.7220 C   0  0  0  0  0  3  0  0  0  0  0  0
  1  5  1  0  0  0  0
  1  2  1  0  0  0  0
  2 10  1  0  0  0  0
  2  3  2  0  0  0  0
  3  6  1  0  0  0  0
  4  3  1  0  0  0  0
  5  4  2  0  0  0  0
  6  7  1  0  0  0  0
  6 12  1  0  0  0  0
  7  8  2  0  0  0  0
  9 13  1  0  0  0  0
  9  7  1  0  0  0  0
 10  9  1  0  0  0  0
 11 10  2  0  0  0  0
 14  5  1  0  0  0  0
 15 14  1  0  0  0  0
 16 15  1  0  0  0  0
 17 18  1  0  0  0  0
 17 16  1  0  0  0  0
 18 19  1  0  0  0  0
 19 14  1  0  0  0  0
 20 17  1  0  0  0  0
 21 20  1  0  0  0  0
 22 21  2  0  0  0  0
 23 24  1  0  0  0  0
 23 21  1  0  0  0  0
 25 23  1  0  0  0  0
 26  1  1  0  0  0  0
 27 26  1  0  0  0  0
 27 33  1  0  0  0  0
 28 27  2  0  0  0  0
 29 28  1  0  0  0  0
 29 31  2  0  0  0  0
 30 29  1  0  0  0  0
 31 32  1  0  0  0  0
 32 33  2  0  0  0  0
M  END
>  <Pose>
1

>  <Score>
-8.329

$$$$
