MODEL 1
REMARK VINA RESULT:    -8.329      0.000      0.000
REMARK INTER + INTRA:         -11.998
REMARK INTER:                 -10.763
REMARK INTRA:                  -1.235
REMARK UNBOUND:                -1.235
REMARK  5 active torsions:
REMARK  status: ('A' for Active; 'I' for Inactive)
REMARK    1  A    between atoms: C_4  and  C_8 
REMARK    2  A    between atoms: C_8  and  N_9 
REMARK    3  A    between atoms: C_13  and  N_14 
REMARK    4  A    between atoms: N_17  and  C_20 
REMARK    5  A    between atoms: C_20  and  C_21 
REMARK       I    between atoms: C_21  and  N_23 
ROOT
ATOM      1  N   UNK d   1     -20.267  -0.939 -32.772  0.00  0.00    -0.168 N 
ATOM      2  C   UNK d   1     -20.243  -1.509 -31.536  0.00  0.00     0.167 A 
ATOM      3  C   UNK d   1     -19.639  -0.623 -30.683  0.00  0.00     0.185 A 
ATOM      4  N   UNK d   1     -19.321   0.441 -31.419  0.00  0.00    -0.044 NA
ATOM      5  C   UNK d   1     -19.699   0.268 -32.714  0.00  0.00     0.707 A 
ATOM      6  N   UNK d   1     -19.485  -0.978 -29.395  0.00  0.00    -0.286 N 
ATOM      7  C   UNK d   1     -19.910  -2.184 -28.931  0.00  0.00     0.330 A 
ATOM      8  O   UNK d   1     -19.769  -2.528 -27.715  0.00  0.00    -0.246 OA
ATOM      9  N   UNK d   1     -20.505  -3.073 -29.744  0.00  0.00    -0.273 N 
ATOM     10  C   UNK d   1     -20.667  -2.736 -31.031  0.00  0.00     0.280 A 
ATOM     11  O   UNK d   1     -21.222  -3.587 -31.762  0.00  0.00    -0.265 OA
ATOM     12  C   UNK d   1     -18.853  -0.084 -28.461  0.00  0.00     0.163 C 
ATOM     13  H   UNK d   1     -20.836  -4.016 -29.377  0.00  0.00     0.173 HD
ENDROOT
BRANCH   5  14
ATOM     14  N   UNK d   1     -19.456   1.224 -33.768  0.00  0.00    -0.212 N 
ATOM     15  C   UNK d   1     -18.186   1.087 -34.443  0.00  0.00     0.171 C 
ATOM     16  C   UNK d   1     -18.004   2.045 -35.592  0.00  0.00     0.293 C 
ATOM     17  N   UNK d   1     -19.188   2.022 -36.371  0.00  0.00     0.100 N 
ATOM     18  C   UNK d   1     -20.315   2.520 -35.656  0.00  0.00     0.293 C 
ATOM     19  C   UNK d   1     -20.339   2.260 -34.179  0.00  0.00     0.171 C 
BRANCH  17  20
ATOM     20  C   UNK d   1     -19.385   0.736 -36.963  0.00  0.00     0.374 C 
BRANCH  20  21
ATOM     21  C   UNK d   1     -19.831   0.784 -38.386  0.00  0.00     0.243 C 
ATOM     22  O   UNK d   1     -19.618   1.735 -39.154  0.00  0.00    -0.272 OA
ATOM     23  N   UNK d   1     -20.549  -0.374 -38.835  0.00  0.00    -0.369 N 
ATOM     24  H   UNK d   1     -21.571  -0.493 -38.651  0.00  0.00     0.159 HD
ATOM     25  H   UNK d   1     -20.043  -1.094 -39.346  0.00  0.00     0.159 HD
ENDBRANCH  20  21
ENDBRANCH  17  20
ENDBRANCH   5  14
BRANCH   1  26
ATOM     26  C   UNK d   1     -20.850  -1.566 -33.910  0.00  0.00     0.186 C 
BRANCH  26  27
ATOM     27  C   UNK d   1     -22.081  -0.922 -34.440  0.00  0.00    -0.038 A 
ATOM     28  C   UNK d   1     -22.425  -1.162 -35.779  0.00  0.00     0.032 A 
ATOM     29  C   UNK d   1     -23.529  -0.619 -36.375  0.00  0.00     0.034 A 
ATOM     30 Cl   UNK d   1     -23.974  -0.921 -38.052  0.00  0.00    -0.084 Cl
ATOM     31  C   UNK d   1     -24.351   0.208 -35.640  0.00  0.00     0.024 A 
ATOM     32  C   UNK d   1     -24.020   0.450 -34.321  0.00  0.00     0.002 A 
ATOM     33  C   UNK d   1     -22.899  -0.105 -33.722  0.00  0.00     0.009 A 
ENDBRANCH  26  27
ENDBRANCH   1  26
TORSDOF 5
ENDMDL
