MODEL 1
REMARK VINA RESULT:    -8.146      0.000      0.000
REMARK INTER + INTRA:         -10.308
REMARK INTER:                  -9.575
REMARK INTRA:                  -0.732
REMARK UNBOUND:                -0.732
REMARK  3 active torsions:
REMARK  status: ('A' for Active; 'I' for Inactive)
REMARK    1  A    between atoms: C_4  and  C_8 
REMARK    2  A    between atoms: C_8  and  N_9 
REMARK       I    between atoms: N_16  and  C_19 
REMARK    3  A    between atoms: C_19  and  C_21 
ROOT
ATOM      1  N   UNK d   1     -20.515  -1.853 -32.291  0.00  0.00    -0.264 N 
ATOM      2  C   UNK d   1     -21.126  -2.987 -32.924  0.00  0.00     0.326 C 
ATOM      3  O   UNK d   1     -20.722  -4.191 -32.803  0.00  0.00    -0.247 OA
ATOM      4  N   UNK d   1     -22.240  -2.545 -33.695  0.00  0.00    -0.324 N 
ATOM      5  C   UNK d   1     -22.011  -1.139 -33.940  0.00  0.00     0.119 C 
ATOM      6  C   UNK d   1     -21.008  -1.046 -35.075  0.00  0.00     0.061 C 
ATOM      7  C   UNK d   1     -20.447   0.371 -35.028  0.00  0.00     0.129 C 
ATOM      8  N   UNK d   1     -21.530   1.330 -34.925  0.00  0.00    -0.346 N 
ATOM      9  C   UNK d   1     -22.894   0.880 -35.018  0.00  0.00     0.129 C 
ATOM     10  C   UNK d   1     -23.215  -0.354 -34.239  0.00  0.00     0.061 C 
ATOM     11  C   UNK d   1     -21.238   2.706 -34.738  0.00  0.00     0.273 C 
ATOM     12  O   UNK d   1     -22.193   3.542 -34.644  0.00  0.00    -0.266 OA
ATOM     13  C   UNK d   1     -21.294  -0.733 -32.705  0.00  0.00     0.256 C 
ATOM     14  O   UNK d   1     -21.314   0.363 -32.083  0.00  0.00    -0.270 OA
ATOM     15  H   UNK d   1     -23.048  -3.111 -34.016  0.00  0.00     0.165 HD
ENDROOT
BRANCH   1  16
ATOM     16  C   UNK d   1     -19.364  -1.829 -31.419  0.00  0.00     0.175 C 
BRANCH  16  17
ATOM     17  C   UNK d   1     -19.706  -2.111 -30.009  0.00  0.00    -0.038 A 
ATOM     18  C   UNK d   1     -19.908  -3.397 -29.563  0.00  0.00     0.032 A 
ATOM     19  C   UNK d   1     -20.230  -3.699 -28.256  0.00  0.00     0.034 A 
ATOM     20 Cl   UNK d   1     -20.486  -5.340 -27.695  0.00  0.00    -0.084 Cl
ATOM     21  C   UNK d   1     -20.346  -2.640 -27.379  0.00  0.00     0.024 A 
ATOM     22  C   UNK d   1     -20.146  -1.345 -27.812  0.00  0.00     0.002 A 
ATOM     23  C   UNK d   1     -19.824  -1.061 -29.128  0.00  0.00     0.009 A 
ENDBRANCH  16  17
ENDBRANCH   1  16
BRANCH  11  24
ATOM     24  C   UNK d   1     -19.888   3.234 -34.648  0.00  0.00     0.141 A 
ATOM     25  N   UNK d   1     -19.207   3.678 -35.722  0.00  0.00    -0.253 NA
ATOM     26  C   UNK d   1     -17.959   4.154 -35.566  0.00  0.00     0.136 A 
ATOM     27  C   UNK d   1     -17.337   4.210 -34.337  0.00  0.00     0.135 A 
ATOM     28  N   UNK d   1     -18.012   3.768 -33.264  0.00  0.00    -0.269 NA
ATOM     29  C   UNK d   1     -19.275   3.286 -33.418  0.00  0.00     0.153 A 
ENDBRANCH  11  24
TORSDOF 3
ENDMDL
