MODEL 1
REMARK VINA RESULT:    -7.898      0.000      0.000
REMARK INTER + INTRA:          -8.783
REMARK INTER:                  -9.514
REMARK INTRA:                   0.732
REMARK UNBOUND:                 0.732
REMARK  4 active torsions:
REMARK  status: ('A' for Active; 'I' for Inactive)
REMARK    1  A    between atoms: C_5  and  C_8 
REMARK    2  A    between atoms: C_8  and  O_26 
REMARK    3  A    between atoms: N_9  and  C_18 
REMARK    4  A    between atoms: C_21  and  O_24 
ROOT
ATOM      1  C   UNK d   1     -21.790  -0.306 -38.321  0.00  0.00     0.287 C 
ATOM      2  N   UNK d   1     -22.481  -1.332 -37.643  0.00  0.00     0.042 N 
ATOM      3  C   UNK d   1     -22.767  -0.948 -36.326  0.00  0.00     0.210 C 
ATOM      4  C   UNK d   1     -23.261  -1.416 -35.206  0.00  0.00     0.030 C 
ATOM      5  C   UNK d   1     -23.373  -0.581 -34.005  0.00  0.00     0.032 C 
ATOM      6  C   UNK d   1     -23.273   0.870 -34.105  0.00  0.00     0.024 C 
ATOM      7  C   UNK d   1     -22.919   1.402 -35.471  0.00  0.00     0.125 C 
ATOM      8  N   UNK d   1     -22.265   0.416 -36.256  0.00  0.00    -0.351 N 
ATOM      9  C   UNK d   1     -21.093   0.358 -37.121  0.00  0.00     0.151 C 
ATOM     10  C   UNK d   1     -20.546   1.702 -37.362  0.00  0.00     0.038 C 
ATOM     11  H   UNK d   1     -21.654  -2.059 -37.448  0.00  0.00     0.299 HD
ENDROOT
BRANCH   1  12
ATOM     12  C   UNK d   1     -22.560   0.698 -39.052  0.00  0.00     0.008 A 
ATOM     13  C   UNK d   1     -22.009   1.317 -40.144  0.00  0.00     0.014 A 
ATOM     14  C   UNK d   1     -22.694   2.294 -40.863  0.00  0.00     0.024 A 
ATOM     15  C   UNK d   1     -23.973   2.641 -40.450  0.00  0.00     0.034 A 
ATOM     16 Cl   UNK d   1     -24.916   3.860 -41.286  0.00  0.00    -0.084 Cl
ATOM     17  C   UNK d   1     -24.515   2.008 -39.349  0.00  0.00     0.024 A 
ATOM     18  C   UNK d   1     -23.835   1.040 -38.637  0.00  0.00     0.014 A 
ENDBRANCH   1  12
BRANCH   1  19
ATOM     19  O   UNK d   1     -20.776  -0.844 -39.080  0.00  0.00    -0.359 OA
ATOM     20  H   UNK d   1     -20.252  -1.559 -38.675  0.00  0.00     0.213 HD
ENDBRANCH   1  19
BRANCH   2  21
ATOM     21  C   UNK d   1     -23.336  -2.143 -38.382  0.00  0.00     0.146 A 
ATOM     22  C   UNK d   1     -24.563  -2.449 -37.817  0.00  0.00     0.041 A 
ATOM     23  C   UNK d   1     -25.492  -3.249 -38.437  0.00  0.00     0.039 A 
ATOM     24  C   UNK d   1     -25.258  -3.812 -39.696  0.00  0.00     0.068 A 
ATOM     25  C   UNK d   1     -24.035  -3.494 -40.232  0.00  0.00     0.039 A 
ATOM     26  C   UNK d   1     -23.111  -2.694 -39.606  0.00  0.00     0.041 A 
BRANCH  24  27
ATOM     27  O   UNK d   1     -26.201  -4.611 -40.312  0.00  0.00    -0.356 OA
ATOM     28  C   UNK d   1     -27.089  -5.368 -39.528  0.00  0.00     0.210 C 
ENDBRANCH  24  27
ENDBRANCH   2  21
TORSDOF 4
ENDMDL
