/Users/jonathanwahrer/Desktop/Msc/3_Semester/Drug_Design_Praktikum/waehrer_HTS_screening/HTS_experiment/out/docking_results/vina_output/5l4q/1893_docked.pdbqt
 OpenBabel03212219073D

 28 31  0  0  0  0  0  0  0  0999 V2000
  -19.8560   -2.0920  -29.0080 N   0  0  0  0  0  0  0  0  0  0  0  0
  -19.8350   -1.6730  -30.2950 C   0  0  0  0  0  0  0  0  0  0  0  0
  -19.3450   -0.5750  -30.6690 O   0  0  0  0  0  0  0  0  0  0  0  0
  -20.4200   -2.6090  -31.1310 C   0  0  0  0  0  0  0  0  0  0  0  0
  -20.8020   -3.6060  -30.3500 C   0  0  0  0  0  0  0  0  0  0  0  0
  -21.3720   -4.5170  -31.1680 N   0  0  0  0  0  0  0  0  0  0  0  0
  -21.3270   -4.0560  -32.4250 N   0  0  0  0  0  0  0  0  0  0  0  0
  -20.7370   -2.8720  -32.4120 N   0  0  0  0  0  0  0  0  0  0  0  0
  -20.4580   -3.2920  -29.0520 C   0  0  0  0  0  0  0  0  0  0  0  0
  -20.6870   -4.0400  -28.0750 O   0  0  0  0  0  0  0  0  0  0  0  0
  -21.7780   -5.4210  -30.8640 H   0  0  0  0  0  0  0  0  0  0  0  0
  -21.6800   -4.5140  -33.2920 H   0  0  0  0  0  0  0  0  0  0  0  0
  -20.4770   -2.0180  -33.5520 C   0  0  0  0  0  2  0  0  0  0  0  0
  -21.6700   -1.2490  -33.9860 C   0  0  0  0  0  0  0  0  0  0  0  0
  -21.8370    0.1010  -33.7760 C   0  0  0  0  0  3  0  0  0  0  0  0
  -22.9480    0.8130  -34.1830 C   0  0  0  0  0  0  0  0  0  0  0  0
  -23.9570    0.1470  -34.8360 C   0  0  0  0  0  3  0  0  0  0  0  0
  -23.8320   -1.2030  -35.0660 C   0  0  0  0  0  3  0  0  0  0  0  0
  -22.7070   -1.8920  -34.6480 C   0  0  0  0  0  3  0  0  0  0  0  0
  -23.0180    2.1870  -33.9190 O   0  0  0  0  0  0  0  0  0  0  0  0
  -22.0050    3.0730  -34.3480 C   0  0  0  0  0  1  0  0  0  0  0  0
  -19.3520   -1.4030  -27.8840 C   0  0  0  0  0  0  0  0  0  0  0  0
  -18.8040   -2.0730  -26.8100 C   0  0  0  0  0  3  0  0  0  0  0  0
  -18.3050   -1.4220  -25.6970 C   0  0  0  0  0  3  0  0  0  0  0  0
  -18.3600   -0.0440  -25.6670 C   0  0  0  0  0  0  0  0  0  0  0  0
  -17.7410    0.8590  -24.2790 Cl  0  0  0  0  0  0  0  0  0  0  0  0
  -18.8980    0.6720  -26.7170 C   0  0  0  0  0  3  0  0  0  0  0  0
  -19.3890   -0.0250  -27.8170 C   0  0  0  0  0  3  0  0  0  0  0  0
  1 22  1  0  0  0  0
  2  1  1  0  0  0  0
  3  2  2  0  0  0  0
  4  5  2  0  0  0  0
  4  2  1  0  0  0  0
  5  9  1  0  0  0  0
  6 11  1  0  0  0  0
  6  5  1  0  0  0  0
  7  8  1  0  0  0  0
  7  6  1  0  0  0  0
  8  4  1  0  0  0  0
  9  1  1  0  0  0  0
  9 10  2  0  0  0  0
 12  7  1  0  0  0  0
 13  8  1  0  0  0  0
 14 15  1  0  0  0  0
 14 13  1  0  0  0  0
 16 20  1  0  0  0  0
 16 15  2  0  0  0  0
 17 16  1  0  0  0  0
 18 17  2  0  0  0  0
 18 19  1  0  0  0  0
 19 14  2  0  0  0  0
 21 20  1  0  0  0  0
 22 28  2  0  0  0  0
 22 23  1  0  0  0  0
 23 24  2  0  0  0  0
 24 25  1  0  0  0  0
 25 26  1  0  0  0  0
 27 25  2  0  0  0  0
 28 27  1  0  0  0  0
M  END
>  <Pose>
1

>  <Score>
-9.431

$$$$
