MODEL 1
REMARK VINA RESULT:    -9.309      0.000      0.000
REMARK INTER + INTRA:         -10.867
REMARK INTER:                 -10.942
REMARK INTRA:                   0.075
REMARK UNBOUND:                 0.075
REMARK  3 active torsions:
REMARK  status: ('A' for Active; 'I' for Inactive)
REMARK    1  A    between atoms: C_5  and  N_8 
REMARK    2  A    between atoms: N_15  and  C_16 
REMARK    3  A    between atoms: C_16  and  C_17 
ROOT
ATOM      1  N   UNK d   1     -19.889  -2.165 -29.041  0.00  0.00    -0.241 N 
ATOM      2  C   UNK d   1     -19.941  -1.728 -30.320  0.00  0.00     0.286 A 
ATOM      3  O   UNK d   1     -19.538  -0.606 -30.694  0.00  0.00    -0.265 OA
ATOM      4  C   UNK d   1     -20.498  -2.687 -31.149  0.00  0.00     0.154 A 
ATOM      5  C   UNK d   1     -20.790  -3.729 -30.358  0.00  0.00     0.152 A 
ATOM      6  N   UNK d   1     -21.327  -4.654 -31.172  0.00  0.00    -0.279 N 
ATOM      7  N   UNK d   1     -21.360  -4.191 -32.408  0.00  0.00    -0.239 N 
ATOM      8  N   UNK d   1     -20.852  -2.978 -32.412  0.00  0.00    -0.266 N 
ATOM      9  C   UNK d   1     -20.413  -3.396 -29.074  0.00  0.00     0.286 A 
ATOM     10  O   UNK d   1     -20.544  -4.149 -28.070  0.00  0.00    -0.265 OA
ATOM     11  H   UNK d   1     -21.674  -5.599 -30.905  0.00  0.00     0.189 HD
ATOM     12  H   UNK d   1     -21.732  -4.704 -33.262  0.00  0.00     0.208 HD
ENDROOT
BRANCH   1  13
ATOM     13  C   UNK d   1     -19.385  -1.465 -27.905  0.00  0.00     0.046 A 
ATOM     14  C   UNK d   1     -19.421  -0.089 -27.834  0.00  0.00     0.032 A 
ATOM     15  C   UNK d   1     -18.936   0.596 -26.737  0.00  0.00     0.026 A 
ATOM     16  C   UNK d   1     -18.392  -0.072 -25.660  0.00  0.00     0.034 A 
ATOM     17 Cl   UNK d   1     -17.774   0.804 -24.262  0.00  0.00    -0.084 Cl
ATOM     18  C   UNK d   1     -18.351  -1.450 -25.719  0.00  0.00     0.026 A 
ATOM     19  C   UNK d   1     -18.838  -2.127 -26.820  0.00  0.00     0.032 A 
ENDBRANCH   1  13
BRANCH   8  20
ATOM     20  C   UNK d   1     -20.699  -2.101 -33.549  0.00  0.00     0.189 C 
BRANCH  20  21
ATOM     21  C   UNK d   1     -21.841  -1.184 -33.753  0.00  0.00    -0.038 A 
ATOM     22  C   UNK d   1     -21.743   0.125 -33.349  0.00  0.00     0.009 A 
ATOM     23  C   UNK d   1     -22.819   0.959 -33.545  0.00  0.00     0.001 A 
ATOM     24  C   UNK d   1     -23.986   0.507 -34.136  0.00  0.00     0.000 A 
ATOM     25  C   UNK d   1     -24.085  -0.805 -34.540  0.00  0.00     0.001 A 
ATOM     26  C   UNK d   1     -23.007  -1.621 -34.339  0.00  0.00     0.009 A 
ENDBRANCH  20  21
ENDBRANCH   8  20
TORSDOF 3
ENDMDL
