/Users/jonathanwahrer/Desktop/Msc/3_Semester/Drug_Design_Praktikum/waehrer_HTS_screening/HTS_experiment/out/docking_results/vina_output/5l4q/1895_docked.pdbqt
 OpenBabel03212219073D

 32 35  0  0  1  0  0  0  0  0999 V2000
  -20.4550    1.4660  -38.5980 N   0  0  0  0  0  0  0  0  0  0  0  0
  -20.6500    0.6890  -37.4370 C   0  0  0  0  0  2  0  0  0  0  0  0
  -19.4680    0.9760  -36.4870 C   0  0  0  0  0  2  0  0  0  0  0  0
  -19.7000    2.3350  -36.0700 N   0  0  0  0  0  0  0  0  0  0  0  0
  -19.5560    3.2960  -37.1860 C   0  0  0  0  0  2  0  0  0  0  0  0
  -20.0950    2.8150  -38.4700 C   0  0  0  0  0  2  0  0  0  0  0  0
  -20.0260    2.8310  -34.8090 C   0  0  0  0  0  0  0  0  0  0  0  0
  -20.1750    4.1420  -34.7960 O   0  0  0  0  0  0  0  0  0  0  0  0
  -20.2430    2.2430  -33.5130 C   0  0  0  0  0  2  0  0  0  0  0  0
  -20.0970    0.8260  -33.3750 N   0  0  0  0  0  0  0  0  0  0  0  0
  -18.8580    0.1250  -33.2510 C   0  0  0  0  0  0  0  0  0  0  0  0
  -17.7170    0.6990  -33.2690 O   0  0  0  0  0  0  0  0  0  0  0  0
  -19.1420   -1.2510  -33.1130 N   0  0  0  0  0  0  0  0  0  0  0  0
  -20.5440   -1.3910  -32.7510 C   0  0  1  0  0  0  0  0  0  0  0  0
  -18.4880   -2.0380  -33.2410 H   0  0  0  0  0  0  0  0  0  0  0  0
  -21.2180   -2.5690  -33.3610 C   0  0  1  0  0  3  0  0  0  0  0  0
  -20.6070   -1.4000  -31.2400 C   0  0  0  0  0  2  0  0  0  0  0  0
  -21.1450   -0.1440  -33.3120 C   0  0  0  0  0  0  0  0  0  0  0  0
  -22.2680   -3.0690  -32.3620 C   0  0  0  0  0  2  0  0  0  0  0  0
  -21.9670   -2.2610  -34.6360 C   0  0  0  0  0  1  0  0  0  0  0  0
  -21.4940   -3.7450  -31.2460 C   0  0  0  0  0  2  0  0  0  0  0  0
  -20.3730   -2.8380  -30.8020 C   0  0  0  0  0  2  0  0  0  0  0  0
  -22.3300    0.0240  -33.6580 O   0  0  0  0  0  0  0  0  0  0  0  0
  -21.5160    1.1090  -39.8870 S   0  0  0  0  0  0  0  0  0  0  0  0
  -22.2710    2.2710  -40.3990 O   0  0  0  0  0  0  0  0  0  0  0  0
  -20.7010    0.5260  -41.0160 O   0  0  0  0  0  0  0  0  0  0  0  0
  -22.6410   -0.1340  -39.3110 C   0  0  0  0  0  0  0  0  0  0  0  0
  -22.7020   -1.7990  -39.6640 S   0  0  0  0  0  0  0  0  0  0  0  0
  -24.0520   -2.2290  -38.7200 C   0  0  0  0  0  0  0  0  0  0  0  0
  -24.4240   -1.0420  -38.1460 C   0  0  0  0  0  3  0  0  0  0  0  0
  -24.7960   -3.8240  -38.5270 Cl  0  0  0  0  0  0  0  0  0  0  0  0
  -23.6890    0.0400  -38.4570 C   0  0  0  0  0  3  0  0  0  0  0  0
  1  6  1  0  0  0  0
  1  2  1  0  0  0  0
  2  3  1  0  0  0  0
  3  4  1  0  0  0  0
  4  7  1  0  0  0  0
  5  4  1  0  0  0  0
  6  5  1  0  0  0  0
  7  8  2  0  0  0  0
  7  9  1  0  0  0  0
  9 10  1  0  0  0  0
 10 18  1  0  0  0  0
 10 11  1  0  0  0  0
 11 13  1  0  0  0  0
 12 11  2  0  0  0  0
 13 14  1  0  0  0  0
 14 17  1  1  0  0  0
 15 13  1  0  0  0  0
 16 20  1  6  0  0  0
 16 14  1  0  0  0  0
 16 19  1  0  0  0  0
 17 22  1  0  0  0  0
 18 14  1  0  0  0  0
 19 21  1  0  0  0  0
 21 22  1  0  0  0  0
 23 18  2  0  0  0  0
 24 27  1  0  0  0  0
 24  1  1  0  0  0  0
 25 24  2  0  0  0  0
 26 24  2  0  0  0  0
 27 32  2  0  0  0  0
 28 27  1  0  0  0  0
 28 29  1  0  0  0  0
 29 31  1  0  0  0  0
 29 30  2  0  0  0  0
 32 30  1  0  0  0  0
M  END
>  <Pose>
1

>  <Score>
-8.302

$$$$
