/Users/jonathanwahrer/Desktop/Msc/3_Semester/Drug_Design_Praktikum/waehrer_HTS_screening/HTS_experiment/out/docking_results/vina_output/5l4q/1913_docked.pdbqt
 OpenBabel03212219083D

 29 32  0  0  1  0  0  0  0  0999 V2000
  -22.8940   -0.4990  -36.4830 N   0  0  0  0  0  0  0  0  0  0  0  0
  -22.8150   -1.6420  -35.6030 C   0  0  0  0  0  2  0  0  0  0  0  0
  -23.3330   -1.3670  -34.2170 C   0  0  0  0  0  2  0  0  0  0  0  0
  -22.7980   -0.0630  -33.7370 C   0  0  2  0  0  3  0  0  0  0  0  0
  -23.3170    1.0420  -34.5910 C   0  0  0  0  0  3  0  0  0  0  0  0
  -23.3100    0.8020  -36.0560 C   0  0  0  0  0  3  0  0  0  0  0  0
  -21.3450   -0.0760  -33.5590 C   0  0  0  0  0  0  0  0  0  0  0  0
  -20.6630    0.7960  -34.1490 O   0  0  0  0  0  0  0  0  0  0  0  0
  -20.6740   -1.0210  -32.7570 N   0  0  0  0  0  0  0  0  0  0  0  0
  -21.2510   -1.7590  -32.2560 H   0  0  0  0  0  0  0  0  0  0  0  0
  -19.2420   -1.0460  -32.5720 C   0  0  0  0  0  2  0  0  0  0  0  0
  -18.8140   -0.8600  -31.1450 C   0  0  0  0  0  2  0  0  0  0  0  0
  -19.8310   -1.3410  -30.2280 N   0  0  0  0  0  0  0  0  0  0  0  0
  -20.2030   -0.3760  -29.2490 C   0  0  0  0  0  2  0  0  0  0  0  0
  -19.6860   -0.7810  -27.8830 C   0  0  0  0  0  2  0  0  0  0  0  0
  -20.3030   -1.9560  -27.5330 O   0  0  0  0  0  0  0  0  0  0  0  0
  -20.1980   -2.9840  -28.4310 C   0  0  0  0  0  2  0  0  0  0  0  0
  -19.5790   -2.6510  -29.7440 C   0  0  0  0  0  2  0  0  0  0  0  0
  -22.5400   -0.6820  -37.8350 C   0  0  0  0  0  0  0  0  0  0  0  0
  -23.0450   -1.7320  -38.5540 C   0  0  0  0  0  0  0  0  0  0  0  0
  -22.7080   -1.9000  -39.9040 C   0  0  0  0  0  0  0  0  0  0  0  0
  -23.8640   -2.7510  -38.2460 N   0  0  0  0  0  0  0  0  0  0  0  0
  -21.8830   -1.0030  -40.4520 N   0  0  0  0  0  4  0  0  0  0  0  0
  -23.3080   -2.9830  -40.3830 N   0  0  0  0  0  0  0  0  0  0  0  0
  -21.3840    0.0250  -39.7620 C   0  0  0  0  0  0  0  0  0  0  0  0
  -20.3190    1.1520  -40.5370 Cl  0  0  0  0  0  0  0  0  0  0  0  0
  -21.7040    0.1880  -38.4750 N   0  0  0  0  0  2  0  0  0  0  0  0
  -24.0080   -3.4850  -39.3570 C   0  0  0  0  0  3  0  0  0  0  0  0
  -24.2840   -2.9050  -37.2990 H   0  0  0  0  0  0  0  0  0  0  0  0
  1  6  1  0  0  0  0
  1  2  1  0  0  0  0
  2  3  1  0  0  0  0
  3  4  1  0  0  0  0
  4  7  1  6  0  0  0
  5  4  1  0  0  0  0
  6  5  2  0  0  0  0
  7  9  1  0  0  0  0
  8  7  2  0  0  0  0
  9 11  1  0  0  0  0
  9 10  1  0  0  0  0
 11 12  1  0  0  0  0
 12 13  1  0  0  0  0
 13 18  1  0  0  0  0
 13 14  1  0  0  0  0
 14 15  1  0  0  0  0
 15 16  1  0  0  0  0
 17 16  1  0  0  0  0
 18 17  1  0  0  0  0
 19  1  1  0  0  0  0
 20 22  1  0  0  0  0
 20 19  2  0  0  0  0
 21 20  1  0  0  0  0
 22 29  1  0  0  0  0
 23 21  2  0  0  0  0
 23 25  2  0  0  0  0
 24 21  1  0  0  0  0
 24 28  2  0  0  0  0
 25 27  1  0  0  0  0
 26 25  1  0  0  0  0
 27 19  1  0  0  0  0
 28 22  1  0  0  0  0
M  END
>  <Pose>
1

>  <Score>
-8.051

$$$$
