MODEL 1
REMARK VINA RESULT:   -10.106      0.000      0.000
REMARK INTER + INTRA:         -13.337
REMARK INTER:                 -12.765
REMARK INTRA:                  -0.572
REMARK UNBOUND:                -0.572
REMARK  5 active torsions:
REMARK  status: ('A' for Active; 'I' for Inactive)
REMARK    1  A    between atoms: C_5  and  C_8 
REMARK    2  A    between atoms: C_8  and  O_32 
REMARK       I    between atoms: N_11  and  C_14 
REMARK    3  A    between atoms: C_14  and  C_16 
REMARK    4  A    between atoms: C_16  and  N_17 
REMARK       I    between atoms: N_17  and  C_18 
REMARK    5  A    between atoms: C_18  and  C_20 
ROOT
ATOM      1  C   UNK d   1     -20.801  -2.668 -30.280  0.00  0.00     0.210 C 
ENDROOT
BRANCH   1   2
ATOM      2  C   UNK d   1     -20.302  -2.930 -28.922  0.00  0.00     0.171 C 
ATOM      3  N   UNK d   1     -19.391  -2.242 -28.131  0.00  0.00    -0.361 N 
ATOM      4  C   UNK d   1     -18.530  -1.195 -28.556  0.00  0.00     0.128 C 
ATOM      5  C   UNK d   1     -19.302  -2.611 -26.694  0.00  0.00     0.128 C 
ATOM      6  C   UNK d   1     -18.789   0.059 -27.747  0.00  0.00     0.062 C 
ATOM      7  C   UNK d   1     -18.301  -0.303 -26.347  0.00  0.00     0.088 C 
ATOM      8  C   UNK d   1     -19.053  -1.453 -25.788  0.00  0.00     0.062 C 
ATOM      9  O   UNK d   1     -20.818  -4.010 -28.393  0.00  0.00    -0.175 OA
BRANCH   7  10
ATOM     10  C   UNK d   1     -18.212   0.885 -25.518  0.00  0.00    -0.024 A 
ATOM     11  C   UNK d   1     -18.492   2.118 -26.123  0.00  0.00     0.012 A 
ATOM     12  C   UNK d   1     -18.402   3.322 -25.425  0.00  0.00     0.024 A 
ATOM     13  C   UNK d   1     -18.032   3.345 -24.102  0.00  0.00     0.034 A 
ATOM     14 Cl   UNK d   1     -17.906   4.883 -23.210  0.00  0.00    -0.084 Cl
ATOM     15  C   UNK d   1     -17.752   2.133 -23.491  0.00  0.00     0.024 A 
ATOM     16  C   UNK d   1     -17.845   0.948 -24.195  0.00  0.00     0.012 A 
ENDBRANCH   7  10
BRANCH   7  17
ATOM     17  O   UNK d   1     -16.964  -0.761 -26.577  0.00  0.00    -0.385 OA
ATOM     18  H   UNK d   1     -16.371  -0.152 -26.071  0.00  0.00     0.211 HD
ENDBRANCH   7  17
ENDBRANCH   1   2
BRANCH   1  19
ATOM     19  N   UNK d   1     -20.307  -1.549 -30.955  0.00  0.00    -0.350 N 
ATOM     20  C   UNK d   1     -20.010  -1.498 -32.351  0.00  0.00     0.243 C 
ATOM     21  O   UNK d   1     -20.203  -2.575 -32.975  0.00  0.00    -0.269 OA
ATOM     22  H   UNK d   1     -20.187  -0.621 -30.466  0.00  0.00     0.163 HD
BRANCH  20  23
ATOM     23  C   UNK d   1     -19.532  -0.291 -32.968  0.00  0.00     0.105 C 
ATOM     24  C   UNK d   1     -19.442   0.052 -34.211  0.00  0.00     0.064 A 
ATOM     25  N   UNK d   1     -19.832  -0.800 -35.290  0.00  0.00    -0.297 N 
ATOM     26  C   UNK d   1     -18.940   1.395 -34.597  0.00  0.00     0.008 A 
ATOM     27  N   UNK d   1     -19.744  -0.392 -36.637  0.00  0.00    -0.265 N 
ATOM     28  H   UNK d   1     -20.198  -1.766 -35.109  0.00  0.00     0.187 HD
ATOM     29  C   UNK d   1     -19.263   0.888 -36.978  0.00  0.00     0.271 A 
ATOM     30  H   UNK d   1     -20.042  -1.038 -37.405  0.00  0.00     0.190 HD
ATOM     31  O   UNK d   1     -19.203   1.215 -38.199  0.00  0.00    -0.266 OA
ATOM     32  C   UNK d   1     -18.858   1.786 -35.914  0.00  0.00     0.046 A 
ATOM     33  C   UNK d   1     -18.420   3.037 -36.297  0.00  0.00     0.018 A 
ATOM     34  C   UNK d   1     -18.049   3.932 -35.297  0.00  0.00     0.001 A 
ATOM     35  C   UNK d   1     -18.113   3.592 -33.974  0.00  0.00     0.001 A 
ATOM     36  C   UNK d   1     -18.565   2.306 -33.653  0.00  0.00     0.015 A 
ENDBRANCH  20  23
ENDBRANCH   1  19
TORSDOF 5
ENDMDL
