/Users/jonathanwahrer/Desktop/Msc/3_Semester/Drug_Design_Praktikum/waehrer_HTS_screening/HTS_experiment/out/docking_results/vina_output/5l4q/1928_docked.pdbqt
 OpenBabel03212219093D

 28 31  0  0  0  0  0  0  0  0999 V2000
  -22.6820   -0.3550  -37.2200 N   0  0  0  0  0  0  0  0  0  0  0  0
  -21.8900    0.3320  -38.0690 C   0  0  0  0  0  2  0  0  0  0  0  0
  -21.6920   -0.1040  -39.3540 C   0  0  0  0  0  0  0  0  0  0  0  0
  -22.3550   -1.3330  -39.8040 C   0  0  0  0  0  0  0  0  0  0  0  0
  -21.9880   -1.5170  -41.0910 N   0  0  0  0  0  2  0  0  0  0  0  0
  -21.1830   -0.5420  -41.4590 N   0  0  0  0  0  0  0  0  0  0  0  0
  -20.9710    0.3320  -40.4640 C   0  0  0  0  0  0  0  0  0  0  0  0
  -20.2600    1.3650  -40.4860 O   0  0  0  0  0  0  0  0  0  0  0  0
  -23.1550   -2.0000  -38.9010 C   0  0  0  0  0  0  0  0  0  0  0  0
  -23.2740   -1.4690  -37.6470 C   0  0  0  0  0  3  0  0  0  0  0  0
  -20.7670   -0.4610  -42.4050 H   0  0  0  0  0  0  0  0  0  0  0  0
  -22.8550    0.1550  -35.8590 C   0  0  0  0  0  2  0  0  0  0  0  0
  -21.9400   -0.5470  -34.9380 C   0  0  0  0  0  0  0  0  0  0  0  0
  -20.6330   -0.5320  -35.0360 O   0  0  0  0  0  0  0  0  0  0  0  0
  -20.1310   -1.2470  -34.0750 N   0  0  0  0  0  0  0  0  0  0  0  0
  -21.1110   -1.7550  -33.3130 C   0  0  0  0  0  0  0  0  0  0  0  0
  -22.2530   -1.3130  -33.8590 N   0  0  0  0  0  0  0  0  0  0  0  0
  -20.9230   -2.6050  -32.1450 C   0  0  0  0  0  0  0  0  0  0  0  0
  -20.3970   -2.1160  -30.9720 C   0  0  0  0  0  3  0  0  0  0  0  0
  -20.2150   -2.9140  -29.8580 C   0  0  0  0  0  3  0  0  0  0  0  0
  -20.5620   -4.2520  -29.8930 C   0  0  0  0  0  0  0  0  0  0  0  0
  -20.3400   -5.2860  -28.4910 Cl  0  0  0  0  0  0  0  0  0  0  0  0
  -21.0930   -4.7490  -31.0750 C   0  0  0  0  0  3  0  0  0  0  0  0
  -21.2720   -3.9390  -32.1850 C   0  0  0  0  0  3  0  0  0  0  0  0
  -23.8320   -3.2300  -39.3130 C   0  0  0  0  0  0  0  0  0  0  0  0
  -23.5940   -3.7450  -40.4140 O   0  0  0  0  0  0  0  0  0  0  0  0
  -24.7560   -3.8480  -38.4870 O   0  0  0  0  0  0  0  0  0  0  0  0
  -25.9600   -4.4130  -38.9480 C   0  0  0  0  0  1  0  0  0  0  0  0
  1 12  1  0  0  0  0
  2  1  1  0  0  0  0
  3  2  1  0  0  0  0
  4  3  2  0  0  0  0
  4  9  1  0  0  0  0
  5  4  1  0  0  0  0
  6  5  1  0  0  0  0
  6  7  1  0  0  0  0
  7  3  1  0  0  0  0
  8  7  2  0  0  0  0
  9 10  2  0  0  0  0
 10  1  1  0  0  0  0
 11  6  1  0  0  0  0
 12 13  1  0  0  0  0
 13 17  2  0  0  0  0
 14 13  1  0  0  0  0
 14 15  1  0  0  0  0
 15 16  2  0  0  0  0
 16 18  1  0  0  0  0
 17 16  1  0  0  0  0
 18 19  1  0  0  0  0
 19 20  2  0  0  0  0
 21 20  1  0  0  0  0
 21 22  1  0  0  0  0
 23 21  2  0  0  0  0
 24 18  2  0  0  0  0
 24 23  1  0  0  0  0
 25  9  1  0  0  0  0
 25 27  1  0  0  0  0
 26 25  2  0  0  0  0
 28 27  1  0  0  0  0
M  END
>  <Pose>
1

>  <Score>
-9.363

$$$$
