/Users/jonathanwahrer/Desktop/Msc/3_Semester/Drug_Design_Praktikum/waehrer_HTS_screening/HTS_experiment/out/docking_results/vina_output/5l4q/1930_docked.pdbqt
 OpenBabel03212219093D

 34 37  0  0  1  0  0  0  0  0999 V2000
  -21.1230   -1.2510  -33.3020 C   0  0  0  0  0  0  0  0  0  0  0  0
  -20.5040   -2.3060  -33.5960 O   0  0  0  0  0  0  0  0  0  0  0  0
  -22.2760   -0.8960  -34.0280 N   0  0  0  0  0  0  0  0  0  0  0  0
  -22.7950   -1.7120  -35.1260 C   0  0  0  0  0  2  0  0  0  0  0  0
  -22.6530   -0.8520  -36.3660 C   0  0  2  0  0  3  0  0  0  0  0  0
  -23.3510    0.4750  -36.1870 C   0  0  2  0  0  0  0  0  0  0  0  0
  -24.0760    0.5180  -34.8360 C   0  0  0  0  0  2  0  0  0  0  0  0
  -23.0410    0.3050  -33.7440 C   0  0  0  0  0  2  0  0  0  0  0  0
  -24.3070    0.8100  -37.2910 C   0  0  0  0  0  1  0  0  0  0  0  0
  -20.6160   -0.4070  -32.1930 C   0  0  0  0  0  2  0  0  0  0  0  0
  -19.2510   -0.7930  -31.7250 C   0  0  0  0  0  2  0  0  0  0  0  0
  -19.0840   -0.7400  -30.2510 C   0  0  0  0  0  0  0  0  0  0  0  0
  -18.7030    0.2890  -29.4760 N   0  0  0  0  0  0  0  0  0  0  0  0
  -18.6730   -0.0670  -28.1810 C   0  0  0  0  0  0  0  0  0  0  0  0
  -18.3650    0.5640  -26.9860 C   0  0  0  0  0  3  0  0  0  0  0  0
  -19.0550   -1.3910  -28.1270 C   0  0  0  0  0  0  0  0  0  0  0  0
  -18.4290   -0.0760  -25.7740 C   0  0  0  0  0  0  0  0  0  0  0  0
  -18.0410    0.7150  -24.2540 Cl  0  0  0  0  0  0  0  0  0  0  0  0
  -18.8150   -1.4000  -25.7560 C   0  0  0  0  0  3  0  0  0  0  0  0
  -19.1320   -2.0730  -26.9310 C   0  0  0  0  0  3  0  0  0  0  0  0
  -19.2980   -1.7730  -29.3860 N   0  0  0  0  0  0  0  0  0  0  0  0
  -19.7310   -3.0910  -29.8480 C   0  0  0  0  0  1  0  0  0  0  0  0
  -22.9510   -1.5200  -37.5840 N   0  0  0  0  0  0  0  0  0  0  0  0
  -23.9840   -2.4070  -37.6800 C   0  0  0  0  0  3  0  0  0  0  0  0
  -24.2740   -3.0560  -38.8610 C   0  0  0  0  0  0  0  0  0  0  0  0
  -23.5070   -2.8080  -39.9770 C   0  0  0  0  0  0  0  0  0  0  0  0
  -25.3900   -4.0250  -38.9990 C   0  0  0  0  0  1  0  0  0  0  0  0
  -23.7430   -3.3890  -41.0910 O   0  0  0  0  0  0  0  0  0  0  0  0
  -22.4910   -1.9340  -39.8750 N   0  0  0  0  0  0  0  0  0  0  0  0
  -22.2420   -1.3160  -38.6850 C   0  0  0  0  0  0  0  0  0  0  0  0
  -21.9110   -1.7440  -40.7140 H   0  0  0  0  0  0  0  0  0  0  0  0
  -21.2840   -0.5120  -38.6500 O   0  0  0  0  0  0  0  0  0  0  0  0
  -22.4350    1.5530  -36.1220 O   0  0  0  0  0  0  0  0  0  0  0  0
  -21.5370    1.1400  -36.0820 H   0  0  0  0  0  0  0  0  0  0  0  0
  1 10  1  0  0  0  0
  2  1  2  0  0  0  0
  3  8  1  0  0  0  0
  3  1  1  0  0  0  0
  4  3  1  0  0  0  0
  5 23  1  6  0  0  0
  5  6  1  0  0  0  0
  5  4  1  0  0  0  0
  6  9  1  6  0  0  0
  6 33  1  0  0  0  0
  6  7  1  0  0  0  0
  7  8  1  0  0  0  0
 10 11  1  0  0  0  0
 11 12  1  0  0  0  0
 12 13  2  0  0  0  0
 12 21  1  0  0  0  0
 13 14  1  0  0  0  0
 14 16  2  0  0  0  0
 14 15  1  0  0  0  0
 15 17  2  0  0  0  0
 16 20  1  0  0  0  0
 17 19  1  0  0  0  0
 17 18  1  0  0  0  0
 20 19  2  0  0  0  0
 21 16  1  0  0  0  0
 22 21  1  0  0  0  0
 24 23  1  0  0  0  0
 25 24  2  0  0  0  0
 26 29  1  0  0  0  0
 26 25  1  0  0  0  0
 27 25  1  0  0  0  0
 28 26  2  0  0  0  0
 29 30  1  0  0  0  0
 30 32  2  0  0  0  0
 30 23  1  0  0  0  0
 31 29  1  0  0  0  0
 33 34  1  0  0  0  0
M  END
>  <Pose>
1

>  <Score>
-10.212

$$$$
