MODEL 1
REMARK VINA RESULT:   -10.212      0.000      0.000
REMARK INTER + INTRA:         -13.254
REMARK INTER:                 -12.898
REMARK INTRA:                  -0.355
REMARK UNBOUND:                -0.355
REMARK  5 active torsions:
REMARK  status: ('A' for Active; 'I' for Inactive)
REMARK    1  A    between atoms: C_6  and  C_12 
REMARK    2  A    between atoms: C_12  and  C_13 
REMARK    3  A    between atoms: C_13  and  C_14 
REMARK       I    between atoms: C_14  and  N_16 
REMARK    4  A    between atoms: C_18  and  N_24 
REMARK    5  A    between atoms: C_19  and  O_22 
ROOT
ATOM      1  C   UNK d   1     -21.123  -1.251 -33.302  0.00  0.00     0.220 C 
ATOM      2  O   UNK d   1     -20.504  -2.306 -33.596  0.00  0.00    -0.273 OA
ATOM      3  N   UNK d   1     -22.276  -0.896 -34.028  0.00  0.00    -0.350 N 
ATOM      4  C   UNK d   1     -22.795  -1.712 -35.126  0.00  0.00     0.154 C 
ATOM      5  C   UNK d   1     -22.653  -0.852 -36.366  0.00  0.00     0.146 C 
ATOM      6  C   UNK d   1     -23.351   0.475 -36.187  0.00  0.00     0.078 C 
ATOM      7  C   UNK d   1     -24.076   0.518 -34.836  0.00  0.00     0.059 C 
ATOM      8  C   UNK d   1     -23.041   0.305 -33.744  0.00  0.00     0.129 C 
ATOM      9  C   UNK d   1     -24.307   0.810 -37.291  0.00  0.00     0.048 C 
ENDROOT
BRANCH   1  10
ATOM     10  C   UNK d   1     -20.616  -0.407 -32.193  0.00  0.00     0.110 C 
BRANCH  10  11
ATOM     11  C   UNK d   1     -19.251  -0.793 -31.725  0.00  0.00     0.088 C 
BRANCH  11  12
ATOM     12  C   UNK d   1     -19.084  -0.740 -30.251  0.00  0.00     0.107 A 
ATOM     13  N   UNK d   1     -18.703   0.289 -29.476  0.00  0.00    -0.233 NA
ATOM     14  C   UNK d   1     -18.673  -0.067 -28.181  0.00  0.00     0.087 A 
ATOM     15  C   UNK d   1     -18.365   0.564 -26.986  0.00  0.00     0.057 A 
ATOM     16  C   UNK d   1     -19.055  -1.391 -28.127  0.00  0.00     0.064 A 
ATOM     17  C   UNK d   1     -18.429  -0.076 -25.774  0.00  0.00     0.036 A 
ATOM     18 Cl   UNK d   1     -18.041   0.715 -24.254  0.00  0.00    -0.084 Cl
ATOM     19  C   UNK d   1     -18.815  -1.400 -25.756  0.00  0.00     0.026 A 
ATOM     20  C   UNK d   1     -19.132  -2.073 -26.931  0.00  0.00     0.034 A 
ATOM     21  N   UNK d   1     -19.298  -1.773 -29.386  0.00  0.00    -0.338 N 
ATOM     22  C   UNK d   1     -19.731  -3.091 -29.848  0.00  0.00     0.158 C 
ENDBRANCH  11  12
ENDBRANCH  10  11
ENDBRANCH   1  10
BRANCH   5  23
ATOM     23  N   UNK d   1     -22.951  -1.520 -37.584  0.00  0.00    -0.300 N 
ATOM     24  C   UNK d   1     -23.984  -2.407 -37.680  0.00  0.00     0.108 A 
ATOM     25  C   UNK d   1     -24.274  -3.056 -38.861  0.00  0.00     0.022 A 
ATOM     26  C   UNK d   1     -23.507  -2.808 -39.977  0.00  0.00     0.256 A 
ATOM     27  C   UNK d   1     -25.390  -4.025 -38.999  0.00  0.00     0.056 C 
ATOM     28  O   UNK d   1     -23.743  -3.389 -41.091  0.00  0.00    -0.267 OA
ATOM     29  N   UNK d   1     -22.491  -1.934 -39.875  0.00  0.00    -0.275 N 
ATOM     30  C   UNK d   1     -22.242  -1.316 -38.685  0.00  0.00     0.329 A 
ATOM     31  H   UNK d   1     -21.911  -1.744 -40.714  0.00  0.00     0.173 HD
ATOM     32  O   UNK d   1     -21.284  -0.512 -38.650  0.00  0.00    -0.246 OA
ENDBRANCH   5  23
BRANCH   6  33
ATOM     33  O   UNK d   1     -22.435   1.553 -36.122  0.00  0.00    -0.388 OA
ATOM     34  H   UNK d   1     -21.537   1.140 -36.082  0.00  0.00     0.210 HD
ENDBRANCH   6  33
TORSDOF 5
ENDMDL
