MODEL 1
REMARK VINA RESULT:    -7.907      0.000      0.000
REMARK INTER + INTRA:          -9.746
REMARK INTER:                  -9.756
REMARK INTRA:                   0.010
REMARK UNBOUND:                 0.010
REMARK  4 active torsions:
REMARK  status: ('A' for Active; 'I' for Inactive)
REMARK    1  A    between atoms: C_6  and  C_11 
REMARK    2  A    between atoms: C_11  and  N_12 
REMARK       I    between atoms: N_12  and  C_13 
REMARK    3  A    between atoms: C_13  and  C_15 
REMARK    4  A    between atoms: C_15  and  N_18 
ROOT
ATOM      1  N   UNK d   1     -21.728  -1.939 -33.461  0.00  0.00    -0.352 N 
ATOM      2  C   UNK d   1     -22.440  -1.486 -34.588  0.00  0.00     0.246 C 
ATOM      3  O   UNK d   1     -22.903  -2.343 -35.361  0.00  0.00    -0.271 OA
ATOM      4  H   UNK d   1     -21.329  -1.234 -32.798  0.00  0.00     0.162 HD
ENDROOT
BRANCH   1   5
ATOM      5  C   UNK d   1     -21.519  -3.347 -33.178  0.00  0.00     0.201 C 
BRANCH   5   6
ATOM      6  C   UNK d   1     -21.110  -3.524 -31.742  0.00  0.00     0.123 A 
ATOM      7  N   UNK d   1     -20.827  -2.553 -30.854  0.00  0.00    -0.232 NA
ATOM      8  C   UNK d   1     -20.498  -3.080 -29.661  0.00  0.00     0.087 A 
ATOM      9  C   UNK d   1     -20.130  -2.586 -28.429  0.00  0.00     0.057 A 
ATOM     10  C   UNK d   1     -20.577  -4.469 -29.799  0.00  0.00     0.062 A 
ATOM     11  C   UNK d   1     -19.837  -3.380 -27.333  0.00  0.00     0.036 A 
ATOM     12 Cl   UNK d   1     -19.372  -2.695 -25.777  0.00  0.00    -0.084 Cl
ATOM     13  C   UNK d   1     -19.924  -4.759 -27.500  0.00  0.00     0.026 A 
ATOM     14  C   UNK d   1     -20.288  -5.270 -28.719  0.00  0.00     0.034 A 
ATOM     15  N   UNK d   1     -20.952  -4.680 -31.076  0.00  0.00    -0.341 N 
ATOM     16  H   UNK d   1     -21.100  -5.623 -31.500  0.00  0.00     0.167 HD
ENDBRANCH   5   6
ENDBRANCH   1   5
BRANCH   2  17
ATOM     17  C   UNK d   1     -22.652  -0.058 -34.880  0.00  0.00     0.110 A 
ATOM     18  C   UNK d   1     -24.024   0.455 -34.673  0.00  0.00     0.044 A 
ATOM     19  C   UNK d   1     -23.036   0.808 -33.633  0.00  0.00     0.044 A 
BRANCH  17  20
ATOM     20  N   UNK d   1     -21.732   0.638 -35.729  0.00  0.00    -0.392 N 
ATOM     21  C   UNK d   1     -22.232   1.076 -36.972  0.00  0.00     0.144 C 
ATOM     22  C   UNK d   1     -21.835   0.045 -38.021  0.00  0.00     0.187 C 
ATOM     23  O   UNK d   1     -20.475   0.075 -38.219  0.00  0.00    -0.388 OA
ATOM     24  C   UNK d   1     -19.735   0.434 -37.120  0.00  0.00     0.187 C 
ATOM     25  C   UNK d   1     -20.432   0.112 -35.814  0.00  0.00     0.144 C 
ENDBRANCH  17  20
ENDBRANCH   2  17
TORSDOF 4
ENDMDL
