/Users/jonathanwahrer/Desktop/Msc/3_Semester/Drug_Design_Praktikum/waehrer_HTS_screening/HTS_experiment/out/docking_results/vina_output/5l4q/1937_docked.pdbqt
 OpenBabel03212219093D

 31 34  0  0  1  0  0  0  0  0999 V2000
  -20.4850    1.9220  -34.9620 N   0  0  0  0  0  0  0  0  0  0  0  0
  -21.5960    2.7490  -35.0680 C   0  0  0  0  0  2  0  0  0  0  0  0
  -22.2350    2.4920  -36.4980 C   0  0  0  0  0  2  0  0  0  0  0  0
  -21.8660    1.1180  -36.7100 N   0  0  0  0  0  0  0  0  0  0  0  0
  -20.4650    1.0200  -37.2140 C   0  0  0  0  0  2  0  0  0  0  0  0
  -19.7200    1.9090  -36.2580 C   0  0  0  0  0  2  0  0  0  0  0  0
  -22.6930    0.0440  -36.5650 C   0  0  0  0  0  0  0  0  0  0  0  0
  -22.1550   -1.0900  -36.3240 O   0  0  0  0  0  0  0  0  0  0  0  0
  -19.5010    2.0520  -33.9140 C   0  0  0  0  0  2  0  0  0  0  0  0
  -19.1490    0.6310  -33.4610 C   0  0  0  0  0  0  0  0  0  0  0  0
  -20.1260   -0.3540  -33.6170 N   0  0  0  0  0  0  0  0  0  0  0  0
  -21.1200    0.0270  -33.8080 H   0  0  0  0  0  0  0  0  0  0  0  0
  -18.0590    0.4050  -33.0050 O   0  0  0  0  0  0  0  0  0  0  0  0
  -19.9730   -1.7540  -33.4510 C   0  0  0  0  0  2  0  0  0  0  0  0
  -20.3440   -2.2230  -32.0900 C   0  0  0  0  0  0  0  0  0  0  0  0
  -21.2350   -3.2840  -31.9840 C   0  0  0  0  0  0  0  0  0  0  0  0
  -22.0680   -3.8140  -33.4250 Cl  0  0  0  0  0  0  0  0  0  0  0  0
  -21.5120   -3.8780  -30.7960 C   0  0  0  0  0  3  0  0  0  0  0  0
  -20.9300   -3.5000  -29.6030 C   0  0  0  0  0  3  0  0  0  0  0  0
  -20.0270   -2.4230  -29.7150 C   0  0  0  0  0  3  0  0  0  0  0  0
  -19.7520   -1.8040  -30.9280 C   0  0  0  0  0  3  0  0  0  0  0  0
  -24.1850    0.0100  -36.6770 C   0  0  1  0  0  3  0  0  0  0  0  0
  -24.4570    0.6270  -37.9780 O   0  0  0  0  0  0  0  0  0  0  0  0
  -23.4490    0.2630  -38.9170 C   0  0  0  0  0  0  0  0  0  0  0  0
  -22.9150   -0.9940  -38.8110 C   0  0  0  0  0  0  0  0  0  0  0  0
  -23.0130    1.1320  -39.9110 C   0  0  0  0  0  3  0  0  0  0  0  0
  -21.9210   -1.4370  -39.6760 C   0  0  0  0  0  3  0  0  0  0  0  0
  -23.3820   -1.8520  -37.8080 O   0  0  0  0  0  0  0  0  0  0  0  0
  -21.5040   -0.5370  -40.6500 C   0  0  0  0  0  3  0  0  0  0  0  0
  -22.0260    0.7310  -40.7890 C   0  0  0  0  0  3  0  0  0  0  0  0
  -24.5050   -1.4800  -36.9700 C   0  0  0  0  0  2  0  0  0  0  0  0
  1  9  1  0  0  0  0
  2  1  1  0  0  0  0
  3  2  1  0  0  0  0
  4  7  1  0  0  0  0
  4  3  1  0  0  0  0
  5  4  1  0  0  0  0
  5  6  1  0  0  0  0
  6  1  1  0  0  0  0
  7  8  2  0  0  0  0
  9 10  1  0  0  0  0
 10 13  2  0  0  0  0
 11 10  1  0  0  0  0
 11 14  1  0  0  0  0
 12 11  1  0  0  0  0
 14 15  1  0  0  0  0
 15 16  2  0  0  0  0
 15 21  1  0  0  0  0
 16 18  1  0  0  0  0
 17 16  1  0  0  0  0
 18 19  2  0  0  0  0
 20 19  1  0  0  0  0
 21 20  2  0  0  0  0
 22  7  1  6  0  0  0
 23 22  1  0  0  0  0
 24 25  1  0  0  0  0
 24 23  1  0  0  0  0
 25 28  1  0  0  0  0
 26 24  2  0  0  0  0
 27 25  2  0  0  0  0
 28 31  1  0  0  0  0
 29 27  1  0  0  0  0
 30 29  2  0  0  0  0
 30 26  1  0  0  0  0
 31 22  1  0  0  0  0
M  END
>  <Pose>
1

>  <Score>
-8.166

$$$$
