MODEL 1
REMARK VINA RESULT:    -8.166      0.000      0.000
REMARK INTER + INTRA:          -8.497
REMARK INTER:                 -10.552
REMARK INTRA:                   2.056
REMARK UNBOUND:                 2.056
REMARK  5 active torsions:
REMARK  status: ('A' for Active; 'I' for Inactive)
REMARK    1  A    between atoms: C_3  and  C_8 
REMARK    2  A    between atoms: C_8  and  N_9 
REMARK       I    between atoms: N_9  and  C_10 
REMARK    3  A    between atoms: C_10  and  C_12 
REMARK    4  A    between atoms: C_12  and  N_13 
REMARK       I    between atoms: N_16  and  C_19 
REMARK    5  A    between atoms: C_19  and  C_21 
ROOT
ATOM      1  N   UNK d   1     -20.485   1.922 -34.962  0.00  0.00     0.100 N 
ATOM      2  C   UNK d   1     -21.596   2.749 -35.068  0.00  0.00     0.293 C 
ATOM      3  C   UNK d   1     -22.235   2.492 -36.498  0.00  0.00     0.156 C 
ATOM      4  N   UNK d   1     -21.866   1.118 -36.710  0.00  0.00    -0.346 N 
ATOM      5  C   UNK d   1     -20.465   1.020 -37.214  0.00  0.00     0.156 C 
ATOM      6  C   UNK d   1     -19.720   1.909 -36.258  0.00  0.00     0.293 C 
ATOM      7  C   UNK d   1     -22.693   0.044 -36.565  0.00  0.00     0.251 C 
ATOM      8  O   UNK d   1     -22.155  -1.090 -36.324  0.00  0.00    -0.270 OA
ENDROOT
BRANCH   1   9
ATOM      9  C   UNK d   1     -19.501   2.052 -33.914  0.00  0.00     0.374 C 
BRANCH   9  10
ATOM     10  C   UNK d   1     -19.149   0.631 -33.461  0.00  0.00     0.246 C 
ATOM     11  N   UNK d   1     -20.126  -0.354 -33.617  0.00  0.00    -0.355 N 
ATOM     12  H   UNK d   1     -21.120   0.027 -33.808  0.00  0.00     0.162 HD
ATOM     13  O   UNK d   1     -18.059   0.405 -33.005  0.00  0.00    -0.272 OA
BRANCH  11  14
ATOM     14  C   UNK d   1     -19.973  -1.754 -33.451  0.00  0.00     0.162 C 
BRANCH  14  15
ATOM     15  C   UNK d   1     -20.344  -2.223 -32.090  0.00  0.00    -0.019 A 
ATOM     16  C   UNK d   1     -21.235  -3.284 -31.984  0.00  0.00     0.042 A 
ATOM     17 Cl   UNK d   1     -22.068  -3.814 -33.425  0.00  0.00    -0.084 Cl
ATOM     18  C   UNK d   1     -21.512  -3.878 -30.796  0.00  0.00     0.024 A 
ATOM     19  C   UNK d   1     -20.930  -3.500 -29.603  0.00  0.00     0.002 A 
ATOM     20  C   UNK d   1     -20.027  -2.423 -29.715  0.00  0.00     0.001 A 
ATOM     21  C   UNK d   1     -19.752  -1.804 -30.928  0.00  0.00     0.010 A 
ENDBRANCH  14  15
ENDBRANCH  11  14
ENDBRANCH   9  10
ENDBRANCH   1   9
BRANCH   7  22
ATOM     22  C   UNK d   1     -24.185   0.010 -36.677  0.00  0.00     0.245 C 
ATOM     23  O   UNK d   1     -24.457   0.627 -37.978  0.00  0.00    -0.331 OA
ATOM     24  C   UNK d   1     -23.449   0.263 -38.917  0.00  0.00     0.103 A 
ATOM     25  C   UNK d   1     -22.915  -0.994 -38.811  0.00  0.00     0.102 A 
ATOM     26  C   UNK d   1     -23.013   1.132 -39.911  0.00  0.00     0.040 A 
ATOM     27  C   UNK d   1     -21.921  -1.437 -39.676  0.00  0.00     0.039 A 
ATOM     28  O   UNK d   1     -23.382  -1.852 -37.808  0.00  0.00    -0.345 OA
ATOM     29  C   UNK d   1     -21.504  -0.537 -40.650  0.00  0.00     0.003 A 
ATOM     30  C   UNK d   1     -22.026   0.731 -40.789  0.00  0.00     0.003 A 
ATOM     31  C   UNK d   1     -24.505  -1.480 -36.970  0.00  0.00     0.218 C 
ENDBRANCH   7  22
TORSDOF 5
ENDMDL
