MODEL 1
REMARK VINA RESULT:    -7.618      0.000      0.000
REMARK INTER + INTRA:          -9.942
REMARK INTER:                  -8.954
REMARK INTRA:                  -0.987
REMARK UNBOUND:                -0.987
REMARK  3 active torsions:
REMARK  status: ('A' for Active; 'I' for Inactive)
REMARK    1  A    between atoms: C_5  and  C_8 
REMARK    2  A    between atoms: C_8  and  N_9 
REMARK    3  A    between atoms: C_13  and  N_14 
ROOT
ATOM      1  N   UNK d   1     -22.497   0.735 -36.994  0.00  0.00    -0.168 N 
ATOM      2  C   UNK d   1     -22.783  -0.431 -37.649  0.00  0.00     0.167 A 
ATOM      3  C   UNK d   1     -22.435  -0.323 -38.967  0.00  0.00     0.185 A 
ATOM      4  N   UNK d   1     -21.948   0.905 -39.081  0.00  0.00    -0.044 NA
ATOM      5  C   UNK d   1     -21.974   1.578 -37.885  0.00  0.00     0.707 A 
ATOM      6  N   UNK d   1     -22.622  -1.336 -39.833  0.00  0.00    -0.286 N 
ATOM      7  C   UNK d   1     -23.170  -2.501 -39.399  0.00  0.00     0.330 A 
ATOM      8  O   UNK d   1     -23.324  -3.415 -40.240  0.00  0.00    -0.246 OA
ATOM      9  N   UNK d   1     -23.529  -2.655 -38.113  0.00  0.00    -0.273 N 
ATOM     10  C   UNK d   1     -23.338  -1.639 -37.259  0.00  0.00     0.280 A 
ATOM     11  O   UNK d   1     -23.690  -1.831 -36.074  0.00  0.00    -0.265 OA
ATOM     12  C   UNK d   1     -22.223  -1.136 -41.215  0.00  0.00     0.163 C 
ATOM     13  H   UNK d   1     -23.944  -3.568 -37.832  0.00  0.00     0.173 HD
ENDROOT
BRANCH   1  14
ATOM     14  C   UNK d   1     -22.757   0.921 -35.591  0.00  0.00     0.186 C 
BRANCH  14  15
ATOM     15  C   UNK d   1     -21.692   0.545 -34.665  0.00  0.00    -0.039 A 
ATOM     16  C   UNK d   1     -20.402   0.329 -35.021  0.00  0.00     0.010 A 
ATOM     17  C   UNK d   1     -19.427  -0.080 -34.106  0.00  0.00     0.024 A 
ATOM     18  C   UNK d   1     -19.751  -0.279 -32.797  0.00  0.00     0.034 A 
ATOM     19 Cl   UNK d   1     -18.495  -0.792 -31.690  0.00  0.00    -0.084 Cl
ATOM     20  C   UNK d   1     -21.049  -0.071 -32.393  0.00  0.00     0.024 A 
ATOM     21  C   UNK d   1     -21.991   0.331 -33.311  0.00  0.00     0.010 A 
ENDBRANCH  14  15
ENDBRANCH   1  14
BRANCH   5  22
ATOM     22  N   UNK d   1     -21.518   2.909 -37.754  0.00  0.00    -0.212 N 
ATOM     23  C   UNK d   1     -22.397   3.975 -38.215  0.00  0.00     0.171 C 
ATOM     24  C   UNK d   1     -22.147   5.107 -37.203  0.00  0.00     0.290 C 
ATOM     25  N   UNK d   1     -21.855   4.588 -35.885  0.00  0.00     0.086 N 
ATOM     26  C   UNK d   1     -20.603   3.867 -35.802  0.00  0.00     0.290 C 
ATOM     27  H   UNK d   1     -21.789   5.402 -35.252  0.00  0.00     0.316 HD
ATOM     28  C   UNK d   1     -20.298   3.382 -37.212  0.00  0.00     0.171 C 
ENDBRANCH   5  22
TORSDOF 3
ENDMDL
