/Users/jonathanwahrer/Desktop/Msc/3_Semester/Drug_Design_Praktikum/waehrer_HTS_screening/HTS_experiment/out/docking_results/vina_output/5l4q/1940_docked.pdbqt
 OpenBabel03212219103D

 30 33  0  0  1  0  0  0  0  0999 V2000
  -21.0720   -0.4170  -35.1510 C   0  0  1  0  0  3  0  0  0  0  0  0
  -22.4650    0.0380  -35.0490 N   0  0  0  0  0  0  0  0  0  0  0  0
  -22.4050    1.2920  -34.3950 C   0  0  0  0  0  0  0  0  0  0  0  0
  -23.2930    1.8020  -33.6720 O   0  0  0  0  0  0  0  0  0  0  0  0
  -21.0960    1.8860  -34.7260 C   0  0  0  0  0  0  0  0  0  0  0  0
  -20.6370    2.9890  -34.3530 O   0  0  0  0  0  0  0  0  0  0  0  0
  -20.4520    0.9010  -35.5840 C   0  0  0  0  0  0  0  0  0  0  0  0
  -19.5720    1.1180  -36.5000 C   0  0  0  0  0  0  0  0  0  0  0  0
  -19.0500    0.0710  -37.2580 O   0  0  0  0  0  1  0  0  0  0  0  0
  -23.6400   -0.6800  -35.5220 C   0  0  0  0  0  2  0  0  0  0  0  0
  -23.3830   -1.5770  -36.6940 C   0  0  0  0  0  2  0  0  0  0  0  0
  -24.0900   -1.2690  -37.8890 N   0  0  0  0  0  4  0  0  0  0  0  0
  -23.3650   -0.5770  -38.9050 C   0  0  0  0  0  2  0  0  0  0  0  0
  -22.2100   -1.3680  -39.4760 C   0  0  0  0  0  2  0  0  0  0  0  0
  -22.6480   -2.5870  -39.9830 O   0  0  0  0  0  0  0  0  0  0  0  0
  -23.4210   -3.2890  -39.0640 C   0  0  0  0  0  2  0  0  0  0  0  0
  -24.5900   -2.4960  -38.5420 C   0  0  0  0  0  2  0  0  0  0  0  0
  -24.9180   -0.6860  -37.6380 H   0  0  0  0  0  0  0  0  0  0  0  0
  -20.5100   -0.6830  -33.8030 C   0  0  0  0  0  0  0  0  0  0  0  0
  -19.2720   -0.2310  -33.4220 C   0  0  0  0  0  3  0  0  0  0  0  0
  -18.7450   -0.4640  -32.1670 C   0  0  0  0  0  3  0  0  0  0  0  0
  -19.4800   -1.1780  -31.2450 C   0  0  0  0  0  0  0  0  0  0  0  0
  -18.8930   -1.5160  -29.6360 Cl  0  0  0  0  0  0  0  0  0  0  0  0
  -20.7210   -1.6390  -31.6040 C   0  0  0  0  0  3  0  0  0  0  0  0
  -21.2400   -1.4030  -32.8580 C   0  0  0  0  0  3  0  0  0  0  0  0
  -19.0930    2.4690  -36.7700 C   0  0  0  0  0  0  0  0  0  0  0  0
  -19.5980    3.4460  -37.4360 O   0  0  0  0  0  0  0  0  0  0  0  0
  -18.8110    4.4840  -37.4120 C   0  0  0  0  0  3  0  0  0  0  0  0
  -17.6930    4.1880  -36.6760 C   0  0  0  0  0  3  0  0  0  0  0  0
  -17.8600    2.8970  -36.2580 C   0  0  0  0  0  3  0  0  0  0  0  0
  1  2  1  0  0  0  0
  1 19  1  1  0  0  0
  2  3  1  0  0  0  0
  3  4  2  0  0  0  0
  5  3  1  0  0  0  0
  5  6  2  0  0  0  0
  7  1  1  0  0  0  0
  7  5  1  0  0  0  0
  8  7  2  0  0  0  0
  9  8  1  0  0  0  0
 10  2  1  0  0  0  0
 11 10  1  0  0  0  0
 12 18  1  0  0  0  0
 12 11  1  0  0  0  0
 13 12  1  0  0  0  0
 14 13  1  0  0  0  0
 15 14  1  0  0  0  0
 15 16  1  0  0  0  0
 16 17  1  0  0  0  0
 17 12  1  0  0  0  0
 19 20  2  0  0  0  0
 19 25  1  0  0  0  0
 20 21  1  0  0  0  0
 21 22  2  0  0  0  0
 22 23  1  0  0  0  0
 24 22  1  0  0  0  0
 25 24  2  0  0  0  0
 26  8  1  0  0  0  0
 26 30  2  0  0  0  0
 27 28  1  0  0  0  0
 27 26  1  0  0  0  0
 28 29  2  0  0  0  0
 29 30  1  0  0  0  0
M  END
>  <Pose>
1

>  <Score>
-7.740

$$$$
