/Users/jonathanwahrer/Desktop/Msc/3_Semester/Drug_Design_Praktikum/waehrer_HTS_screening/HTS_experiment/out/docking_results/vina_output/5l4q/1941_docked.pdbqt
 OpenBabel03212219103D

 22 25  0  0  1  0  0  0  0  0999 V2000
  -22.0860   -0.4320  -34.9300 N   0  0  0  0  0  0  0  0  0  0  0  0
  -23.4780   -0.4320  -35.2800 C   0  0  0  0  0  0  0  0  0  0  0  0
  -24.3150   -1.2180  -34.7160 O   0  0  0  0  0  0  0  0  0  0  0  0
  -23.7200    0.5720  -36.3290 C   0  0  1  0  0  3  0  0  0  0  0  0
  -22.3450    0.7880  -36.9150 C   0  0  2  0  0  3  0  0  0  0  0  0
  -22.3520    0.3420  -38.3610 C   0  0  2  0  0  3  0  0  0  0  0  0
  -23.2640    1.3410  -39.0900 C   0  0  0  0  0  2  0  0  0  0  0  0
  -24.6290    1.1320  -38.5000 C   0  0  0  0  0  0  0  0  0  0  0  0
  -25.5790    1.7240  -38.9370 O   0  0  0  0  0  0  0  0  0  0  0  0
  -24.7180    0.1600  -37.3560 C   0  0  1  0  0  3  0  0  0  0  0  0
  -24.3440   -1.2030  -37.9490 C   0  0  0  0  0  2  0  0  0  0  0  0
  -22.9670   -1.0200  -38.5280 C   0  0  0  0  0  0  0  0  0  0  0  0
  -22.4240   -1.9330  -39.0850 O   0  0  0  0  0  0  0  0  0  0  0  0
  -21.3960    0.0670  -36.0680 C   0  0  0  0  0  0  0  0  0  0  0  0
  -20.1770   -0.0850  -36.3050 O   0  0  0  0  0  0  0  0  0  0  0  0
  -21.4950   -0.8400  -33.7020 C   0  0  0  0  0  0  0  0  0  0  0  0
  -21.2410   -2.1780  -33.4660 C   0  0  0  0  0  3  0  0  0  0  0  0
  -20.6690   -2.6220  -32.2950 C   0  0  0  0  0  3  0  0  0  0  0  0
  -20.3230   -1.7420  -31.3000 C   0  0  0  0  0  0  0  0  0  0  0  0
  -19.5910   -2.2980  -29.7990 Cl  0  0  0  0  0  0  0  0  0  0  0  0
  -20.5690   -0.3960  -31.5140 C   0  0  0  0  0  3  0  0  0  0  0  0
  -21.1420    0.0270  -32.6920 C   0  0  0  0  0  3  0  0  0  0  0  0
  1 16  1  0  0  0  0
  2  1  1  0  0  0  0
  2  3  2  0  0  0  0
  4  2  1  1  0  0  0
  5  4  1  0  0  0  0
  5 14  1  1  0  0  0
  6  7  1  6  0  0  0
  6  5  1  0  0  0  0
  7  8  1  0  0  0  0
  8 10  1  0  0  0  0
  9  8  2  0  0  0  0
 10 11  1  6  0  0  0
 10  4  1  0  0  0  0
 12  6  1  0  0  0  0
 12 11  1  0  0  0  0
 13 12  2  0  0  0  0
 14  1  1  0  0  0  0
 15 14  2  0  0  0  0
 16 17  2  0  0  0  0
 16 22  1  0  0  0  0
 17 18  1  0  0  0  0
 18 19  2  0  0  0  0
 19 20  1  0  0  0  0
 21 19  1  0  0  0  0
 22 21  2  0  0  0  0
M  END
>  <Pose>
1

>  <Score>
-8.174

$$$$
