MODEL 1
REMARK VINA RESULT:    -8.174      0.000      0.000
REMARK INTER + INTRA:          -9.093
REMARK INTER:                  -8.652
REMARK INTRA:                  -0.442
REMARK UNBOUND:                -0.442
REMARK  1 active torsions:
REMARK  status: ('A' for Active; 'I' for Inactive)
REMARK    1  A    between atoms: C_5  and  N_8 
ROOT
ATOM      1  N   UNK d   1     -22.086  -0.432 -34.930  0.00  0.00    -0.252 N 
ATOM      2  C   UNK d   1     -23.478  -0.432 -35.280  0.00  0.00     0.237 C 
ATOM      3  O   UNK d   1     -24.315  -1.218 -34.716  0.00  0.00    -0.272 OA
ATOM      4  C   UNK d   1     -23.720   0.572 -36.329  0.00  0.00     0.104 C 
ATOM      5  C   UNK d   1     -22.345   0.788 -36.915  0.00  0.00     0.104 C 
ATOM      6  C   UNK d   1     -22.352   0.342 -38.361  0.00  0.00     0.076 C 
ATOM      7  C   UNK d   1     -23.264   1.341 -39.090  0.00  0.00     0.091 C 
ATOM      8  C   UNK d   1     -24.629   1.132 -38.500  0.00  0.00     0.133 C 
ATOM      9  O   UNK d   1     -25.579   1.724 -38.937  0.00  0.00    -0.298 OA
ATOM     10  C   UNK d   1     -24.718   0.160 -37.356  0.00  0.00     0.076 C 
ATOM     11  C   UNK d   1     -24.344  -1.203 -37.949  0.00  0.00     0.091 C 
ATOM     12  C   UNK d   1     -22.967  -1.020 -38.528  0.00  0.00     0.133 C 
ATOM     13  O   UNK d   1     -22.424  -1.933 -39.085  0.00  0.00    -0.298 OA
ATOM     14  C   UNK d   1     -21.396   0.067 -36.068  0.00  0.00     0.237 C 
ATOM     15  O   UNK d   1     -20.177  -0.085 -36.305  0.00  0.00    -0.272 OA
ENDROOT
BRANCH   1  16
ATOM     16  C   UNK d   1     -21.495  -0.840 -33.702  0.00  0.00     0.045 A 
ATOM     17  C   UNK d   1     -21.241  -2.178 -33.466  0.00  0.00     0.032 A 
ATOM     18  C   UNK d   1     -20.669  -2.622 -32.295  0.00  0.00     0.026 A 
ATOM     19  C   UNK d   1     -20.323  -1.742 -31.300  0.00  0.00     0.034 A 
ATOM     20 Cl   UNK d   1     -19.591  -2.298 -29.799  0.00  0.00    -0.084 Cl
ATOM     21  C   UNK d   1     -20.569  -0.396 -31.514  0.00  0.00     0.026 A 
ATOM     22  C   UNK d   1     -21.142   0.027 -32.692  0.00  0.00     0.032 A 
ENDBRANCH   1  16
TORSDOF 1
ENDMDL
