MODEL 1
REMARK VINA RESULT:    -8.315      0.000      0.000
REMARK INTER + INTRA:         -10.733
REMARK INTER:                  -9.773
REMARK INTRA:                  -0.960
REMARK UNBOUND:                -0.960
REMARK  3 active torsions:
REMARK  status: ('A' for Active; 'I' for Inactive)
REMARK    1  A    between atoms: C_5  and  N_8 
REMARK    2  A    between atoms: C_14  and  C_18 
REMARK    3  A    between atoms: C_18  and  C_19 
REMARK       I    between atoms: C_19  and  N_21 
ROOT
ATOM      1  N   UNK d   1     -21.471  -0.181 -33.475  0.00  0.00    -0.252 N 
ATOM      2  C   UNK d   1     -20.958  -0.415 -34.805  0.00  0.00     0.239 C 
ATOM      3  O   UNK d   1     -20.014  -1.155 -35.097  0.00  0.00    -0.272 OA
ATOM      4  C   UNK d   1     -21.737   0.364 -35.776  0.00  0.00     0.147 C 
ATOM      5  C   UNK d   1     -20.930   1.139 -36.790  0.00  0.00     0.279 C 
ATOM      6  N   UNK d   1     -20.714   2.464 -36.261  0.00  0.00     0.114 N 
ATOM      7  C   UNK d   1     -21.077   2.406 -34.859  0.00  0.00     0.245 C 
ATOM      8  C   UNK d   1     -22.273   1.477 -34.905  0.00  0.00     0.129 C 
ATOM      9  C   UNK d   1     -22.530   0.779 -33.632  0.00  0.00     0.238 C 
ATOM     10  O   UNK d   1     -23.489   1.020 -32.895  0.00  0.00    -0.272 OA
ATOM     11  C   UNK d   1     -21.790   1.170 -38.023  0.00  0.00     0.017 A 
ATOM     12  C   UNK d   1     -21.190   0.380 -38.963  0.00  0.00     0.044 A 
ATOM     13  C   UNK d   1     -21.777   0.149 -40.217  0.00  0.00     0.030 A 
ATOM     14  C   UNK d   1     -22.990   0.727 -40.531  0.00  0.00     0.002 A 
ATOM     15  C   UNK d   1     -23.590   1.521 -39.591  0.00  0.00     0.001 A 
ATOM     16  C   UNK d   1     -23.001   1.737 -38.363  0.00  0.00     0.012 A 
ATOM     17  N   UNK d   1     -19.919  -0.066 -38.519  0.00  0.00    -0.324 N 
ATOM     18  C   UNK d   1     -19.713   0.486 -37.227  0.00  0.00     0.267 C 
ATOM     19  O   UNK d   1     -18.632   0.397 -36.608  0.00  0.00    -0.270 OA
ATOM     20  H   UNK d   1     -19.700   2.696 -36.387  0.00  0.00     0.318 HD
ATOM     21  H   UNK d   1     -19.246  -0.695 -39.053  0.00  0.00     0.169 HD
ENDROOT
BRANCH   7  22
ATOM     22  C   UNK d   1     -21.455   3.757 -34.310  0.00  0.00     0.139 C 
BRANCH  22  23
ATOM     23  C   UNK d   1     -20.745   4.875 -34.924  0.00  0.00     0.217 C 
ATOM     24  O   UNK d   1     -19.500   4.917 -34.915  0.00  0.00    -0.274 OA
ATOM     25  N   UNK d   1     -21.471   5.923 -35.535  0.00  0.00    -0.370 N 
ATOM     26  H   UNK d   1     -22.517   5.996 -35.537  0.00  0.00     0.159 HD
ATOM     27  H   UNK d   1     -21.000   6.727 -36.045  0.00  0.00     0.159 HD
ENDBRANCH  22  23
ENDBRANCH   7  22
BRANCH   1  28
ATOM     28  C   UNK d   1     -21.067  -0.748 -32.262  0.00  0.00     0.045 A 
ATOM     29  C   UNK d   1     -20.614  -0.012 -31.201  0.00  0.00     0.032 A 
ATOM     30  C   UNK d   1     -20.216  -0.577 -29.995  0.00  0.00     0.026 A 
ATOM     31  C   UNK d   1     -20.274  -1.941 -29.840  0.00  0.00     0.034 A 
ATOM     32 Cl   UNK d   1     -19.785  -2.667 -28.319  0.00  0.00    -0.084 Cl
ATOM     33  C   UNK d   1     -20.719  -2.704 -30.875  0.00  0.00     0.026 A 
ATOM     34  C   UNK d   1     -21.112  -2.108 -32.078  0.00  0.00     0.032 A 
ENDBRANCH   1  28
TORSDOF 3
ENDMDL
