/Users/jonathanwahrer/Desktop/Msc/3_Semester/Drug_Design_Praktikum/waehrer_HTS_screening/HTS_experiment/out/docking_results/vina_output/5l4q/1943_docked.pdbqt
 OpenBabel03212219103D

 34 38  0  0  1  0  0  0  0  0999 V2000
  -21.4710   -0.1810  -33.4750 N   0  0  0  0  0  0  0  0  0  0  0  0
  -20.9580   -0.4150  -34.8050 C   0  0  0  0  0  0  0  0  0  0  0  0
  -20.0140   -1.1550  -35.0970 O   0  0  0  0  0  0  0  0  0  0  0  0
  -21.7370    0.3640  -35.7760 C   0  0  2  0  0  3  0  0  0  0  0  0
  -20.9300    1.1390  -36.7900 C   0  0  2  0  0  0  0  0  0  0  0  0
  -20.7140    2.4640  -36.2610 N   0  0  0  0  0  0  0  0  0  0  0  0
  -21.0770    2.4060  -34.8590 C   0  0  2  0  0  3  0  0  0  0  0  0
  -22.2730    1.4770  -34.9050 C   0  0  2  0  0  3  0  0  0  0  0  0
  -22.5300    0.7790  -33.6320 C   0  0  0  0  0  0  0  0  0  0  0  0
  -23.4890    1.0200  -32.8950 O   0  0  0  0  0  0  0  0  0  0  0  0
  -21.7900    1.1700  -38.0230 C   0  0  0  0  0  0  0  0  0  0  0  0
  -21.1900    0.3800  -38.9630 C   0  0  0  0  0  0  0  0  0  0  0  0
  -21.7770    0.1490  -40.2170 C   0  0  0  0  0  3  0  0  0  0  0  0
  -22.9900    0.7270  -40.5310 C   0  0  0  0  0  3  0  0  0  0  0  0
  -23.5900    1.5210  -39.5910 C   0  0  0  0  0  3  0  0  0  0  0  0
  -23.0010    1.7370  -38.3630 C   0  0  0  0  0  3  0  0  0  0  0  0
  -19.9190   -0.0660  -38.5190 N   0  0  0  0  0  0  0  0  0  0  0  0
  -19.7130    0.4860  -37.2270 C   0  0  0  0  0  0  0  0  0  0  0  0
  -18.6320    0.3970  -36.6080 O   0  0  0  0  0  0  0  0  0  0  0  0
  -19.7000    2.6960  -36.3870 H   0  0  0  0  0  0  0  0  0  0  0  0
  -19.2460   -0.6950  -39.0530 H   0  0  0  0  0  0  0  0  0  0  0  0
  -21.4550    3.7570  -34.3100 C   0  0  0  0  0  2  0  0  0  0  0  0
  -20.7450    4.8750  -34.9240 C   0  0  0  0  0  0  0  0  0  0  0  0
  -19.5000    4.9170  -34.9150 O   0  0  0  0  0  0  0  0  0  0  0  0
  -21.4710    5.9230  -35.5350 N   0  0  0  0  0  0  0  0  0  0  0  0
  -22.5170    5.9960  -35.5370 H   0  0  0  0  0  0  0  0  0  0  0  0
  -21.0000    6.7270  -36.0450 H   0  0  0  0  0  0  0  0  0  0  0  0
  -21.0670   -0.7480  -32.2620 C   0  0  0  0  0  0  0  0  0  0  0  0
  -20.6140   -0.0120  -31.2010 C   0  0  0  0  0  3  0  0  0  0  0  0
  -20.2160   -0.5770  -29.9950 C   0  0  0  0  0  3  0  0  0  0  0  0
  -20.2740   -1.9410  -29.8400 C   0  0  0  0  0  0  0  0  0  0  0  0
  -19.7850   -2.6670  -28.3190 Cl  0  0  0  0  0  0  0  0  0  0  0  0
  -20.7190   -2.7040  -30.8750 C   0  0  0  0  0  3  0  0  0  0  0  0
  -21.1120   -2.1080  -32.0780 C   0  0  0  0  0  3  0  0  0  0  0  0
  1 28  1  0  0  0  0
  2  1  1  0  0  0  0
  3  2  2  0  0  0  0
  4  8  1  0  0  0  0
  4  2  1  1  0  0  0
  5 11  1  6  0  0  0
  5  6  1  0  0  0  0
  5  4  1  0  0  0  0
  6  7  1  0  0  0  0
  7 22  1  6  0  0  0
  8  7  1  0  0  0  0
  8  9  1  1  0  0  0
  9  1  1  0  0  0  0
  9 10  2  0  0  0  0
 12 17  1  0  0  0  0
 12 11  2  0  0  0  0
 13 12  1  0  0  0  0
 14 13  2  0  0  0  0
 14 15  1  0  0  0  0
 15 16  2  0  0  0  0
 16 11  1  0  0  0  0
 17 18  1  0  0  0  0
 18  5  1  0  0  0  0
 18 19  2  0  0  0  0
 20  6  1  0  0  0  0
 21 17  1  0  0  0  0
 23 24  2  0  0  0  0
 23 22  1  0  0  0  0
 25 23  1  0  0  0  0
 26 25  1  0  0  0  0
 27 25  1  0  0  0  0
 28 34  2  0  0  0  0
 28 29  1  0  0  0  0
 29 30  2  0  0  0  0
 30 31  1  0  0  0  0
 31 32  1  0  0  0  0
 33 31  2  0  0  0  0
 34 33  1  0  0  0  0
M  END
>  <Pose>
1

>  <Score>
-8.315

$$$$
