/Users/jonathanwahrer/Desktop/Msc/3_Semester/Drug_Design_Praktikum/waehrer_HTS_screening/HTS_experiment/out/docking_results/vina_output/5l4q/1945_docked.pdbqt
 OpenBabel03212219103D

 24 27  0  0  0  0  0  0  0  0999 V2000
  -20.3460   -5.4330  -27.9950 Cl  0  0  0  0  0  0  0  0  0  0  0  0
  -19.8490   -3.8530  -27.4230 C   0  0  0  0  0  0  0  0  0  0  0  0
  -19.9910   -2.7240  -28.1960 C   0  0  0  0  0  3  0  0  0  0  0  0
  -19.5890   -1.4700  -27.7270 C   0  0  0  0  0  0  0  0  0  0  0  0
  -19.0410   -1.3890  -26.4560 C   0  0  0  0  0  0  0  0  0  0  0  0
  -18.8940   -2.5080  -25.6720 C   0  0  0  0  0  3  0  0  0  0  0  0
  -19.2900   -3.7330  -26.1430 C   0  0  0  0  0  3  0  0  0  0  0  0
  -18.6040   -0.0880  -25.9190 C   0  0  0  0  0  0  0  0  0  0  0  0
  -18.0760    0.2620  -24.7960 N   0  0  0  0  0  0  0  0  0  0  0  0
  -17.8170    1.6740  -24.7250 C   0  0  0  0  0  3  0  0  0  0  0  0
  -18.2880    2.2010  -26.0450 C   0  0  0  0  0  3  0  0  0  0  0  0
  -18.7710    1.0440  -26.7500 N   0  0  0  0  0  0  0  0  0  0  0  0
  -19.3370    0.9290  -28.0500 C   0  0  0  0  0  0  0  0  0  0  0  0
  -19.4950    1.9270  -28.8080 O   0  0  0  0  0  0  0  0  0  0  0  0
  -19.7640   -0.3410  -28.5760 N   0  0  0  0  0  0  0  0  0  0  0  0
  -20.3410   -0.4350  -29.9100 C   0  0  0  0  0  2  0  0  0  0  0  0
  -19.2950   -0.3330  -30.9530 C   0  0  0  0  0  0  0  0  0  0  0  0
  -18.1460   -0.7620  -30.6840 O   0  0  0  0  0  0  0  0  0  0  0  0
  -19.5300    0.2230  -32.2330 N   0  0  0  0  0  0  0  0  0  0  0  0
  -20.4870    0.5730  -32.4410 H   0  0  0  0  0  0  0  0  0  0  0  0
  -18.4930    0.3100  -33.2330 C   0  0  0  0  0  2  0  0  0  0  0  0
  -18.3690    1.7270  -33.7260 C   0  0  0  0  0  3  0  0  0  0  0  0
  -19.5680    2.4200  -34.2690 C   0  0  0  0  0  2  0  0  0  0  0  0
  -18.5180    1.9500  -35.2010 C   0  0  0  0  0  2  0  0  0  0  0  0
  1  2  1  0  0  0  0
  2  7  1  0  0  0  0
  3  4  1  0  0  0  0
  3  2  2  0  0  0  0
  4  5  2  0  0  0  0
  5  8  1  0  0  0  0
  5  6  1  0  0  0  0
  7  6  2  0  0  0  0
  8  9  2  0  0  0  0
  9 10  1  0  0  0  0
 11 10  2  0  0  0  0
 12 11  1  0  0  0  0
 12  8  1  0  0  0  0
 13 12  1  0  0  0  0
 14 13  2  0  0  0  0
 15 13  1  0  0  0  0
 15  4  1  0  0  0  0
 16 15  1  0  0  0  0
 17 18  2  0  0  0  0
 17 16  1  0  0  0  0
 19 17  1  0  0  0  0
 20 19  1  0  0  0  0
 21 19  1  0  0  0  0
 22 21  1  0  0  0  0
 23 22  1  0  0  0  0
 24 23  1  0  0  0  0
 24 22  1  0  0  0  0
M  END
>  <Pose>
1

>  <Score>
-8.099

$$$$
