MODEL 1
REMARK VINA RESULT:    -8.099      0.000      0.000
REMARK INTER + INTRA:         -10.236
REMARK INTER:                  -9.993
REMARK INTRA:                  -0.243
REMARK UNBOUND:                -0.243
REMARK  4 active torsions:
REMARK  status: ('A' for Active; 'I' for Inactive)
REMARK    1  A    between atoms: N_15  and  C_16 
REMARK    2  A    between atoms: C_16  and  C_17 
REMARK       I    between atoms: C_17  and  N_19 
REMARK    3  A    between atoms: N_19  and  C_20 
REMARK    4  A    between atoms: C_20  and  C_21 
ROOT
ATOM      1 Cl   UNK d   1     -20.346  -5.433 -27.995  0.00  0.00    -0.084 Cl
ATOM      2  C   UNK d   1     -19.849  -3.853 -27.423  0.00  0.00     0.036 A 
ATOM      3  C   UNK d   1     -19.991  -2.724 -28.196  0.00  0.00     0.054 A 
ATOM      4  C   UNK d   1     -19.589  -1.470 -27.727  0.00  0.00     0.055 A 
ATOM      5  C   UNK d   1     -19.041  -1.389 -26.456  0.00  0.00     0.037 A 
ATOM      6  C   UNK d   1     -18.894  -2.508 -25.672  0.00  0.00     0.019 A 
ATOM      7  C   UNK d   1     -19.290  -3.733 -26.143  0.00  0.00     0.025 A 
ATOM      8  C   UNK d   1     -18.604  -0.088 -25.919  0.00  0.00     0.141 A 
ATOM      9  N   UNK d   1     -18.076   0.262 -24.796  0.00  0.00    -0.270 NA
ATOM     10  C   UNK d   1     -17.817   1.674 -24.725  0.00  0.00     0.171 A 
ATOM     11  C   UNK d   1     -18.288   2.201 -26.045  0.00  0.00     0.157 A 
ATOM     12  N   UNK d   1     -18.771   1.044 -26.750  0.00  0.00    -0.281 N 
ATOM     13  C   UNK d   1     -19.337   0.929 -28.050  0.00  0.00     0.331 A 
ATOM     14  O   UNK d   1     -19.495   1.927 -28.808  0.00  0.00    -0.246 OA
ATOM     15  N   UNK d   1     -19.764  -0.341 -28.576  0.00  0.00    -0.290 N 
ENDROOT
BRANCH  15  16
ATOM     16  C   UNK d   1     -20.341  -0.435 -29.910  0.00  0.00     0.236 C 
BRANCH  16  17
ATOM     17  C   UNK d   1     -19.295  -0.333 -30.953  0.00  0.00     0.236 C 
ATOM     18  O   UNK d   1     -18.146  -0.762 -30.684  0.00  0.00    -0.272 OA
ATOM     19  N   UNK d   1     -19.530   0.223 -32.233  0.00  0.00    -0.359 N 
ATOM     20  H   UNK d   1     -20.487   0.573 -32.441  0.00  0.00     0.162 HD
BRANCH  19  21
ATOM     21  C   UNK d   1     -18.493   0.310 -33.233  0.00  0.00     0.127 C 
BRANCH  21  22
ATOM     22  C   UNK d   1     -18.369   1.727 -33.726  0.00  0.00     0.003 A 
ATOM     23  C   UNK d   1     -19.568   2.420 -34.269  0.00  0.00     0.007 A 
ATOM     24  C   UNK d   1     -18.518   1.950 -35.201  0.00  0.00     0.007 A 
ENDBRANCH  21  22
ENDBRANCH  19  21
ENDBRANCH  16  17
ENDBRANCH  15  16
TORSDOF 4
ENDMDL
