MODEL 1
REMARK VINA RESULT:    -7.979      0.000      0.000
REMARK INTER + INTRA:         -13.354
REMARK INTER:                 -11.710
REMARK INTRA:                  -1.644
REMARK UNBOUND:                -1.644
REMARK  8 active torsions:
REMARK  status: ('A' for Active; 'I' for Inactive)
REMARK    1  A    between atoms: C_5  and  C_8 
REMARK    2  A    between atoms: C_10  and  C_24 
REMARK    3  A    between atoms: N_11  and  C_16 
REMARK    4  A    between atoms: C_16  and  C_17 
REMARK    5  A    between atoms: C_17  and  N_18 
REMARK    6  A    between atoms: C_27  and  O_30 
REMARK    7  A    between atoms: O_30  and  C_31 
REMARK    8  A    between atoms: C_31  and  C_32 
ROOT
ATOM      1  C   UNK d   1     -19.049   0.955 -33.819  0.00  0.00     0.130 C 
ATOM      2  C   UNK d   1     -19.943   0.007 -33.590  0.00  0.00     0.062 C 
ATOM      3  C   UNK d   1     -19.699  -1.248 -32.790  0.00  0.00     0.161 C 
ATOM      4  N   UNK d   1     -20.812  -2.106 -33.074  0.00  0.00    -0.331 N 
ATOM      5  C   UNK d   1     -21.836  -1.392 -33.751  0.00  0.00     0.295 C 
ATOM      6  O   UNK d   1     -22.976  -1.798 -34.021  0.00  0.00    -0.264 OA
ATOM      7  C   UNK d   1     -21.283  -0.057 -34.078  0.00  0.00     0.250 C 
ATOM      8  O   UNK d   1     -21.915   0.840 -34.685  0.00  0.00    -0.282 OA
ATOM      9  O   UNK d   1     -17.765   0.745 -33.262  0.00  0.00    -0.190 OA
ENDROOT
BRANCH   3  10
ATOM     10  C   UNK d   1     -19.613  -0.829 -31.364  0.00  0.00    -0.030 A 
ATOM     11  C   UNK d   1     -20.645  -0.142 -30.791  0.00  0.00     0.012 A 
ATOM     12  C   UNK d   1     -20.564   0.227 -29.479  0.00  0.00     0.037 A 
ATOM     13  C   UNK d   1     -19.463  -0.074 -28.706  0.00  0.00     0.068 A 
ATOM     14  C   UNK d   1     -18.417  -0.769 -29.285  0.00  0.00     0.037 A 
ATOM     15  C   UNK d   1     -18.505  -1.142 -30.618  0.00  0.00     0.012 A 
BRANCH  13  16
ATOM     16  O   UNK d   1     -19.388   0.306 -27.371  0.00  0.00    -0.351 OA
BRANCH  16  17
ATOM     17  C   UNK d   1     -18.094   0.344 -26.750  0.00  0.00     0.175 C 
BRANCH  17  18
ATOM     18  C   UNK d   1     -18.205  -0.256 -25.351  0.00  0.00     0.022 C 
ATOM     19  C   UNK d   1     -18.529  -1.733 -25.527  0.00  0.00     0.007 C 
ENDBRANCH  17  18
ENDBRANCH  16  17
ENDBRANCH  13  16
ENDBRANCH   3  10
BRANCH   4  20
ATOM     20  C   UNK d   1     -20.890  -3.523 -32.734  0.00  0.00     0.155 C 
BRANCH  20  21
ATOM     21  C   UNK d   1     -21.572  -3.689 -31.420  0.00  0.00     0.255 C 
BRANCH  21  22
ATOM     22  N   UNK d   1     -20.615  -4.024 -30.354  0.00  0.00    -0.066 N 
ATOM     23  C   UNK d   1     -20.543  -5.449 -30.257  0.00  0.00     0.261 C 
ATOM     24  C   UNK d   1     -19.899  -5.899 -28.947  0.00  0.00     0.195 C 
ATOM     25  O   UNK d   1     -20.679  -5.343 -27.917  0.00  0.00    -0.388 OA
ATOM     26  C   UNK d   1     -20.452  -3.982 -27.923  0.00  0.00     0.195 C 
ATOM     27  C   UNK d   1     -21.101  -3.380 -29.153  0.00  0.00     0.261 C 
ATOM     28  H   UNK d   1     -19.660  -3.643 -30.586  0.00  0.00     0.280 HD
ENDBRANCH  21  22
ENDBRANCH  20  21
ENDBRANCH   4  20
BRANCH   1  29
ATOM     29  C   UNK d   1     -19.341   2.143 -34.590  0.00  0.00     0.001 A 
ATOM     30  C   UNK d   1     -19.055   2.166 -35.962  0.00  0.00     0.016 A 
ATOM     31  C   UNK d   1     -19.270   3.280 -36.746  0.00  0.00     0.024 A 
ATOM     32  C   UNK d   1     -19.781   4.433 -36.201  0.00  0.00     0.034 A 
ATOM     33 Cl   UNK d   1     -20.077   5.879 -37.140  0.00  0.00    -0.084 Cl
ATOM     34  C   UNK d   1     -20.068   4.445 -34.866  0.00  0.00     0.024 A 
ATOM     35  C   UNK d   1     -19.849   3.311 -34.072  0.00  0.00     0.016 A 
ENDBRANCH   1  29
TORSDOF 8
ENDMDL
