/Users/jonathanwahrer/Desktop/Msc/3_Semester/Drug_Design_Praktikum/waehrer_HTS_screening/HTS_experiment/out/docking_results/vina_output/5l4q/1956_docked.pdbqt
 OpenBabel03212219113D

 35 38  0  0  1  0  0  0  0  0999 V2000
  -19.0490    0.9550  -33.8190 C   0  0  0  0  0  0  0  0  0  0  0  0
  -19.9430    0.0070  -33.5900 C   0  0  0  0  0  0  0  0  0  0  0  0
  -19.6990   -1.2480  -32.7900 C   0  0  2  0  0  3  0  0  0  0  0  0
  -20.8120   -2.1060  -33.0740 N   0  0  0  0  0  0  0  0  0  0  0  0
  -21.8360   -1.3920  -33.7510 C   0  0  0  0  0  0  0  0  0  0  0  0
  -22.9760   -1.7980  -34.0210 O   0  0  0  0  0  0  0  0  0  0  0  0
  -21.2830   -0.0570  -34.0780 C   0  0  0  0  0  0  0  0  0  0  0  0
  -21.9150    0.8400  -34.6850 O   0  0  0  0  0  0  0  0  0  0  0  0
  -17.7650    0.7450  -33.2620 O   0  0  0  0  0  1  0  0  0  0  0  0
  -19.6130   -0.8290  -31.3640 C   0  0  0  0  0  0  0  0  0  0  0  0
  -20.6450   -0.1420  -30.7910 C   0  0  0  0  0  3  0  0  0  0  0  0
  -20.5640    0.2270  -29.4790 C   0  0  0  0  0  3  0  0  0  0  0  0
  -19.4630   -0.0740  -28.7060 C   0  0  0  0  0  0  0  0  0  0  0  0
  -18.4170   -0.7690  -29.2850 C   0  0  0  0  0  3  0  0  0  0  0  0
  -18.5050   -1.1420  -30.6180 C   0  0  0  0  0  3  0  0  0  0  0  0
  -19.3880    0.3060  -27.3710 O   0  0  0  0  0  0  0  0  0  0  0  0
  -18.0940    0.3440  -26.7500 C   0  0  0  0  0  2  0  0  0  0  0  0
  -18.2050   -0.2560  -25.3510 C   0  0  0  0  0  2  0  0  0  0  0  0
  -18.5290   -1.7330  -25.5270 C   0  0  0  0  0  1  0  0  0  0  0  0
  -20.8900   -3.5230  -32.7340 C   0  0  0  0  0  2  0  0  0  0  0  0
  -21.5720   -3.6890  -31.4200 C   0  0  0  0  0  2  0  0  0  0  0  0
  -20.6150   -4.0240  -30.3540 N   0  0  0  0  0  4  0  0  0  0  0  0
  -20.5430   -5.4490  -30.2570 C   0  0  0  0  0  2  0  0  0  0  0  0
  -19.8990   -5.8990  -28.9470 C   0  0  0  0  0  2  0  0  0  0  0  0
  -20.6790   -5.3430  -27.9170 O   0  0  0  0  0  0  0  0  0  0  0  0
  -20.4520   -3.9820  -27.9230 C   0  0  0  0  0  2  0  0  0  0  0  0
  -21.1010   -3.3800  -29.1530 C   0  0  0  0  0  2  0  0  0  0  0  0
  -19.6600   -3.6430  -30.5860 H   0  0  0  0  0  0  0  0  0  0  0  0
  -19.3410    2.1430  -34.5900 C   0  0  0  0  0  0  0  0  0  0  0  0
  -19.0550    2.1660  -35.9620 C   0  0  0  0  0  3  0  0  0  0  0  0
  -19.2700    3.2800  -36.7460 C   0  0  0  0  0  3  0  0  0  0  0  0
  -19.7810    4.4330  -36.2010 C   0  0  0  0  0  0  0  0  0  0  0  0
  -20.0770    5.8790  -37.1400 Cl  0  0  0  0  0  0  0  0  0  0  0  0
  -20.0680    4.4450  -34.8660 C   0  0  0  0  0  3  0  0  0  0  0  0
  -19.8490    3.3110  -34.0720 C   0  0  0  0  0  3  0  0  0  0  0  0
  1  2  2  0  0  0  0
  1  9  1  0  0  0  0
  2  3  1  0  0  0  0
  3 10  1  1  0  0  0
  4  3  1  0  0  0  0
  4 20  1  0  0  0  0
  5  4  1  0  0  0  0
  6  5  2  0  0  0  0
  7  5  1  0  0  0  0
  7  2  1  0  0  0  0
  8  7  2  0  0  0  0
 10 11  2  0  0  0  0
 10 15  1  0  0  0  0
 11 12  1  0  0  0  0
 12 13  2  0  0  0  0
 13 16  1  0  0  0  0
 14 13  1  0  0  0  0
 15 14  2  0  0  0  0
 16 17  1  0  0  0  0
 17 18  1  0  0  0  0
 19 18  1  0  0  0  0
 20 21  1  0  0  0  0
 21 22  1  0  0  0  0
 22 23  1  0  0  0  0
 22 27  1  0  0  0  0
 23 24  1  0  0  0  0
 24 25  1  0  0  0  0
 26 25  1  0  0  0  0
 27 26  1  0  0  0  0
 28 22  1  0  0  0  0
 29 35  1  0  0  0  0
 29  1  1  0  0  0  0
 30 29  2  0  0  0  0
 31 32  2  0  0  0  0
 31 30  1  0  0  0  0
 32 34  1  0  0  0  0
 33 32  1  0  0  0  0
 34 35  2  0  0  0  0
M  END
>  <Pose>
1

>  <Score>
-7.979

$$$$
