MODEL 1
REMARK VINA RESULT:    -8.802      0.000      0.000
REMARK INTER + INTRA:         -13.179
REMARK INTER:                 -12.147
REMARK INTRA:                  -1.032
REMARK UNBOUND:                -1.032
REMARK  7 active torsions:
REMARK  status: ('A' for Active; 'I' for Inactive)
REMARK    1  A    between atoms: C_5  and  C_8 
REMARK    2  A    between atoms: C_8  and  O_9 
REMARK    3  A    between atoms: C_8  and  C_10 
REMARK    4  A    between atoms: N_17  and  C_20 
REMARK    5  A    between atoms: C_20  and  C_21 
REMARK    6  A    between atoms: C_21  and  C_22 
REMARK    7  A    between atoms: C_22  and  O_23 
ROOT
ATOM      1  C   UNK d   1     -20.340  -0.321 -32.337  0.00  0.00     0.269 C 
ATOM      2  N   UNK d   1     -19.290   0.586 -32.784  0.00  0.00     0.116 N 
ATOM      3  C   UNK d   1     -19.770   1.212 -34.000  0.00  0.00     0.279 A 
ATOM      4  C   UNK d   1     -21.248   1.308 -33.756  0.00  0.00     0.147 C 
ATOM      5  C   UNK d   1     -21.605   0.063 -33.007  0.00  0.00     0.131 C 
ATOM      6  C   UNK d   1     -22.051  -0.918 -34.034  0.00  0.00     0.233 C 
ATOM      7  O   UNK d   1     -22.194  -2.153 -33.876  0.00  0.00    -0.272 OA
ATOM      8  N   UNK d   1     -22.284  -0.163 -35.244  0.00  0.00    -0.287 N 
ATOM      9  C   UNK d   1     -22.073   1.207 -34.972  0.00  0.00     0.234 C 
ATOM     10  O   UNK d   1     -22.500   2.185 -35.633  0.00  0.00    -0.272 OA
ATOM     11  C   UNK d   1     -19.162   2.548 -34.215  0.00  0.00     0.017 A 
ATOM     12  C   UNK d   1     -18.460   2.477 -35.394  0.00  0.00     0.044 A 
ATOM     13  C   UNK d   1     -17.786   3.605 -35.842  0.00  0.00     0.030 A 
ATOM     14  C   UNK d   1     -17.840   4.760 -35.097  0.00  0.00     0.002 A 
ATOM     15  C   UNK d   1     -18.546   4.842 -33.909  0.00  0.00     0.001 A 
ATOM     16  C   UNK d   1     -19.210   3.714 -33.475  0.00  0.00     0.012 A 
ATOM     17  N   UNK d   1     -18.556   1.164 -35.975  0.00  0.00    -0.324 N 
ATOM     18  C   UNK d   1     -19.360   0.377 -35.115  0.00  0.00     0.267 A 
ATOM     19  O   UNK d   1     -19.635  -0.816 -35.324  0.00  0.00    -0.270 OA
ATOM     20  H   UNK d   1     -18.412   0.077 -32.935  0.00  0.00     0.318 HD
ATOM     21  H   UNK d   1     -18.093   0.902 -36.874  0.00  0.00     0.169 HD
ENDROOT
BRANCH   1  22
ATOM     22  C   UNK d   1     -20.367  -0.207 -30.837  0.00  0.00     0.185 C 
BRANCH  22  23
ATOM     23  C   UNK d   1     -20.393  -1.531 -30.151  0.00  0.00    -0.028 A 
ATOM     24  C   UNK d   1     -20.067  -1.631 -28.799  0.00  0.00     0.011 A 
ATOM     25  C   UNK d   1     -20.064  -2.839 -28.151  0.00  0.00     0.024 A 
ATOM     26  C   UNK d   1     -20.384  -4.013 -28.805  0.00  0.00     0.034 A 
ATOM     27 Cl   UNK d   1     -20.384  -5.566 -27.987  0.00  0.00    -0.084 Cl
ATOM     28  C   UNK d   1     -20.702  -3.890 -30.139  0.00  0.00     0.024 A 
ATOM     29  C   UNK d   1     -20.712  -2.691 -30.813  0.00  0.00     0.011 A 
ENDBRANCH  22  23
BRANCH  22  30
ATOM     30  O   UNK d   1     -19.348   0.546 -30.315  0.00  0.00    -0.389 OA
ATOM     31  H   UNK d   1     -19.329   1.412 -30.797  0.00  0.00     0.210 HD
ENDBRANCH  22  30
ENDBRANCH   1  22
BRANCH   8  32
ATOM     32  C   UNK d   1     -22.656  -0.726 -36.509  0.00  0.00     0.137 C 
BRANCH  32  33
ATOM     33  C   UNK d   1     -24.072  -1.144 -36.643  0.00  0.00     0.046 C 
BRANCH  33  34
ATOM     34  C   UNK d   1     -24.462  -1.788 -37.927  0.00  0.00     0.168 C 
BRANCH  34  35
ATOM     35  O   UNK d   1     -24.054  -3.112 -38.026  0.00  0.00    -0.396 OA
ATOM     36  C   UNK d   1     -23.760  -3.410 -39.373  0.00  0.00     0.201 C 
ENDBRANCH  34  35
ENDBRANCH  33  34
ENDBRANCH  32  33
ENDBRANCH   8  32
TORSDOF 7
ENDMDL
