/Users/jonathanwahrer/Desktop/Msc/3_Semester/Drug_Design_Praktikum/waehrer_HTS_screening/HTS_experiment/out/docking_results/vina_output/5l4q/1960_docked.pdbqt
 OpenBabel03212219113D

 28 31  0  0  0  0  0  0  0  0999 V2000
  -23.3170   -0.9170  -34.9770 C   0  0  0  0  0  0  0  0  0  0  0  0
  -24.4020   -0.7960  -34.3480 O   0  0  0  0  0  0  0  0  0  0  0  0
  -22.1530   -0.3630  -34.4220 N   0  0  0  0  0  0  0  0  0  0  0  0
  -22.1880    0.3490  -33.1330 C   0  0  0  0  0  2  0  0  0  0  0  0
  -20.9170    0.0090  -32.3700 C   0  0  0  0  0  2  0  0  0  0  0  0
  -20.4930   -1.2990  -32.8300 N   0  0  0  0  0  0  0  0  0  0  0  0
  -19.9350   -1.3360  -34.1710 C   0  0  0  0  0  2  0  0  0  0  0  0
  -20.8320   -0.4310  -35.0330 C   0  0  0  0  0  2  0  0  0  0  0  0
  -20.6320   -2.4600  -32.0270 C   0  0  0  0  0  0  0  0  0  0  0  0
  -20.9550   -3.6710  -32.6110 C   0  0  0  0  0  3  0  0  0  0  0  0
  -21.0950   -4.7710  -31.8140 N   0  0  0  0  0  0  0  0  0  0  0  0
  -20.9360   -4.7330  -30.5050 N   0  0  0  0  0  0  0  0  0  0  0  0
  -20.6150   -3.5680  -29.8620 C   0  0  0  0  0  0  0  0  0  0  0  0
  -20.4770   -2.4740  -30.6610 C   0  0  0  0  0  3  0  0  0  0  0  0
  -20.4630   -3.5990  -28.4580 N   0  0  0  0  0  0  0  0  0  0  0  0
  -20.3070   -2.3730  -27.6970 C   0  0  0  0  0  2  0  0  0  0  0  0
  -19.1890   -2.5230  -26.6640 C   0  0  0  0  0  2  0  0  0  0  0  0
  -19.3020   -3.7050  -25.9600 O   0  0  0  0  0  0  0  0  0  0  0  0
  -19.1620   -4.7540  -26.8560 C   0  0  0  0  0  2  0  0  0  0  0  0
  -20.4450   -4.8250  -27.7020 C   0  0  0  0  0  2  0  0  0  0  0  0
  -23.3530   -1.6400  -36.2620 C   0  0  0  0  0  2  0  0  0  0  0  0
  -23.3810   -0.7010  -37.4150 C   0  0  0  0  0  0  0  0  0  0  0  0
  -24.4340    0.2020  -37.5320 C   0  0  0  0  0  3  0  0  0  0  0  0
  -24.4950    1.0920  -38.5890 C   0  0  0  0  0  3  0  0  0  0  0  0
  -23.4960    1.1020  -39.5630 C   0  0  0  0  0  0  0  0  0  0  0  0
  -23.5640    2.2170  -40.8940 Cl  0  0  0  0  0  0  0  0  0  0  0  0
  -22.4630    0.2040  -39.4330 C   0  0  0  0  0  3  0  0  0  0  0  0
  -22.3990   -0.6940  -38.3670 C   0  0  0  0  0  3  0  0  0  0  0  0
  1  3  1  0  0  0  0
  1  2  2  0  0  0  0
  3  4  1  0  0  0  0
  4  5  1  0  0  0  0
  6  5  1  0  0  0  0
  6  9  1  0  0  0  0
  7  6  1  0  0  0  0
  8  3  1  0  0  0  0
  8  7  1  0  0  0  0
  9 14  1  0  0  0  0
 10  9  2  0  0  0  0
 10 11  1  0  0  0  0
 11 12  2  0  0  0  0
 12 13  1  0  0  0  0
 13 15  1  0  0  0  0
 14 13  2  0  0  0  0
 15 20  1  0  0  0  0
 15 16  1  0  0  0  0
 16 17  1  0  0  0  0
 17 18  1  0  0  0  0
 19 18  1  0  0  0  0
 20 19  1  0  0  0  0
 21  1  1  0  0  0  0
 22 21  1  0  0  0  0
 23 22  1  0  0  0  0
 24 23  2  0  0  0  0
 25 27  2  0  0  0  0
 25 24  1  0  0  0  0
 26 25  1  0  0  0  0
 27 28  1  0  0  0  0
 28 22  2  0  0  0  0
M  END
>  <Pose>
1

>  <Score>
-8.677

$$$$
