MODEL 1
REMARK VINA RESULT:    -9.020      0.000      0.000
REMARK INTER + INTRA:         -11.417
REMARK INTER:                 -10.602
REMARK INTRA:                  -0.815
REMARK UNBOUND:                -0.815
REMARK  3 active torsions:
REMARK  status: ('A' for Active; 'I' for Inactive)
REMARK    1  A    between atoms: C_6  and  C_7 
REMARK       I    between atoms: C_7  and  N_9 
REMARK    2  A    between atoms: C_10  and  C_11 
REMARK    3  A    between atoms: N_12  and  C_16 
ROOT
ATOM      1  C   UNK d   1     -20.563  -2.888 -29.963  0.00  0.00     0.275 C 
ATOM      2  O   UNK d   1     -21.150  -3.951 -29.521  0.00  0.00    -0.266 OA
ATOM      3  N   UNK d   1     -20.480  -2.550 -31.290  0.00  0.00    -0.348 N 
ATOM      4  C   UNK d   1     -20.397  -2.215 -32.610  0.00  0.00     0.205 C 
ATOM      5  H   UNK d   1     -21.164  -3.683 -31.636  0.00  0.00     0.163 HD
ENDROOT
BRANCH   1   6
ATOM      6  C   UNK d   1     -20.003  -2.099 -28.834  0.00  0.00     0.183 A 
ATOM      7  C   UNK d   1     -19.831  -0.742 -28.729  0.00  0.00     0.231 A 
ATOM      8  F   UNK d   1     -20.136   0.198 -29.658  0.00  0.00    -0.183 F 
ATOM      9  N   UNK d   1     -19.283  -0.415 -27.519  0.00  0.00    -0.279 N 
ATOM     10  C   UNK d   1     -19.119  -1.584 -26.878  0.00  0.00     0.137 A 
ATOM     11  C   UNK d   1     -18.936   0.758 -26.965  0.00  0.00     0.125 A 
ATOM     12  N   UNK d   1     -19.547  -2.586 -27.663  0.00  0.00    -0.220 NA
ATOM     13  C   UNK d   1     -18.574  -1.538 -25.618  0.00  0.00     0.053 A 
ATOM     14  C   UNK d   1     -18.200  -0.340 -25.006  0.00  0.00     0.029 A 
ATOM     15  C   UNK d   1     -18.384   0.831 -25.691  0.00  0.00     0.050 A 
ATOM     16 Cl   UNK d   1     -17.938   2.381 -24.977  0.00  0.00    -0.083 Cl
ENDBRANCH   1   6
BRANCH   4  17
ATOM     17  C   UNK d   1     -19.662  -0.933 -32.912  0.00  0.00     0.171 A 
ATOM     18  N   UNK d   1     -20.126   0.076 -33.654  0.00  0.00    -0.197 N 
ATOM     19  N   UNK d   1     -19.197   1.016 -33.682  0.00  0.00    -0.039 NA
ATOM     20  N   UNK d   1     -18.152   0.637 -32.978  0.00  0.00    -0.023 NA
ATOM     21  N   UNK d   1     -18.449  -0.573 -32.504  0.00  0.00    -0.112 NA
BRANCH  18  22
ATOM     22  C   UNK d   1     -21.419   0.059 -34.262  0.00  0.00     0.062 A 
ATOM     23  C   UNK d   1     -22.477   0.633 -33.565  0.00  0.00     0.032 A 
ATOM     24  C   UNK d   1     -23.763   0.634 -34.092  0.00  0.00     0.002 A 
ATOM     25  C   UNK d   1     -24.031   0.066 -35.321  0.00  0.00     0.000 A 
ATOM     26  C   UNK d   1     -22.977  -0.500 -36.006  0.00  0.00     0.002 A 
ATOM     27  C   UNK d   1     -21.696  -0.504 -35.484  0.00  0.00     0.032 A 
ENDBRANCH  18  22
ENDBRANCH   4  17
TORSDOF 3
ENDMDL
