MODEL 1
REMARK VINA RESULT:    -9.560      0.000      0.000
REMARK INTER + INTRA:         -11.861
REMARK INTER:                 -11.237
REMARK INTRA:                  -0.624
REMARK UNBOUND:                -0.624
REMARK  3 active torsions:
REMARK  status: ('A' for Active; 'I' for Inactive)
REMARK    1  A    between atoms: C_4  and  N_8 
REMARK    2  A    between atoms: C_11  and  C_13 
REMARK    3  A    between atoms: N_18  and  C_21 
ROOT
ATOM      1  C   UNK d   1     -21.459  -2.207 -33.797  0.00  0.00     0.209 C 
ATOM      2  O   UNK d   1     -20.117  -1.935 -34.047  0.00  0.00    -0.170 OA
ATOM      3  N   UNK d   1     -22.258  -1.267 -34.354  0.00  0.00    -0.354 N 
ATOM      4  C   UNK d   1     -23.684  -1.161 -34.457  0.00  0.00     0.145 C 
ATOM      5  C   UNK d   1     -24.043  -0.296 -35.683  0.00  0.00     0.161 C 
ATOM      6  N   UNK d   1     -22.970  -0.588 -36.644  0.00  0.00    -0.211 N 
ATOM      7  C   UNK d   1     -21.664  -0.077 -36.391  0.00  0.00     0.161 C 
ATOM      8  C   UNK d   1     -21.534  -0.075 -34.901  0.00  0.00     0.145 C 
ENDROOT
BRANCH   1   9
ATOM      9  C   UNK d   1     -21.382  -3.432 -33.021  0.00  0.00     0.151 A 
ATOM     10  N   UNK d   1     -21.319  -4.457 -32.372  0.00  0.00    -0.126 NA
ATOM     11  N   UNK d   1     -21.022  -4.742 -31.261  0.00  0.00    -0.060 NA
ATOM     12  N   UNK d   1     -20.717  -3.601 -30.682  0.00  0.00    -0.224 N 
ATOM     13  C   UNK d   1     -20.865  -2.682 -31.599  0.00  0.00     0.158 A 
BRANCH  12  14
ATOM     14  C   UNK d   1     -20.303  -3.558 -29.296  0.00  0.00     0.061 A 
ATOM     15  C   UNK d   1     -19.856  -2.455 -28.657  0.00  0.00     0.055 A 
ATOM     16  C   UNK d   1     -19.486  -2.494 -27.319  0.00  0.00     0.036 A 
ATOM     17 Cl   UNK d   1     -18.891  -1.126 -26.433  0.00  0.00    -0.084 Cl
ATOM     18  C   UNK d   1     -19.573  -3.726 -26.592  0.00  0.00     0.024 A 
ATOM     19  C   UNK d   1     -20.027  -4.818 -27.247  0.00  0.00     0.004 A 
ATOM     20  C   UNK d   1     -20.374  -4.719 -28.552  0.00  0.00     0.032 A 
ENDBRANCH  12  14
ENDBRANCH   1   9
BRANCH   6  21
ATOM     21  C   UNK d   1     -23.219  -1.447 -37.709  0.00  0.00     0.724 A 
ATOM     22  N   UNK d   1     -22.651  -1.217 -38.967  0.00  0.00    -0.075 NA
ATOM     23  C   UNK d   1     -22.794  -1.959 -40.008  0.00  0.00     0.138 A 
ATOM     24  C   UNK d   1     -23.561  -3.134 -39.981  0.00  0.00     0.040 A 
ATOM     25  C   UNK d   1     -24.135  -3.367 -38.738  0.00  0.00     0.138 A 
ATOM     26  N   UNK d   1     -23.958  -2.586 -37.739  0.00  0.00    -0.075 NA
ENDBRANCH   6  21
TORSDOF 3
ENDMDL
