MODEL 1
REMARK VINA RESULT:    -7.366      0.000      0.000
REMARK INTER + INTRA:          -8.805
REMARK INTER:                  -8.442
REMARK INTRA:                  -0.363
REMARK UNBOUND:                -0.363
REMARK  3 active torsions:
REMARK  status: ('A' for Active; 'I' for Inactive)
REMARK    1  A    between atoms: C_4  and  N_8 
REMARK    2  A    between atoms: C_12  and  C_20 
REMARK    3  A    between atoms: C_20  and  O_21 
ROOT
ATOM      1  N   UNK d   1     -19.869  -1.889 -31.307  0.00  0.00    -0.252 N 
ATOM      2  C   UNK d   1     -18.899  -1.049 -31.960  0.00  0.00     0.239 C 
ATOM      3  O   UNK d   1     -18.003  -0.402 -31.368  0.00  0.00    -0.272 OA
ATOM      4  C   UNK d   1     -19.121  -1.070 -33.403  0.00  0.00     0.135 C 
ATOM      5  C   UNK d   1     -19.698   0.181 -33.979  0.00  0.00     0.113 C 
ATOM      6  O   UNK d   1     -20.349  -0.348 -35.122  0.00  0.00    -0.363 OA
ATOM      7  C   UNK d   1     -21.240  -1.202 -34.421  0.00  0.00     0.159 C 
ATOM      8  C   UNK d   1     -20.270  -2.062 -33.650  0.00  0.00     0.128 C 
ATOM      9  C   UNK d   1     -20.780  -2.336 -32.305  0.00  0.00     0.239 C 
ATOM     10  O   UNK d   1     -21.874  -2.893 -32.042  0.00  0.00    -0.272 OA
ATOM     11  C   UNK d   1     -21.844  -0.242 -33.473  0.00  0.00     0.005 C 
ATOM     12  C   UNK d   1     -20.872   0.663 -33.217  0.00  0.00     0.012 C 
ENDROOT
BRANCH   1  13
ATOM     13  C   UNK d   1     -19.948  -2.235 -29.930  0.00  0.00     0.046 A 
ATOM     14  C   UNK d   1     -20.089  -3.547 -29.504  0.00  0.00     0.054 A 
ATOM     15  C   UNK d   1     -20.165  -3.880 -28.168  0.00  0.00     0.036 A 
ATOM     16 Cl   UNK d   1     -20.344  -5.541 -27.647  0.00  0.00    -0.084 Cl
ATOM     17  C   UNK d   1     -20.102  -2.909 -27.190  0.00  0.00     0.024 A 
ATOM     18  C   UNK d   1     -19.960  -1.600 -27.605  0.00  0.00     0.004 A 
ATOM     19  C   UNK d   1     -19.884  -1.264 -28.950  0.00  0.00     0.030 A 
ENDBRANCH   1  13
BRANCH   5  20
ATOM     20  C   UNK d   1     -18.708   1.231 -34.339  0.00  0.00     0.207 C 
BRANCH  20  21
ATOM     21  O   UNK d   1     -18.443   2.016 -33.224  0.00  0.00    -0.398 OA
ATOM     22  H   UNK d   1     -19.138   2.707 -33.119  0.00  0.00     0.209 HD
ENDBRANCH  20  21
ENDBRANCH   5  20
TORSDOF 3
ENDMDL
