/Users/jonathanwahrer/Desktop/Msc/3_Semester/Drug_Design_Praktikum/waehrer_HTS_screening/HTS_experiment/out/docking_results/vina_output/5l4q/1973_docked.pdbqt
 OpenBabel03212219123D

 24 27  0  0  1  0  0  0  0  0999 V2000
  -18.0080   -0.6270  -25.7560 Cl  0  0  0  0  0  0  0  0  0  0  0  0
  -18.8660   -1.5280  -27.0050 C   0  0  0  0  0  0  0  0  0  0  0  0
  -18.8370   -1.1490  -28.3310 C   0  0  0  0  0  2  0  0  0  0  0  0
  -19.4890   -1.8290  -29.3040 N   0  0  0  0  0  0  0  0  0  0  0  0
  -20.2150   -2.9290  -29.0320 C   0  0  0  0  0  0  0  0  0  0  0  0
  -20.8760   -3.6240  -29.9950 N   0  0  0  0  0  0  0  0  0  0  0  0
  -20.8530   -3.2610  -31.2900 C   0  0  0  0  0  0  0  0  0  0  0  0
  -20.1080   -2.1250  -31.5880 C   0  0  2  0  0  3  0  0  0  0  0  0
  -20.0820   -1.7220  -33.0190 C   0  0  0  0  0  2  0  0  0  0  0  0
  -21.4740   -1.8180  -33.4710 N   0  0  0  0  0  0  0  0  0  0  0  0
  -22.0980   -3.1100  -33.4310 C   0  0  0  0  0  2  0  0  0  0  0  0
  -21.5700   -4.0120  -32.3520 C   0  0  0  0  0  2  0  0  0  0  0  0
  -22.1660   -0.6710  -33.9190 C   0  0  0  0  0  0  0  0  0  0  0  0
  -21.5260    0.4350  -33.9000 O   0  0  0  0  0  0  0  0  0  0  0  0
  -19.4470   -1.4410  -30.5920 C   0  0  0  0  0  0  0  0  0  0  0  0
  -18.7720   -0.4040  -30.8910 O   0  0  0  0  0  0  0  0  0  0  0  0
  -20.2570   -3.3270  -27.7060 C   0  0  0  0  0  3  0  0  0  0  0  0
  -19.6020   -2.6530  -26.6960 C   0  0  0  0  0  3  0  0  0  0  0  0
  -23.5660   -0.7100  -34.3960 C   0  0  0  0  0  3  0  0  0  0  0  0
  -23.7160   -1.5250  -35.6620 C   0  0  0  0  0  2  0  0  0  0  0  0
  -22.5260   -1.1530  -36.5370 C   0  0  0  0  0  2  0  0  0  0  0  0
  -22.2490    0.2080  -36.4180 O   0  0  0  0  0  0  0  0  0  0  0  0
  -23.4150    0.9490  -36.1780 C   0  0  0  0  0  2  0  0  0  0  0  0
  -23.9660    0.7210  -34.7830 C   0  0  0  0  0  2  0  0  0  0  0  0
  2 18  2  0  0  0  0
  2  1  1  0  0  0  0
  3  2  1  0  0  0  0
  4  5  1  0  0  0  0
  4  3  1  0  0  0  0
  5 17  2  0  0  0  0
  6  5  1  0  0  0  0
  7  6  2  0  0  0  0
  8  9  1  6  0  0  0
  8  7  1  0  0  0  0
  8 15  1  0  0  0  0
 10 11  1  0  0  0  0
 10  9  1  0  0  0  0
 11 12  1  0  0  0  0
 12  7  1  0  0  0  0
 13 14  2  0  0  0  0
 13 10  1  0  0  0  0
 15  4  1  0  0  0  0
 16 15  2  0  0  0  0
 17 18  1  0  0  0  0
 19 13  1  0  0  0  0
 20 19  1  0  0  0  0
 21 22  1  0  0  0  0
 21 20  1  0  0  0  0
 22 23  1  0  0  0  0
 23 24  1  0  0  0  0
 24 19  1  0  0  0  0
M  END
>  <Pose>
1

>  <Score>
-9.173

$$$$
