MODEL 1
REMARK VINA RESULT:    -9.173      0.000      0.000
REMARK INTER + INTRA:          -8.698
REMARK INTER:                  -9.709
REMARK INTRA:                   1.011
REMARK UNBOUND:                 1.011
REMARK  1 active torsions:
REMARK  status: ('A' for Active; 'I' for Inactive)
REMARK       I    between atoms: N_10  and  C_13 
REMARK    1  A    between atoms: C_13  and  C_15 
ROOT
ATOM      1 Cl   UNK d   1     -18.008  -0.627 -25.756  0.00  0.00    -0.083 Cl
ATOM      2  C   UNK d   1     -18.866  -1.528 -27.005  0.00  0.00     0.050 A 
ATOM      3  C   UNK d   1     -18.837  -1.149 -28.331  0.00  0.00     0.125 A 
ATOM      4  N   UNK d   1     -19.489  -1.829 -29.304  0.00  0.00    -0.271 N 
ATOM      5  C   UNK d   1     -20.215  -2.929 -29.032  0.00  0.00     0.137 A 
ATOM      6  N   UNK d   1     -20.876  -3.624 -29.995  0.00  0.00    -0.234 NA
ATOM      7  C   UNK d   1     -20.853  -3.261 -31.290  0.00  0.00     0.051 A 
ATOM      8  C   UNK d   1     -20.108  -2.125 -31.588  0.00  0.00     0.053 A 
ATOM      9  C   UNK d   1     -20.082  -1.722 -33.019  0.00  0.00     0.172 C 
ATOM     10  N   UNK d   1     -21.474  -1.818 -33.471  0.00  0.00    -0.347 N 
ATOM     11  C   UNK d   1     -22.098  -3.110 -33.431  0.00  0.00     0.132 C 
ATOM     12  C   UNK d   1     -21.570  -4.012 -32.352  0.00  0.00     0.080 C 
ATOM     13  C   UNK d   1     -22.166  -0.671 -33.919  0.00  0.00     0.224 C 
ATOM     14  O   UNK d   1     -21.526   0.435 -33.900  0.00  0.00    -0.273 OA
ATOM     15  C   UNK d   1     -19.447  -1.441 -30.592  0.00  0.00     0.263 A 
ATOM     16  O   UNK d   1     -18.772  -0.404 -30.891  0.00  0.00    -0.267 OA
ATOM     17  C   UNK d   1     -20.257  -3.327 -27.706  0.00  0.00     0.053 A 
ATOM     18  C   UNK d   1     -19.602  -2.653 -26.696  0.00  0.00     0.029 A 
ENDROOT
BRANCH  13  19
ATOM     19  C   UNK d   1     -23.566  -0.710 -34.396  0.00  0.00     0.082 C 
ATOM     20  C   UNK d   1     -23.716  -1.525 -35.662  0.00  0.00     0.040 C 
ATOM     21  C   UNK d   1     -22.526  -1.153 -36.537  0.00  0.00     0.168 C 
ATOM     22  O   UNK d   1     -22.249   0.208 -36.418  0.00  0.00    -0.391 OA
ATOM     23  C   UNK d   1     -23.415   0.949 -36.178  0.00  0.00     0.168 C 
ATOM     24  C   UNK d   1     -23.966   0.721 -34.783  0.00  0.00     0.040 C 
ENDBRANCH  13  19
TORSDOF 1
ENDMDL
