/Users/jonathanwahrer/Desktop/Msc/3_Semester/Drug_Design_Praktikum/waehrer_HTS_screening/HTS_experiment/out/docking_results/vina_output/5l4q/1974_docked.pdbqt
 OpenBabel03212219123D

 26 29  0  0  0  0  0  0  0  0999 V2000
  -20.1610   -4.0950  -30.2860 F   0  0  0  0  0  0  0  0  0  0  0  0
  -20.7970   -3.6450  -31.3940 C   0  0  0  0  0  0  0  0  0  0  0  0
  -20.5450   -2.3490  -31.8180 C   0  0  0  0  0  0  0  0  0  0  0  0
  -21.1550   -1.8240  -32.9360 C   0  0  0  0  0  0  0  0  0  0  0  0
  -22.0370   -2.6360  -33.6280 C   0  0  0  0  0  0  0  0  0  0  0  0
  -22.2870   -3.9220  -33.2090 C   0  0  0  0  0  3  0  0  0  0  0  0
  -21.6750   -4.4410  -32.0920 C   0  0  0  0  0  3  0  0  0  0  0  0
  -22.8170   -1.9710  -35.0530 Cl  0  0  0  0  0  0  0  0  0  0  0  0
  -20.7330   -0.4590  -33.1740 C   0  0  0  0  0  0  0  0  0  0  0  0
  -21.0820    0.3170  -34.0920 O   0  0  0  0  0  0  0  0  0  0  0  0
  -19.7920   -0.1530  -32.1040 C   0  0  0  0  0  0  0  0  0  0  0  0
  -19.1880    0.9550  -31.9510 O   0  0  0  0  0  0  0  0  0  0  0  0
  -19.6910   -1.3120  -31.2920 N   0  0  0  0  0  0  0  0  0  0  0  0
  -18.8740   -1.4760  -30.1070 C   0  0  0  0  0  2  0  0  0  0  0  0
  -19.6180   -1.3420  -28.8730 N   0  0  0  0  0  0  0  0  0  0  0  0
  -18.8960   -1.8940  -27.7780 C   0  0  0  0  0  2  0  0  0  0  0  0
  -18.8930   -1.0780  -26.5330 C   0  0  0  0  0  2  0  0  0  0  0  0
  -18.7900    0.3380  -26.7690 N   0  0  0  0  0  0  0  0  0  0  0  0
  -19.0830    0.8400  -28.0910 C   0  0  0  0  0  2  0  0  0  0  0  0
  -20.1690   -0.0470  -28.6630 C   0  0  0  0  0  2  0  0  0  0  0  0
  -18.4160    1.2500  -25.7560 C   0  0  0  0  0  0  0  0  0  0  0  0
  -18.0180    0.8260  -24.5450 N   0  0  0  0  0  0  0  0  0  0  0  0
  -17.6580    1.6750  -23.5630 C   0  0  0  0  0  3  0  0  0  0  0  0
  -17.6850    3.0410  -23.7740 C   0  0  0  0  0  3  0  0  0  0  0  0
  -18.0810    3.4700  -24.9830 N   0  0  0  0  0  0  0  0  0  0  0  0
  -18.4420    2.6230  -25.9650 C   0  0  0  0  0  3  0  0  0  0  0  0
  2  1  1  0  0  0  0
  3  2  1  0  0  0  0
  3 13  1  0  0  0  0
  4  3  2  0  0  0  0
  5  6  2  0  0  0  0
  5  4  1  0  0  0  0
  6  7  1  0  0  0  0
  7  2  2  0  0  0  0
  8  5  1  0  0  0  0
  9  4  1  0  0  0  0
  9 11  1  0  0  0  0
 10  9  2  0  0  0  0
 11 12  2  0  0  0  0
 11 13  1  0  0  0  0
 13 14  1  0  0  0  0
 14 15  1  0  0  0  0
 15 20  1  0  0  0  0
 15 16  1  0  0  0  0
 16 17  1  0  0  0  0
 18 17  1  0  0  0  0
 18 21  1  0  0  0  0
 19 18  1  0  0  0  0
 20 19  1  0  0  0  0
 21 22  1  0  0  0  0
 22 23  2  0  0  0  0
 24 23  1  0  0  0  0
 25 24  2  0  0  0  0
 26 21  2  0  0  0  0
 26 25  1  0  0  0  0
M  END
>  <Pose>
1

>  <Score>
-8.692

$$$$
