MODEL 1
REMARK VINA RESULT:    -9.507      0.000      0.000
REMARK INTER + INTRA:         -10.507
REMARK INTER:                 -10.897
REMARK INTRA:                   0.390
REMARK UNBOUND:                 0.390
REMARK  3 active torsions:
REMARK  status: ('A' for Active; 'I' for Inactive)
REMARK    1  A    between atoms: C_7  and  C_8 
REMARK    2  A    between atoms: C_8  and  C_9 
REMARK       I    between atoms: C_9  and  N_11 
REMARK    3  A    between atoms: C_19  and  O_20 
ROOT
ATOM      1  C   UNK d   1     -20.638  -1.470 -31.000  0.00  0.00     0.224 C 
ATOM      2  O   UNK d   1     -21.113  -0.308 -31.250  0.00  0.00    -0.273 OA
ATOM      3  N   UNK d   1     -20.081  -1.793 -29.735  0.00  0.00    -0.346 N 
ATOM      4  C   UNK d   1     -19.573  -3.101 -29.513  0.00  0.00     0.131 C 
ATOM      5  C   UNK d   1     -20.141  -3.612 -28.183  0.00  0.00     0.065 C 
ATOM      6  C   UNK d   1     -19.543  -2.653 -27.176  0.00  0.00     0.022 A 
ATOM      7  C   UNK d   1     -19.498  -1.306 -27.470  0.00  0.00     0.064 A 
ATOM      8  N   UNK d   1     -18.943  -0.461 -26.555  0.00  0.00    -0.244 NA
ATOM      9  C   UNK d   1     -18.442  -0.887 -25.384  0.00  0.00     0.236 A 
ATOM     10  N   UNK d   1     -18.494  -2.203 -25.115  0.00  0.00    -0.217 NA
ATOM     11  C   UNK d   1     -19.038  -3.100 -25.990  0.00  0.00     0.171 A 
ATOM     12  C   UNK d   1     -20.045  -0.779 -28.736  0.00  0.00     0.185 C 
ENDROOT
BRANCH   1  13
ATOM     13  C   UNK d   1     -20.693  -2.484 -32.102  0.00  0.00     0.143 C 
BRANCH  13  14
ATOM     14  C   UNK d   1     -21.024  -1.820 -33.400  0.00  0.00    -0.025 A 
ATOM     15  C   UNK d   1     -20.178  -0.913 -34.007  0.00  0.00     0.043 A 
ATOM     16 Cl   UNK d   1     -18.676  -0.543 -33.204  0.00  0.00    -0.084 Cl
ATOM     17  C   UNK d   1     -20.520  -0.322 -35.213  0.00  0.00     0.064 A 
ATOM     18  C   UNK d   1     -21.708  -0.604 -35.863  0.00  0.00     0.103 A 
ATOM     19  C   UNK d   1     -22.565  -1.510 -35.268  0.00  0.00     0.102 A 
ATOM     20  O   UNK d   1     -22.093  -0.047 -37.057  0.00  0.00    -0.346 OA
ATOM     21  C   UNK d   1     -22.207  -2.090 -34.065  0.00  0.00     0.049 A 
ATOM     22  O   UNK d   1     -23.749  -1.791 -35.917  0.00  0.00    -0.346 OA
ATOM     23  C   UNK d   1     -24.001  -1.544 -37.285  0.00  0.00     0.202 C 
ATOM     24  C   UNK d   1     -23.054  -0.589 -37.922  0.00  0.00     0.202 C 
ENDBRANCH  13  14
ENDBRANCH   1  13
BRANCH  11  25
ATOM     25  O   UNK d   1     -19.092  -4.454 -25.715  0.00  0.00    -0.344 OA
ATOM     26  H   UNK d   1     -19.014  -4.747 -24.748  0.00  0.00     0.219 HD
ENDBRANCH  11  25
TORSDOF 3
ENDMDL
