/Users/jonathanwahrer/Desktop/Msc/3_Semester/Drug_Design_Praktikum/waehrer_HTS_screening/HTS_experiment/out/docking_results/vina_output/5l4q/1976_docked.pdbqt
 OpenBabel03212219123D

 26 29  0  0  0  0  0  0  0  0999 V2000
  -20.6380   -1.4700  -31.0000 C   0  0  0  0  0  0  0  0  0  0  0  0
  -21.1130   -0.3080  -31.2500 O   0  0  0  0  0  0  0  0  0  0  0  0
  -20.0810   -1.7930  -29.7350 N   0  0  0  0  0  0  0  0  0  0  0  0
  -19.5730   -3.1010  -29.5130 C   0  0  0  0  0  2  0  0  0  0  0  0
  -20.1410   -3.6120  -28.1830 C   0  0  0  0  0  2  0  0  0  0  0  0
  -19.5430   -2.6530  -27.1760 C   0  0  0  0  0  0  0  0  0  0  0  0
  -19.4980   -1.3060  -27.4700 C   0  0  0  0  0  0  0  0  0  0  0  0
  -18.9430   -0.4610  -26.5550 N   0  0  0  0  0  0  0  0  0  0  0  0
  -18.4420   -0.8870  -25.3840 C   0  0  0  0  0  3  0  0  0  0  0  0
  -18.4940   -2.2030  -25.1150 N   0  0  0  0  0  0  0  0  0  0  0  0
  -19.0380   -3.1000  -25.9900 C   0  0  0  0  0  0  0  0  0  0  0  0
  -20.0450   -0.7790  -28.7360 C   0  0  0  0  0  2  0  0  0  0  0  0
  -20.6930   -2.4840  -32.1020 C   0  0  0  0  0  2  0  0  0  0  0  0
  -21.0240   -1.8200  -33.4000 C   0  0  0  0  0  0  0  0  0  0  0  0
  -20.1780   -0.9130  -34.0070 C   0  0  0  0  0  0  0  0  0  0  0  0
  -18.6760   -0.5430  -33.2040 Cl  0  0  0  0  0  0  0  0  0  0  0  0
  -20.5200   -0.3220  -35.2130 C   0  0  0  0  0  3  0  0  0  0  0  0
  -21.7080   -0.6040  -35.8630 C   0  0  0  0  0  0  0  0  0  0  0  0
  -22.5650   -1.5100  -35.2680 C   0  0  0  0  0  0  0  0  0  0  0  0
  -22.0930   -0.0470  -37.0570 O   0  0  0  0  0  0  0  0  0  0  0  0
  -22.2070   -2.0900  -34.0650 C   0  0  0  0  0  3  0  0  0  0  0  0
  -23.7490   -1.7910  -35.9170 O   0  0  0  0  0  0  0  0  0  0  0  0
  -24.0010   -1.5440  -37.2850 C   0  0  0  0  0  2  0  0  0  0  0  0
  -23.0540   -0.5890  -37.9220 C   0  0  0  0  0  2  0  0  0  0  0  0
  -19.0920   -4.4540  -25.7150 O   0  0  0  0  0  0  0  0  0  0  0  0
  -19.0140   -4.7470  -24.7480 H   0  0  0  0  0  0  0  0  0  0  0  0
  1  3  1  0  0  0  0
  2  1  2  0  0  0  0
  3  4  1  0  0  0  0
  3 12  1  0  0  0  0
  4  5  1  0  0  0  0
  5  6  1  0  0  0  0
  6 11  1  0  0  0  0
  7  6  2  0  0  0  0
  7  8  1  0  0  0  0
  8  9  2  0  0  0  0
  9 10  1  0  0  0  0
 11 25  1  0  0  0  0
 11 10  2  0  0  0  0
 12  7  1  0  0  0  0
 13  1  1  0  0  0  0
 14 13  1  0  0  0  0
 15 14  1  0  0  0  0
 15 16  1  0  0  0  0
 17 15  2  0  0  0  0
 18 19  2  0  0  0  0
 18 17  1  0  0  0  0
 19 21  1  0  0  0  0
 20 18  1  0  0  0  0
 21 14  2  0  0  0  0
 22 19  1  0  0  0  0
 23 22  1  0  0  0  0
 24 23  1  0  0  0  0
 24 20  1  0  0  0  0
 25 26  1  0  0  0  0
M  END
>  <Pose>
1

>  <Score>
-9.507

$$$$
