MODEL 1
REMARK VINA RESULT:    -6.991      0.000      0.000
REMARK INTER + INTRA:          -7.141
REMARK INTER:                  -7.399
REMARK INTRA:                   0.259
REMARK UNBOUND:                 0.259
REMARK  1 active torsions:
REMARK  status: ('A' for Active; 'I' for Inactive)
REMARK    1  A    between atoms: C_11  and  C_12 
ROOT
ATOM      1 Cl   UNK d   1     -19.010   0.487 -28.271  0.00  0.00    -0.084 Cl
ATOM      2  C   UNK d   1     -18.361   1.122 -26.769  0.00  0.00     0.034 A 
ATOM      3  C   UNK d   1     -17.709   2.338 -26.734  0.00  0.00     0.034 A 
ATOM      4  C   UNK d   1     -17.190   2.845 -25.536  0.00  0.00    -0.009 A 
ATOM      5  C   UNK d   1     -17.364   2.076 -24.415  0.00  0.00     0.085 A 
ATOM      6  C   UNK d   1     -18.027   0.841 -24.454  0.00  0.00     0.039 A 
ATOM      7  C   UNK d   1     -18.534   0.351 -25.638  0.00  0.00     0.026 A 
ATOM      8  O   UNK d   1     -16.859   2.558 -23.211  0.00  0.00    -0.292 OA
ATOM      9  C   UNK d   1     -16.194   3.767 -23.096  0.00  0.00     0.166 A 
ATOM     10  C   UNK d   1     -16.018   4.543 -24.231  0.00  0.00     0.075 A 
ATOM     11  C   UNK d   1     -16.501   4.150 -25.559  0.00  0.00     0.107 A 
ATOM     12  C   UNK d   1     -15.351   5.740 -24.065  0.00  0.00     0.262 A 
ATOM     13  O   UNK d   1     -15.160   6.495 -25.071  0.00  0.00    -0.267 OA
ATOM     14  N   UNK d   1     -14.872   6.185 -22.893  0.00  0.00    -0.270 N 
ATOM     15  C   UNK d   1     -15.067   5.392 -21.811  0.00  0.00     0.332 A 
ATOM     16  O   UNK d   1     -14.609   5.828 -20.720  0.00  0.00    -0.246 OA
ATOM     17  N   UNK d   1     -15.712   4.217 -21.925  0.00  0.00    -0.283 N 
ATOM     18  C   UNK d   1     -15.880   3.426 -20.722  0.00  0.00     0.163 C 
ATOM     19  C   UNK d   1     -14.173   7.465 -22.772  0.00  0.00     0.164 C 
ENDROOT
BRANCH  11  20
ATOM     20  C   UNK d   1     -17.451   5.192 -26.069  0.00  0.00     0.078 A 
ATOM     21  C   UNK d   1     -17.253   5.791 -27.293  0.00  0.00     0.197 A 
ATOM     22  N   UNK d   1     -18.122   6.737 -27.743  0.00  0.00    -0.281 N 
ATOM     23  O   UNK d   1     -16.177   5.426 -28.053  0.00  0.00    -0.171 OA
ATOM     24  C   UNK d   1     -19.192   7.101 -26.993  0.00  0.00     0.332 A 
ATOM     25  C   UNK d   1     -17.859   7.332 -29.050  0.00  0.00     0.163 C 
ATOM     26  O   UNK d   1     -19.977   7.983 -27.442  0.00  0.00    -0.246 OA
ATOM     27  N   UNK d   1     -19.411   6.535 -25.795  0.00  0.00    -0.270 N 
ATOM     28  C   UNK d   1     -18.554   5.599 -25.345  0.00  0.00     0.262 A 
ATOM     29  C   UNK d   1     -20.570   6.952 -25.013  0.00  0.00     0.164 C 
ATOM     30  O   UNK d   1     -18.770   5.086 -24.237  0.00  0.00    -0.267 OA
ENDBRANCH  11  20
TORSDOF 1
ENDMDL
