MODEL 1
REMARK VINA RESULT:    -9.045      0.000      0.000
REMARK INTER + INTRA:         -11.475
REMARK INTER:                 -10.631
REMARK INTRA:                  -0.844
REMARK UNBOUND:                -0.844
REMARK  3 active torsions:
REMARK  status: ('A' for Active; 'I' for Inactive)
REMARK       I    between atoms: N_11  and  C_13 
REMARK    1  A    between atoms: C_13  and  C_15 
REMARK    2  A    between atoms: C_15  and  N_16 
REMARK    3  A    between atoms: C_19  and  C_22 
REMARK       I    between atoms: C_22  and  N_24 
ROOT
ATOM      1 Cl   UNK d   1     -20.138  -1.667 -29.045  0.00  0.00    -0.084 Cl
ATOM      2  C   UNK d   1     -19.910  -1.060 -30.667  0.00  0.00     0.034 A 
ATOM      3  C   UNK d   1     -20.957  -0.509 -31.371  0.00  0.00     0.035 A 
ATOM      4  C   UNK d   1     -20.760  -0.039 -32.643  0.00  0.00    -0.005 A 
ATOM      5  C   UNK d   1     -19.488  -0.121 -33.222  0.00  0.00     0.078 A 
ATOM      6  C   UNK d   1     -18.429  -0.674 -32.521  0.00  0.00     0.039 A 
ATOM      7  C   UNK d   1     -18.666  -1.133 -31.255  0.00  0.00     0.026 A 
ATOM      8  O   UNK d   1     -19.127   0.307 -34.491  0.00  0.00    -0.338 OA
ATOM      9  C   UNK d   1     -19.759   1.282 -35.285  0.00  0.00     0.088 C 
ATOM     10  C   UNK d   1     -21.138   0.879 -35.694  0.00  0.00     0.164 C 
ATOM     11  N   UNK d   1     -21.914   0.231 -34.681  0.00  0.00    -0.344 N 
ATOM     12  C   UNK d   1     -21.981   0.526 -33.273  0.00  0.00     0.167 C 
ATOM     13  C   UNK d   1     -22.751  -0.867 -35.079  0.00  0.00     0.248 C 
ATOM     14  O   UNK d   1     -23.428  -1.420 -34.177  0.00  0.00    -0.271 OA
ATOM     15  C   UNK d   1     -19.730   2.621 -34.564  0.00  0.00     0.066 C 
ATOM     16  C   UNK d   1     -18.489   3.403 -34.958  0.00  0.00     0.170 C 
ATOM     17  O   UNK d   1     -18.507   3.789 -36.284  0.00  0.00    -0.391 OA
ATOM     18  C   UNK d   1     -19.251   2.899 -37.050  0.00  0.00     0.170 C 
ATOM     19  C   UNK d   1     -18.957   1.490 -36.572  0.00  0.00     0.066 C 
ENDROOT
BRANCH  13  20
ATOM     20  C   UNK d   1     -22.814  -1.322 -36.467  0.00  0.00     0.374 C 
BRANCH  20  21
ATOM     21  N   UNK d   1     -24.072  -1.281 -37.118  0.00  0.00     0.097 N 
ATOM     22  C   UNK d   1     -24.242  -2.401 -38.048  0.00  0.00     0.273 C 
ATOM     23  C   UNK d   1     -23.184  -2.311 -39.083  0.00  0.00     0.044 C 
ATOM     24  C   UNK d   1     -22.965  -0.969 -39.698  0.00  0.00     0.081 C 
ATOM     25  C   UNK d   1     -23.588   0.192 -39.030  0.00  0.00     0.044 C 
ATOM     26  C   UNK d   1     -24.393  -0.058 -37.812  0.00  0.00     0.273 C 
BRANCH  24  27
ATOM     27  C   UNK d   1     -21.527  -0.720 -39.964  0.00  0.00     0.219 C 
ATOM     28  O   UNK d   1     -20.855  -0.073 -39.136  0.00  0.00    -0.273 OA
ATOM     29  N   UNK d   1     -20.931  -1.211 -41.146  0.00  0.00    -0.370 N 
ATOM     30  H   UNK d   1     -20.293  -2.051 -41.024  0.00  0.00     0.159 HD
ATOM     31  H   UNK d   1     -21.057  -0.838 -42.095  0.00  0.00     0.159 HD
ENDBRANCH  24  27
ENDBRANCH  20  21
ENDBRANCH  13  20
TORSDOF 3
ENDMDL
