MODEL 1
REMARK VINA RESULT:    -9.205      0.000      0.000
REMARK INTER + INTRA:         -10.287
REMARK INTER:                 -10.820
REMARK INTRA:                   0.532
REMARK UNBOUND:                 0.532
REMARK  3 active torsions:
REMARK  status: ('A' for Active; 'I' for Inactive)
REMARK    1  A    between atoms: S_1  and  N_4 
REMARK    2  A    between atoms: S_1  and  C_16 
REMARK       I    between atoms: N_7  and  C_10 
REMARK    3  A    between atoms: C_10  and  C_12 
ROOT
ATOM      1  S   UNK d   1     -19.870  -0.658 -32.345  0.00  0.00     0.262 S 
ATOM      2  O   UNK d   1     -19.477   0.784 -32.061  0.00  0.00    -0.200 OA
ATOM      3  O   UNK d   1     -18.672  -1.222 -33.107  0.00  0.00    -0.200 OA
ENDROOT
BRANCH   1   4
ATOM      4  N   UNK d   1     -21.229  -0.745 -33.318  0.00  0.00    -0.304 N 
ATOM      5  C   UNK d   1     -21.422  -1.897 -34.084  0.00  0.00     0.155 C 
ATOM      6  C   UNK d   1     -22.822  -1.968 -34.712  0.00  0.00     0.146 C 
ATOM      7  N   UNK d   1     -23.267  -0.680 -35.154  0.00  0.00    -0.349 N 
ATOM      8  C   UNK d   1     -23.064   0.449 -34.272  0.00  0.00     0.146 C 
ATOM      9  C   UNK d   1     -23.879  -0.530 -36.404  0.00  0.00     0.224 C 
ATOM     10  C   UNK d   1     -21.580   0.496 -33.966  0.00  0.00     0.155 C 
ATOM     11  O   UNK d   1     -24.044  -1.526 -37.153  0.00  0.00    -0.273 OA
BRANCH   9  12
ATOM     12  C   UNK d   1     -24.360   0.795 -36.908  0.00  0.00     0.078 C 
ATOM     13  C   UNK d   1     -25.173   0.701 -38.177  0.00  0.00     0.014 C 
ATOM     14  C   UNK d   1     -23.868   0.884 -38.948  0.00  0.00     0.002 C 
ATOM     15  C   UNK d   1     -23.289   1.522 -37.681  0.00  0.00     0.014 C 
ENDBRANCH   9  12
ENDBRANCH   1   4
BRANCH   1  16
ATOM     16  C   UNK d   1     -19.939  -1.514 -30.820  0.00  0.00     0.104 A 
ATOM     17  C   UNK d   1     -19.562  -0.833 -29.645  0.00  0.00     0.066 A 
ATOM     18  C   UNK d   1     -19.539  -1.469 -28.424  0.00  0.00     0.098 A 
ATOM     19  C   UNK d   1     -19.877  -2.795 -28.274  0.00  0.00     0.070 A 
ATOM     20  O   UNK d   1     -19.163  -0.772 -27.276  0.00  0.00    -0.335 OA
ATOM     21  C   UNK d   1     -20.246  -3.461 -29.416  0.00  0.00     0.058 A 
ATOM     22  N   UNK d   1     -19.829  -3.390 -26.991  0.00  0.00    -0.323 N 
ATOM     23  C   UNK d   1     -20.278  -2.832 -30.668  0.00  0.00     0.059 A 
ATOM     24 Cl   UNK d   1     -20.833  -3.730 -32.061  0.00  0.00    -0.083 Cl
ATOM     25  C   UNK d   1     -19.440  -2.666 -25.830  0.00  0.00     0.251 C 
ATOM     26  H   UNK d   1     -20.087  -4.398 -26.882  0.00  0.00     0.169 HD
ATOM     27  O   UNK d   1     -19.620  -3.046 -24.657  0.00  0.00    -0.270 OA
ATOM     28  C   UNK d   1     -18.768  -1.361 -26.068  0.00  0.00     0.217 C 
ATOM     29  C   UNK d   1     -17.266  -1.528 -26.090  0.00  0.00     0.050 C 
ENDBRANCH   1  16
TORSDOF 3
ENDMDL
