/Users/jonathanwahrer/Desktop/Msc/3_Semester/Drug_Design_Praktikum/waehrer_HTS_screening/HTS_experiment/out/docking_results/vina_output/5l4q/2004_docked.pdbqt
 OpenBabel03212219133D

 29 32  0  0  1  0  0  0  0  0999 V2000
  -19.8700   -0.6580  -32.3450 S   0  0  0  0  0  0  0  0  0  0  0  0
  -19.4770    0.7840  -32.0610 O   0  0  0  0  0  0  0  0  0  0  0  0
  -18.6720   -1.2220  -33.1070 O   0  0  0  0  0  0  0  0  0  0  0  0
  -21.2290   -0.7450  -33.3180 N   0  0  0  0  0  0  0  0  0  0  0  0
  -21.4220   -1.8970  -34.0840 C   0  0  0  0  0  2  0  0  0  0  0  0
  -22.8220   -1.9680  -34.7120 C   0  0  0  0  0  2  0  0  0  0  0  0
  -23.2670   -0.6800  -35.1540 N   0  0  0  0  0  0  0  0  0  0  0  0
  -23.0640    0.4490  -34.2720 C   0  0  0  0  0  2  0  0  0  0  0  0
  -23.8790   -0.5300  -36.4040 C   0  0  0  0  0  0  0  0  0  0  0  0
  -21.5800    0.4960  -33.9660 C   0  0  0  0  0  2  0  0  0  0  0  0
  -24.0440   -1.5260  -37.1530 O   0  0  0  0  0  0  0  0  0  0  0  0
  -24.3600    0.7950  -36.9080 C   0  0  0  0  0  3  0  0  0  0  0  0
  -25.1730    0.7010  -38.1770 C   0  0  0  0  0  2  0  0  0  0  0  0
  -23.8680    0.8840  -38.9480 C   0  0  0  0  0  2  0  0  0  0  0  0
  -23.2890    1.5220  -37.6810 C   0  0  0  0  0  2  0  0  0  0  0  0
  -19.9390   -1.5140  -30.8200 C   0  0  0  0  0  0  0  0  0  0  0  0
  -19.5620   -0.8330  -29.6450 C   0  0  0  0  0  3  0  0  0  0  0  0
  -19.5390   -1.4690  -28.4240 C   0  0  0  0  0  0  0  0  0  0  0  0
  -19.8770   -2.7950  -28.2740 C   0  0  0  0  0  0  0  0  0  0  0  0
  -19.1630   -0.7720  -27.2760 O   0  0  0  0  0  0  0  0  0  0  0  0
  -20.2460   -3.4610  -29.4160 C   0  0  0  0  0  3  0  0  0  0  0  0
  -19.8290   -3.3900  -26.9910 N   0  0  0  0  0  0  0  0  0  0  0  0
  -20.2780   -2.8320  -30.6680 C   0  0  0  0  0  0  0  0  0  0  0  0
  -20.8330   -3.7300  -32.0610 Cl  0  0  0  0  0  0  0  0  0  0  0  0
  -19.4400   -2.6660  -25.8300 C   0  0  0  0  0  0  0  0  0  0  0  0
  -20.0870   -4.3980  -26.8820 H   0  0  0  0  0  0  0  0  0  0  0  0
  -19.6200   -3.0460  -24.6570 O   0  0  0  0  0  0  0  0  0  0  0  0
  -18.7680   -1.3610  -26.0680 C   0  0  1  0  0  3  0  0  0  0  0  0
  -17.2660   -1.5280  -26.0900 C   0  0  0  0  0  1  0  0  0  0  0  0
  1  2  2  0  0  0  0
  1 16  1  0  0  0  0
  3  1  2  0  0  0  0
  4  1  1  0  0  0  0
  5  4  1  0  0  0  0
  6  5  1  0  0  0  0
  7  6  1  0  0  0  0
  7  8  1  0  0  0  0
  8 10  1  0  0  0  0
  9  7  1  0  0  0  0
 10  4  1  0  0  0  0
 11  9  2  0  0  0  0
 12  9  1  0  0  0  0
 13 12  1  0  0  0  0
 14 13  1  0  0  0  0
 14 15  1  0  0  0  0
 15 12  1  0  0  0  0
 16 23  2  0  0  0  0
 16 17  1  0  0  0  0
 17 18  2  0  0  0  0
 18 19  1  0  0  0  0
 18 20  1  0  0  0  0
 19 22  1  0  0  0  0
 20 28  1  0  0  0  0
 21 19  2  0  0  0  0
 22 26  1  0  0  0  0
 22 25  1  0  0  0  0
 23 21  1  0  0  0  0
 24 23  1  0  0  0  0
 25 27  2  0  0  0  0
 28 29  1  6  0  0  0
 28 25  1  0  0  0  0
M  END
>  <Pose>
1

>  <Score>
-9.205

$$$$
