MODEL 1
REMARK VINA RESULT:    -9.064      0.000      0.000
REMARK INTER + INTRA:         -10.261
REMARK INTER:                 -10.124
REMARK INTRA:                  -0.137
REMARK UNBOUND:                -0.137
REMARK  2 active torsions:
REMARK  status: ('A' for Active; 'I' for Inactive)
REMARK    1  A    between atoms: C_4  and  N_8 
REMARK    2  A    between atoms: C_14  and  C_18 
ROOT
ATOM      1  N   UNK d   1     -20.966  -2.389 -32.045  0.00  0.00    -0.246 N 
ATOM      2  C   UNK d   1     -20.977  -3.770 -31.701  0.00  0.00     0.268 C 
ATOM      3  O   UNK d   1     -20.781  -4.696 -32.507  0.00  0.00    -0.269 OA
ATOM      4  C   UNK d   1     -21.254  -3.910 -30.262  0.00  0.00     0.285 C 
ATOM      5  O   UNK d   1     -20.631  -4.908 -29.584  0.00  0.00    -0.260 OA
ATOM      6  N   UNK d   1     -20.398  -4.332 -28.348  0.00  0.00    -0.264 N 
ATOM      7  C   UNK d   1     -20.034  -2.966 -28.558  0.00  0.00     0.083 C 
ATOM      8  C   UNK d   1     -20.554  -2.687 -29.748  0.00  0.00     0.080 C 
ATOM      9  C   UNK d   1     -20.698  -1.692 -30.800  0.00  0.00     0.266 C 
ATOM     10  O   UNK d   1     -20.599  -0.454 -30.607  0.00  0.00    -0.267 OA
ATOM     11  H   UNK d   1     -20.493  -4.837 -27.452  0.00  0.00     0.194 HD
ENDROOT
BRANCH   1  12
ATOM     12  C   UNK d   1     -21.148  -1.733 -33.293  0.00  0.00     0.047 A 
ATOM     13  C   UNK d   1     -22.281  -1.903 -34.054  0.00  0.00     0.054 A 
ATOM     14  C   UNK d   1     -22.372  -1.217 -35.261  0.00  0.00     0.036 A 
ATOM     15 Cl   UNK d   1     -23.796  -1.397 -36.283  0.00  0.00    -0.084 Cl
ATOM     16  C   UNK d   1     -21.347  -0.393 -35.675  0.00  0.00     0.024 A 
ATOM     17  C   UNK d   1     -20.207  -0.220 -34.907  0.00  0.00     0.004 A 
ATOM     18  C   UNK d   1     -20.111  -0.889 -33.723  0.00  0.00     0.030 A 
ENDBRANCH   1  12
BRANCH   7  19
ATOM     19  C   UNK d   1     -19.319  -2.071 -27.670  0.00  0.00     0.036 A 
ATOM     20  C   UNK d   1     -18.658  -0.935 -28.147  0.00  0.00     0.127 A 
ATOM     21  N   UNK d   1     -18.070  -0.294 -27.126  0.00  0.00    -0.284 N 
ATOM     22  N   UNK d   1     -18.328  -0.977 -26.009  0.00  0.00    -0.177 NA
ATOM     23  C   UNK d   1     -17.274   0.928 -27.143  0.00  0.00     0.179 C 
ATOM     24  C   UNK d   1     -19.083  -2.054 -26.326  0.00  0.00     0.065 A 
ATOM     25  C   UNK d   1     -19.569  -3.079 -25.367  0.00  0.00     0.073 C 
ENDBRANCH   7  19
TORSDOF 2
ENDMDL
