MODEL 1
REMARK VINA RESULT:    -7.750      0.000      0.000
REMARK INTER + INTRA:          -9.180
REMARK INTER:                  -8.656
REMARK INTRA:                  -0.524
REMARK UNBOUND:                -0.524
REMARK  2 active torsions:
REMARK  status: ('A' for Active; 'I' for Inactive)
REMARK    1  A    between atoms: C_4  and  C_10 
REMARK    2  A    between atoms: C_5  and  O_8 
ROOT
ATOM      1  C   UNK d   1     -21.458  -1.101 -33.910  0.00  0.00     0.188 A 
ATOM      2  N   UNK d   1     -21.237  -1.861 -32.841  0.00  0.00    -0.107 N 
ATOM      3  C   UNK d   1     -21.707  -3.123 -33.062  0.00  0.00     0.735 A 
ATOM      4  N   UNK d   1     -22.217  -3.096 -34.315  0.00  0.00     0.045 NA
ATOM      5  N   UNK d   1     -22.077  -1.905 -34.830  0.00  0.00    -0.114 NA
ATOM      6  N   UNK d   1     -21.489  -3.903 -31.992  0.00  0.00    -0.174 N 
ATOM      7  C   UNK d   1     -20.880  -3.187 -31.054  0.00  0.00     0.165 A 
ATOM      8  C   UNK d   1     -20.718  -1.898 -31.588  0.00  0.00     0.170 A 
ATOM      9  N   UNK d   1     -20.113  -0.953 -30.857  0.00  0.00    -0.286 N 
ATOM     10  C   UNK d   1     -19.679  -1.288 -29.612  0.00  0.00     0.332 A 
ATOM     11  O   UNK d   1     -19.111  -0.371 -28.941  0.00  0.00    -0.246 OA
ATOM     12  N   UNK d   1     -19.810  -2.491 -29.061  0.00  0.00    -0.269 N 
ATOM     13  C   UNK d   1     -20.409  -3.437 -29.786  0.00  0.00     0.282 A 
ATOM     14  O   UNK d   1     -20.559  -4.593 -29.313  0.00  0.00    -0.265 OA
ATOM     15  C   UNK d   1     -19.312  -2.772 -27.703  0.00  0.00     0.164 C 
ATOM     16  C   UNK d   1     -19.881   0.373 -31.353  0.00  0.00     0.163 C 
ATOM     17  C   UNK d   1     -21.850  -5.300 -31.855  0.00  0.00     0.176 C 
ENDROOT
BRANCH   1  18
ATOM     18  C   UNK d   1     -21.163   0.293 -34.221  0.00  0.00     0.047 A 
ATOM     19  C   UNK d   1     -19.996   0.639 -34.897  0.00  0.00     0.037 A 
ATOM     20  C   UNK d   1     -19.768   1.941 -35.249  0.00  0.00     0.012 A 
ATOM     21 Br   UNK d   1     -18.165   2.435 -36.180  0.00  0.00    -0.051 Br
ATOM     22  C   UNK d   1     -20.653   2.967 -34.967  0.00  0.00     0.022 A 
ATOM     23  C   UNK d   1     -21.809   2.610 -34.295  0.00  0.00     0.039 A 
ATOM     24  C   UNK d   1     -22.046   1.315 -33.939  0.00  0.00     0.082 A 
BRANCH  24  25
ATOM     25  O   UNK d   1     -23.222   0.937 -33.254  0.00  0.00    -0.355 OA
ATOM     26  C   UNK d   1     -24.429   0.707 -33.956  0.00  0.00     0.210 C 
ENDBRANCH  24  25
ENDBRANCH   1  18
TORSDOF 2
ENDMDL
