/Users/jonathanwahrer/Desktop/Msc/3_Semester/Drug_Design_Praktikum/waehrer_HTS_screening/HTS_experiment/out/docking_results/vina_output/5l4q/2014_docked.pdbqt
 OpenBabel03212219133D

 26 29  0  0  0  0  0  0  0  0999 V2000
  -21.4580   -1.1010  -33.9100 C   0  0  0  0  0  0  0  0  0  0  0  0
  -21.2370   -1.8610  -32.8410 N   0  0  0  0  0  0  0  0  0  0  0  0
  -21.7070   -3.1230  -33.0620 C   0  0  0  0  0  0  0  0  0  0  0  0
  -22.2170   -3.0960  -34.3150 N   0  0  0  0  0  0  0  0  0  0  0  0
  -22.0770   -1.9050  -34.8300 N   0  0  0  0  0  0  0  0  0  0  0  0
  -21.4890   -3.9030  -31.9920 N   0  0  0  0  0  0  0  0  0  0  0  0
  -20.8800   -3.1870  -31.0540 C   0  0  0  0  0  0  0  0  0  0  0  0
  -20.7180   -1.8980  -31.5880 C   0  0  0  0  0  0  0  0  0  0  0  0
  -20.1130   -0.9530  -30.8570 N   0  0  0  0  0  0  0  0  0  0  0  0
  -19.6790   -1.2880  -29.6120 C   0  0  0  0  0  0  0  0  0  0  0  0
  -19.1110   -0.3710  -28.9410 O   0  0  0  0  0  0  0  0  0  0  0  0
  -19.8100   -2.4910  -29.0610 N   0  0  0  0  0  0  0  0  0  0  0  0
  -20.4090   -3.4370  -29.7860 C   0  0  0  0  0  0  0  0  0  0  0  0
  -20.5590   -4.5930  -29.3130 O   0  0  0  0  0  0  0  0  0  0  0  0
  -19.3120   -2.7720  -27.7030 C   0  0  0  0  0  1  0  0  0  0  0  0
  -19.8810    0.3730  -31.3530 C   0  0  0  0  0  1  0  0  0  0  0  0
  -21.8500   -5.3000  -31.8550 C   0  0  0  0  0  1  0  0  0  0  0  0
  -21.1630    0.2930  -34.2210 C   0  0  0  0  0  0  0  0  0  0  0  0
  -19.9960    0.6390  -34.8970 C   0  0  0  0  0  3  0  0  0  0  0  0
  -19.7680    1.9410  -35.2490 C   0  0  0  0  0  0  0  0  0  0  0  0
  -18.1650    2.4350  -36.1800 Br  0  0  0  0  0  0  0  0  0  0  0  0
  -20.6530    2.9670  -34.9670 C   0  0  0  0  0  3  0  0  0  0  0  0
  -21.8090    2.6100  -34.2950 C   0  0  0  0  0  3  0  0  0  0  0  0
  -22.0460    1.3150  -33.9390 C   0  0  0  0  0  0  0  0  0  0  0  0
  -23.2220    0.9370  -33.2540 O   0  0  0  0  0  0  0  0  0  0  0  0
  -24.4290    0.7070  -33.9560 C   0  0  0  0  0  1  0  0  0  0  0  0
  1  2  1  0  0  0  0
  2  8  1  0  0  0  0
  3  2  1  0  0  0  0
  3  6  1  0  0  0  0
  4  3  2  0  0  0  0
  5  4  1  0  0  0  0
  5  1  2  0  0  0  0
  6 17  1  0  0  0  0
  6  7  1  0  0  0  0
  7 13  1  0  0  0  0
  8  7  2  0  0  0  0
  8  9  1  0  0  0  0
  9 10  1  0  0  0  0
 10 12  1  0  0  0  0
 10 11  2  0  0  0  0
 12 15  1  0  0  0  0
 13 14  2  0  0  0  0
 13 12  1  0  0  0  0
 16  9  1  0  0  0  0
 18 24  1  0  0  0  0
 18  1  1  0  0  0  0
 19 18  2  0  0  0  0
 20 22  2  0  0  0  0
 20 19  1  0  0  0  0
 21 20  1  0  0  0  0
 22 23  1  0  0  0  0
 23 24  2  0  0  0  0
 24 25  1  0  0  0  0
 26 25  1  0  0  0  0
M  END
>  <Pose>
1

>  <Score>
-7.750

$$$$
