MODEL 1
REMARK VINA RESULT:    -8.537      0.000      0.000
REMARK INTER + INTRA:          -9.891
REMARK INTER:                  -9.535
REMARK INTRA:                  -0.356
REMARK UNBOUND:                -0.356
REMARK  2 active torsions:
REMARK  status: ('A' for Active; 'I' for Inactive)
REMARK    1  A    between atoms: C_7  and  C_11 
REMARK    2  A    between atoms: C_11  and  N_12 
ROOT
ATOM      1 Cl   UNK d   1     -19.610  -2.653 -25.801  0.00  0.00    -0.083 Cl
ATOM      2  C   UNK d   1     -19.881  -2.652 -27.536  0.00  0.00     0.050 A 
ATOM      3  C   UNK d   1     -19.656  -1.536 -28.319  0.00  0.00     0.125 A 
ATOM      4  N   UNK d   1     -19.870  -1.546 -29.660  0.00  0.00    -0.272 N 
ATOM      5  C   UNK d   1     -20.311  -2.634 -30.314  0.00  0.00     0.137 A 
ATOM      6  N   UNK d   1     -20.526  -2.654 -31.642  0.00  0.00    -0.233 NA
ATOM      7  C   UNK d   1     -20.311  -1.572 -32.412  0.00  0.00     0.059 A 
ATOM      8  C   UNK d   1     -19.851  -0.437 -31.742  0.00  0.00     0.103 A 
ATOM      9  C   UNK d   1     -19.635  -0.429 -30.381  0.00  0.00     0.255 A 
ATOM     10  O   UNK d   1     -19.217   0.610 -29.775  0.00  0.00    -0.268 OA
ATOM     11  C   UNK d   1     -20.545  -3.771 -29.550  0.00  0.00     0.053 A 
ATOM     12  C   UNK d   1     -20.334  -3.781 -28.186  0.00  0.00     0.029 A 
ENDROOT
BRANCH   7  13
ATOM     13  C   UNK d   1     -20.533  -1.545 -33.881  0.00  0.00     0.177 C 
BRANCH  13  14
ATOM     14  N   UNK d   1     -21.747  -0.872 -34.158  0.00  0.00    -0.401 N 
ATOM     15  C   UNK d   1     -22.951  -1.607 -34.046  0.00  0.00     0.122 C 
ATOM     16  C   UNK d   1     -24.066  -1.126 -34.961  0.00  0.00     0.061 C 
ATOM     17  C   UNK d   1     -23.463  -1.016 -36.316  0.00  0.00    -0.013 A 
ATOM     18  C   UNK d   1     -22.257  -0.351 -36.384  0.00  0.00     0.061 A 
ATOM     19  C   UNK d   1     -24.090  -1.556 -37.416  0.00  0.00     0.128 A 
ATOM     20  N   UNK d   1     -21.674  -0.227 -37.585  0.00  0.00    -0.236 NA
ATOM     21  C   UNK d   1     -21.699   0.180 -35.116  0.00  0.00     0.177 C 
ATOM     22  C   UNK d   1     -22.267  -0.750 -38.702  0.00  0.00     0.122 A 
ATOM     23  N   UNK d   1     -23.452  -1.397 -38.596  0.00  0.00    -0.245 NA
ATOM     24  C   UNK d   1     -21.630  -0.619 -40.038  0.00  0.00     0.093 C 
ENDBRANCH  13  14
ENDBRANCH   7  13
TORSDOF 2
ENDMDL
