MODEL 1
REMARK VINA RESULT:    -7.082      0.000      0.000
REMARK INTER + INTRA:          -6.388
REMARK INTER:                  -7.910
REMARK INTRA:                   1.522
REMARK UNBOUND:                 1.522
REMARK  2 active torsions:
REMARK  status: ('A' for Active; 'I' for Inactive)
REMARK    1  A    between atoms: C_4  and  C_10 
REMARK    2  A    between atoms: C_5  and  O_8 
ROOT
ATOM      1  C   UNK d   1     -20.655  -0.724 -28.989  0.00  0.00     0.048 C 
ATOM      2  C   UNK d   1     -19.524   0.264 -29.386  0.00  0.00     0.178 C 
ATOM      3  C   UNK d   1     -18.463  -0.785 -29.773  0.00  0.00     0.233 C 
ATOM      4  O   UNK d   1     -17.818  -0.748 -30.805  0.00  0.00    -0.273 OA
ATOM      5  N   UNK d   1     -18.351  -1.796 -28.746  0.00  0.00    -0.334 N 
ATOM      6  C   UNK d   1     -18.885  -1.380 -27.435  0.00  0.00     0.105 C 
ATOM      7  N   UNK d   1     -18.319  -0.036 -27.255  0.00  0.00    -0.334 N 
ATOM      8  C   UNK d   1     -18.879   0.901 -28.197  0.00  0.00     0.233 C 
ATOM      9  O   UNK d   1     -18.836   2.136 -28.049  0.00  0.00    -0.273 OA
ATOM     10  C   UNK d   1     -20.406  -1.148 -27.641  0.00  0.00     0.064 C 
ATOM     11  C   UNK d   1     -18.615  -2.292 -26.321  0.00  0.00     0.063 C 
ATOM     12  H   UNK d   1     -17.958  -2.728 -28.902  0.00  0.00     0.165 HD
ATOM     13  H   UNK d   1     -17.612   0.188 -26.545  0.00  0.00     0.165 HD
ENDROOT
BRANCH   1  14
ATOM     14  C   UNK d   1     -20.692  -1.643 -30.121  0.00  0.00    -0.018 A 
ATOM     15  C   UNK d   1     -20.686  -1.070 -31.399  0.00  0.00     0.029 A 
ATOM     16  C   UNK d   1     -20.808  -1.858 -32.546  0.00  0.00     0.011 A 
ATOM     17 Br   UNK d   1     -20.807  -1.045 -34.265  0.00  0.00    -0.051 Br
ATOM     18  C   UNK d   1     -20.935  -3.208 -32.464  0.00  0.00     0.022 A 
ATOM     19  C   UNK d   1     -20.944  -3.783 -31.224  0.00  0.00     0.038 A 
ATOM     20  C   UNK d   1     -20.823  -3.019 -30.076  0.00  0.00     0.074 A 
BRANCH  20  21
ATOM     21  O   UNK d   1     -20.816  -3.563 -28.823  0.00  0.00    -0.355 OA
ATOM     22  C   UNK d   1     -20.336  -4.866 -28.628  0.00  0.00     0.210 C 
ENDBRANCH  20  21
ENDBRANCH   1  14
TORSDOF 2
ENDMDL
