MODEL 1
REMARK VINA RESULT:    -8.800      0.000      0.000
REMARK INTER + INTRA:         -11.971
REMARK INTER:                 -11.372
REMARK INTRA:                  -0.599
REMARK UNBOUND:                -0.599
REMARK  5 active torsions:
REMARK  status: ('A' for Active; 'I' for Inactive)
REMARK    1  A    between atoms: C_4  and  C_10 
REMARK    2  A    between atoms: C_5  and  O_8 
REMARK    3  A    between atoms: C_18  and  C_19 
REMARK    4  A    between atoms: C_19  and  N_20 
REMARK    5  A    between atoms: N_23  and  C_26 
ROOT
ATOM      1  C   UNK d   1     -18.233   0.037 -25.612  0.00  0.00     0.055 C 
ATOM      2  C   UNK d   1     -18.770  -0.749 -26.488  0.00  0.00     0.128 A 
ATOM      3  O   UNK d   1     -19.283  -0.389 -27.703  0.00  0.00    -0.305 OA
ATOM      4  C   UNK d   1     -19.759  -1.528 -28.351  0.00  0.00     0.101 A 
ATOM      5  C   UNK d   1     -19.589  -2.650 -27.606  0.00  0.00     0.051 A 
ATOM      6  C   UNK d   1     -19.985  -3.904 -28.085  0.00  0.00     0.021 A 
ATOM      7  C   UNK d   1     -20.563  -4.065 -29.317  0.00  0.00     0.041 A 
ATOM      8  C   UNK d   1     -20.723  -2.874 -30.047  0.00  0.00     0.118 A 
ATOM      9  C   UNK d   1     -20.346  -1.649 -29.616  0.00  0.00     0.039 A 
ATOM     10  O   UNK d   1     -21.338  -3.091 -31.299  0.00  0.00    -0.191 OA
ATOM     11  C   UNK d   1     -18.943  -2.197 -26.369  0.00  0.00     0.218 A 
ATOM     12  O   UNK d   1     -18.602  -2.926 -25.391  0.00  0.00    -0.284 OA
ENDROOT
BRANCH   1  13
ATOM     13  C   UNK d   1     -18.053   1.478 -25.719  0.00  0.00     0.001 A 
ATOM     14  C   UNK d   1     -18.173   2.101 -26.934  0.00  0.00     0.033 A 
ATOM     15  C   UNK d   1     -17.962   3.486 -27.053  0.00  0.00     0.011 A 
ATOM     16 Br   UNK d   1     -18.126   4.388 -28.714  0.00  0.00    -0.051 Br
ATOM     17  C   UNK d   1     -17.630   4.216 -25.933  0.00  0.00     0.022 A 
ATOM     18  C   UNK d   1     -17.508   3.599 -24.730  0.00  0.00     0.039 A 
ATOM     19  C   UNK d   1     -17.719   2.218 -24.608  0.00  0.00     0.078 A 
BRANCH  19  20
ATOM     20  O   UNK d   1     -17.612   1.547 -23.439  0.00  0.00    -0.355 OA
ATOM     21  C   UNK d   1     -17.335   2.071 -22.186  0.00  0.00     0.210 C 
ENDBRANCH  19  20
ENDBRANCH   1  13
BRANCH   9  22
ATOM     22  C   UNK d   1     -20.559  -0.392 -30.358  0.00  0.00     0.279 C 
BRANCH  22  23
ATOM     23  N   UNK d   1     -20.266  -0.549 -31.763  0.00  0.00    -0.064 N 
ATOM     24  C   UNK d   1     -18.839  -0.382 -31.975  0.00  0.00     0.254 C 
ATOM     25  C   UNK d   1     -18.474   0.353 -33.195  0.00  0.00     0.144 C 
ATOM     26  N   UNK d   1     -19.366   0.223 -34.302  0.00  0.00    -0.410 N 
ATOM     27  C   UNK d   1     -20.588  -0.410 -34.092  0.00  0.00     0.144 C 
ATOM     28  C   UNK d   1     -21.142  -0.026 -32.694  0.00  0.00     0.254 C 
ATOM     29  H   UNK d   1     -20.387  -1.659 -31.870  0.00  0.00     0.280 HD
BRANCH  26  30
ATOM     30  C   UNK d   1     -19.292   1.221 -35.300  0.00  0.00     0.112 C 
ATOM     31  C   UNK d   1     -18.852   0.755 -36.644  0.00  0.00     0.026 C 
ENDBRANCH  26  30
ENDBRANCH  22  23
ENDBRANCH   9  22
TORSDOF 5
ENDMDL
