/Users/jonathanwahrer/Desktop/Msc/3_Semester/Drug_Design_Praktikum/waehrer_HTS_screening/HTS_experiment/out/docking_results/vina_output/5l4q/2033_docked.pdbqt
 OpenBabel03212219143D

 29 32  0  0  0  0  0  0  0  0999 V2000
  -20.9730   -2.0810  -33.1150 C   0  0  0  0  0  3  0  0  0  0  0  0
  -20.7830   -2.5440  -31.9110 C   0  0  0  0  0  0  0  0  0  0  0  0
  -20.5660   -1.7550  -30.7920 O   0  0  0  0  0  0  0  0  0  0  0  0
  -20.3950   -2.5170  -29.6510 C   0  0  0  0  0  0  0  0  0  0  0  0
  -20.4860   -3.8580  -29.9470 C   0  0  0  0  0  0  0  0  0  0  0  0
  -20.3430   -4.7990  -28.9480 C   0  0  0  0  0  3  0  0  0  0  0  0
  -20.1070   -4.3830  -27.6550 C   0  0  0  0  0  3  0  0  0  0  0  0
  -20.0180   -3.0050  -27.3790 C   0  0  0  0  0  0  0  0  0  0  0  0
  -20.1570   -2.0590  -28.3470 C   0  0  0  0  0  0  0  0  0  0  0  0
  -19.7740   -2.7330  -26.0230 O   0  0  0  0  0  1  0  0  0  0  0  0
  -20.7360   -3.9140  -31.3910 C   0  0  0  0  0  0  0  0  0  0  0  0
  -20.8850   -4.9480  -32.0780 O   0  0  0  0  0  0  0  0  0  0  0  0
  -20.9920   -0.6820  -33.5080 C   0  0  0  0  0  0  0  0  0  0  0  0
  -19.8800    0.1290  -33.4440 C   0  0  0  0  0  3  0  0  0  0  0  0
  -19.8790    1.4480  -33.7940 C   0  0  0  0  0  0  0  0  0  0  0  0
  -18.3620    2.5970  -33.7170 Br  0  0  0  0  0  0  0  0  0  0  0  0
  -21.0810    1.9910  -34.2400 C   0  0  0  0  0  3  0  0  0  0  0  0
  -22.2360    1.2230  -34.3260 C   0  0  0  0  0  3  0  0  0  0  0  0
  -22.1770   -0.0940  -33.9610 C   0  0  0  0  0  0  0  0  0  0  0  0
  -23.3090   -0.8840  -34.0300 O   0  0  0  0  0  0  0  0  0  0  0  0
  -23.9150   -1.1490  -35.2670 C   0  0  0  0  0  1  0  0  0  0  0  0
  -20.0950   -0.6410  -28.1210 C   0  0  0  0  0  2  0  0  0  0  0  0
  -19.0410    0.1620  -28.5910 N   0  0  0  0  0  4  0  0  0  0  0  0
  -19.2050    1.5790  -28.4130 C   0  0  0  0  0  2  0  0  0  0  0  0
  -18.8350    2.0740  -27.0360 C   0  0  0  0  0  2  0  0  0  0  0  0
  -18.5190    1.0560  -26.1470 O   0  0  0  0  0  0  0  0  0  0  0  0
  -17.4470    0.3670  -26.7050 C   0  0  0  0  0  2  0  0  0  0  0  0
  -17.7360   -0.2430  -28.0370 C   0  0  0  0  0  2  0  0  0  0  0  0
  -18.9100   -0.0090  -29.6090 H   0  0  0  0  0  0  0  0  0  0  0  0
  1  2  2  0  0  0  0
  2 11  1  0  0  0  0
  2  3  1  0  0  0  0
  3  4  1  0  0  0  0
  4  9  1  0  0  0  0
  5  4  2  0  0  0  0
  5  6  1  0  0  0  0
  6  7  2  0  0  0  0
  7  8  1  0  0  0  0
  8 10  1  0  0  0  0
  9 22  1  0  0  0  0
  9  8  2  0  0  0  0
 11  5  1  0  0  0  0
 12 11  2  0  0  0  0
 13 14  1  0  0  0  0
 13  1  1  0  0  0  0
 15 16  1  0  0  0  0
 15 14  2  0  0  0  0
 17 15  1  0  0  0  0
 18 17  2  0  0  0  0
 18 19  1  0  0  0  0
 19 13  2  0  0  0  0
 20 19  1  0  0  0  0
 21 20  1  0  0  0  0
 23 24  1  0  0  0  0
 23 22  1  0  0  0  0
 23 28  1  0  0  0  0
 24 25  1  0  0  0  0
 25 26  1  0  0  0  0
 27 26  1  0  0  0  0
 28 27  1  0  0  0  0
 29 23  1  0  0  0  0
M  END
>  <Pose>
1

>  <Score>
-8.799

$$$$
