MODEL 1
REMARK VINA RESULT:    -8.799      0.000      0.000
REMARK INTER + INTRA:         -11.965
REMARK INTER:                 -10.856
REMARK INTRA:                  -1.109
REMARK UNBOUND:                -1.109
REMARK  4 active torsions:
REMARK  status: ('A' for Active; 'I' for Inactive)
REMARK    1  A    between atoms: C_4  and  C_10 
REMARK    2  A    between atoms: C_5  and  O_8 
REMARK    3  A    between atoms: C_18  and  C_19 
REMARK    4  A    between atoms: C_19  and  N_20 
ROOT
ATOM      1  C   UNK d   1     -20.973  -2.081 -33.115  0.00  0.00     0.055 C 
ATOM      2  C   UNK d   1     -20.783  -2.544 -31.911  0.00  0.00     0.128 A 
ATOM      3  O   UNK d   1     -20.566  -1.755 -30.792  0.00  0.00    -0.305 OA
ATOM      4  C   UNK d   1     -20.395  -2.517 -29.651  0.00  0.00     0.101 A 
ATOM      5  C   UNK d   1     -20.486  -3.858 -29.947  0.00  0.00     0.051 A 
ATOM      6  C   UNK d   1     -20.343  -4.799 -28.948  0.00  0.00     0.021 A 
ATOM      7  C   UNK d   1     -20.107  -4.383 -27.655  0.00  0.00     0.041 A 
ATOM      8  C   UNK d   1     -20.018  -3.005 -27.379  0.00  0.00     0.118 A 
ATOM      9  C   UNK d   1     -20.157  -2.059 -28.347  0.00  0.00     0.039 A 
ATOM     10  O   UNK d   1     -19.774  -2.733 -26.023  0.00  0.00    -0.191 OA
ATOM     11  C   UNK d   1     -20.736  -3.914 -31.391  0.00  0.00     0.218 A 
ATOM     12  O   UNK d   1     -20.885  -4.948 -32.078  0.00  0.00    -0.284 OA
ENDROOT
BRANCH   1  13
ATOM     13  C   UNK d   1     -20.992  -0.682 -33.508  0.00  0.00     0.001 A 
ATOM     14  C   UNK d   1     -19.880   0.129 -33.444  0.00  0.00     0.033 A 
ATOM     15  C   UNK d   1     -19.879   1.448 -33.794  0.00  0.00     0.011 A 
ATOM     16 Br   UNK d   1     -18.362   2.597 -33.717  0.00  0.00    -0.051 Br
ATOM     17  C   UNK d   1     -21.081   1.991 -34.240  0.00  0.00     0.022 A 
ATOM     18  C   UNK d   1     -22.236   1.223 -34.326  0.00  0.00     0.039 A 
ATOM     19  C   UNK d   1     -22.177  -0.094 -33.961  0.00  0.00     0.078 A 
BRANCH  19  20
ATOM     20  O   UNK d   1     -23.309  -0.884 -34.030  0.00  0.00    -0.355 OA
ATOM     21  C   UNK d   1     -23.915  -1.149 -35.267  0.00  0.00     0.210 C 
ENDBRANCH  19  20
ENDBRANCH   1  13
BRANCH   9  22
ATOM     22  C   UNK d   1     -20.095  -0.641 -28.121  0.00  0.00     0.279 C 
BRANCH  22  23
ATOM     23  N   UNK d   1     -19.041   0.162 -28.591  0.00  0.00    -0.063 N 
ATOM     24  C   UNK d   1     -19.205   1.579 -28.413  0.00  0.00     0.261 C 
ATOM     25  C   UNK d   1     -18.835   2.074 -27.036  0.00  0.00     0.195 C 
ATOM     26  O   UNK d   1     -18.519   1.056 -26.147  0.00  0.00    -0.388 OA
ATOM     27  C   UNK d   1     -17.447   0.367 -26.705  0.00  0.00     0.195 C 
ATOM     28  C   UNK d   1     -17.736  -0.243 -28.037  0.00  0.00     0.261 C 
ATOM     29  H   UNK d   1     -18.910  -0.009 -29.609  0.00  0.00     0.280 HD
ENDBRANCH  22  23
ENDBRANCH   9  22
TORSDOF 4
ENDMDL
