MODEL 1
REMARK VINA RESULT:    -9.082      0.000      0.000
REMARK INTER + INTRA:         -12.478
REMARK INTER:                 -11.737
REMARK INTRA:                  -0.742
REMARK UNBOUND:                -0.742
REMARK  5 active torsions:
REMARK  status: ('A' for Active; 'I' for Inactive)
REMARK    1  A    between atoms: S_1  and  N_4 
REMARK    2  A    between atoms: S_1  and  C_24 
REMARK       I    between atoms: N_7  and  C_10 
REMARK    3  A    between atoms: C_10  and  C_12 
REMARK    4  A    between atoms: C_12  and  S_13 
REMARK    5  A    between atoms: S_13  and  C_14 
ROOT
ATOM      1  N   UNK d   1     -21.500  -1.757 -34.541  0.00  0.00    -0.203 NA
ATOM      2  C   UNK d   1     -22.574  -2.456 -33.866  0.00  0.00     0.127 C 
ATOM      3  C   UNK d   1     -22.018  -3.598 -33.025  0.00  0.00     0.141 C 
ATOM      4  N   UNK d   1     -21.113  -3.020 -32.032  0.00  0.00    -0.349 N 
ATOM      5  C   UNK d   1     -20.783  -1.642 -32.244  0.00  0.00     0.141 C 
ATOM      6  C   UNK d   1     -20.385  -1.480 -33.688  0.00  0.00     0.127 C 
ATOM      7  C   UNK d   1     -20.660  -3.815 -30.975  0.00  0.00     0.229 C 
ATOM      8  O   UNK d   1     -21.063  -5.046 -30.904  0.00  0.00    -0.273 OA
ENDROOT
BRANCH   7   9
ATOM      9  C   UNK d   1     -19.756  -3.449 -29.879  0.00  0.00     0.183 C 
BRANCH   9  10
ATOM     10  S   UNK d   1     -20.573  -3.114 -28.325  0.00  0.00    -0.100 SA
BRANCH  10  11
ATOM     11  C   UNK d   1     -19.710  -1.953 -27.281  0.00  0.00     0.110 A 
ATOM     12  N   UNK d   1     -19.183  -2.327 -26.122  0.00  0.00    -0.234 NA
ATOM     13  C   UNK d   1     -18.512  -1.502 -25.314  0.00  0.00     0.236 A 
ATOM     14  N   UNK d   1     -18.363  -0.198 -25.702  0.00  0.00    -0.222 NA
ATOM     15  C   UNK d   1     -18.883   0.212 -26.863  0.00  0.00     0.161 A 
ATOM     16  N   UNK d   1     -18.869   1.432 -27.475  0.00  0.00    -0.256 N 
ATOM     17  C   UNK d   1     -19.577  -0.646 -27.697  0.00  0.00     0.066 A 
ATOM     18  N   UNK d   1     -19.515   1.329 -28.618  0.00  0.00    -0.182 NA
ATOM     19  C   UNK d   1     -18.245   2.615 -26.961  0.00  0.00     0.182 C 
ATOM     20  C   UNK d   1     -19.961   0.083 -28.791  0.00  0.00     0.157 A 
ENDBRANCH  10  11
ENDBRANCH   9  10
ENDBRANCH   7   9
BRANCH   1  21
ATOM     21  S   UNK d   1     -22.097  -0.316 -35.264  0.00  0.00     0.243 S 
ATOM     22  O   UNK d   1     -23.437  -0.030 -34.627  0.00  0.00    -0.206 OA
ATOM     23  O   UNK d   1     -21.222   0.859 -34.986  0.00  0.00    -0.206 OA
BRANCH  21  24
ATOM     24  C   UNK d   1     -22.291  -0.560 -36.985  0.00  0.00     0.074 A 
ATOM     25  C   UNK d   1     -23.232  -1.392 -37.548  0.00  0.00     0.026 A 
ATOM     26  C   UNK d   1     -23.329  -1.549 -38.910  0.00  0.00     0.025 A 
ATOM     27  C   UNK d   1     -22.463  -0.856 -39.757  0.00  0.00     0.034 A 
ATOM     28  C   UNK d   1     -21.501  -0.008 -39.198  0.00  0.00     0.025 A 
ATOM     29 Cl   UNK d   1     -22.598  -1.065 -41.482  0.00  0.00    -0.084 Cl
ATOM     30  C   UNK d   1     -21.424   0.133 -37.830  0.00  0.00     0.026 A 
ENDBRANCH  21  24
ENDBRANCH   1  21
TORSDOF 5
ENDMDL
