/Users/jonathanwahrer/Desktop/Msc/3_Semester/Drug_Design_Praktikum/waehrer_HTS_screening/HTS_experiment/out/docking_results/vina_output/5l4q/2041_docked.pdbqt
 OpenBabel03212219143D

 30 33  0  0  0  0  0  0  0  0999 V2000
  -21.5000   -1.7570  -34.5410 N   0  0  0  0  0  0  0  0  0  0  0  0
  -22.5740   -2.4560  -33.8660 C   0  0  0  0  0  2  0  0  0  0  0  0
  -22.0180   -3.5980  -33.0250 C   0  0  0  0  0  2  0  0  0  0  0  0
  -21.1130   -3.0200  -32.0320 N   0  0  0  0  0  0  0  0  0  0  0  0
  -20.7830   -1.6420  -32.2440 C   0  0  0  0  0  2  0  0  0  0  0  0
  -20.3850   -1.4800  -33.6880 C   0  0  0  0  0  2  0  0  0  0  0  0
  -20.6600   -3.8150  -30.9750 C   0  0  0  0  0  0  0  0  0  0  0  0
  -21.0630   -5.0460  -30.9040 O   0  0  0  0  0  0  0  0  0  0  0  0
  -19.7560   -3.4490  -29.8790 C   0  0  0  0  0  2  0  0  0  0  0  0
  -20.5730   -3.1140  -28.3250 S   0  0  0  0  0  0  0  0  0  0  0  0
  -19.7100   -1.9530  -27.2810 C   0  0  0  0  0  0  0  0  0  0  0  0
  -19.1830   -2.3270  -26.1220 N   0  0  0  0  0  0  0  0  0  0  0  0
  -18.5120   -1.5020  -25.3140 C   0  0  0  0  0  3  0  0  0  0  0  0
  -18.3630   -0.1980  -25.7020 N   0  0  0  0  0  0  0  0  0  0  0  0
  -18.8830    0.2120  -26.8630 C   0  0  0  0  0  0  0  0  0  0  0  0
  -18.8690    1.4320  -27.4750 N   0  0  0  0  0  0  0  0  0  0  0  0
  -19.5770   -0.6460  -27.6970 C   0  0  0  0  0  0  0  0  0  0  0  0
  -19.5150    1.3290  -28.6180 N   0  0  0  0  0  0  0  0  0  0  0  0
  -18.2450    2.6150  -26.9610 C   0  0  0  0  0  1  0  0  0  0  0  0
  -19.9610    0.0830  -28.7910 C   0  0  0  0  0  3  0  0  0  0  0  0
  -22.0970   -0.3160  -35.2640 S   0  0  0  0  0  0  0  0  0  0  0  0
  -23.4370   -0.0300  -34.6270 O   0  0  0  0  0  0  0  0  0  0  0  0
  -21.2220    0.8590  -34.9860 O   0  0  0  0  0  0  0  0  0  0  0  0
  -22.2910   -0.5600  -36.9850 C   0  0  0  0  0  0  0  0  0  0  0  0
  -23.2320   -1.3920  -37.5480 C   0  0  0  0  0  3  0  0  0  0  0  0
  -23.3290   -1.5490  -38.9100 C   0  0  0  0  0  3  0  0  0  0  0  0
  -22.4630   -0.8560  -39.7570 C   0  0  0  0  0  0  0  0  0  0  0  0
  -21.5010   -0.0080  -39.1980 C   0  0  0  0  0  3  0  0  0  0  0  0
  -22.5980   -1.0650  -41.4820 Cl  0  0  0  0  0  0  0  0  0  0  0  0
  -21.4240    0.1330  -37.8300 C   0  0  0  0  0  3  0  0  0  0  0  0
  1  2  1  0  0  0  0
  1  6  1  0  0  0  0
  2  3  1  0  0  0  0
  3  4  1  0  0  0  0
  4  7  1  0  0  0  0
  5  4  1  0  0  0  0
  6  5  1  0  0  0  0
  7  8  2  0  0  0  0
  7  9  1  0  0  0  0
  9 10  1  0  0  0  0
 10 11  1  0  0  0  0
 11 12  1  0  0  0  0
 12 13  2  0  0  0  0
 14 13  1  0  0  0  0
 15 14  2  0  0  0  0
 16 19  1  0  0  0  0
 16 15  1  0  0  0  0
 17 11  2  0  0  0  0
 17 15  1  0  0  0  0
 18 16  1  0  0  0  0
 20 18  2  0  0  0  0
 20 17  1  0  0  0  0
 21 23  2  0  0  0  0
 21 22  2  0  0  0  0
 21  1  1  0  0  0  0
 24 21  1  0  0  0  0
 25 24  1  0  0  0  0
 26 25  2  0  0  0  0
 27 28  2  0  0  0  0
 27 26  1  0  0  0  0
 28 30  1  0  0  0  0
 29 27  1  0  0  0  0
 30 24  2  0  0  0  0
M  END
>  <Pose>
1

>  <Score>
-9.082

$$$$
