/Users/jonathanwahrer/Desktop/Msc/3_Semester/Drug_Design_Praktikum/waehrer_HTS_screening/HTS_experiment/out/docking_results/vina_output/5l4q/2043_docked.pdbqt
 OpenBabel03212219153D

 32 35  0  0  0  0  0  0  0  0999 V2000
  -19.8120    3.0440  -36.8690 N   0  0  0  0  0  0  0  0  0  0  0  0
  -19.6960    1.6560  -37.2390 C   0  0  0  0  0  2  0  0  0  0  0  0
  -18.5260    1.0600  -36.4590 C   0  0  0  0  0  2  0  0  0  0  0  0
  -18.5490    1.5400  -35.1300 N   0  0  0  0  0  0  0  0  0  0  0  0
  -18.0780    2.9950  -35.0870 C   0  0  0  0  0  2  0  0  0  0  0  0
  -18.6540    3.6300  -36.3020 C   0  0  0  0  0  2  0  0  0  0  0  0
  -18.9490    0.9770  -33.9530 C   0  0  0  0  0  0  0  0  0  0  0  0
  -18.6050    1.8020  -32.9060 O   0  0  0  0  0  0  0  0  0  0  0  0
  -19.5950   -0.1700  -33.4460 C   0  0  0  0  0  3  0  0  0  0  0  0
  -19.6880   -0.8820  -32.3720 C   0  0  0  0  0  0  0  0  0  0  0  0
  -18.9870   -0.6090  -31.1880 N   0  0  0  0  0  0  0  0  0  0  0  0
  -20.6360   -2.0370  -32.3330 C   0  0  0  0  0  0  0  0  0  0  0  0
  -19.1200   -1.3400  -29.9860 N   0  0  0  0  0  0  0  0  0  0  0  0
  -18.2900    0.1380  -31.1520 H   0  0  0  0  0  0  0  0  0  0  0  0
  -20.0080   -2.4200  -29.9460 C   0  0  0  0  0  0  0  0  0  0  0  0
  -18.5350   -1.0360  -29.1520 H   0  0  0  0  0  0  0  0  0  0  0  0
  -20.1360   -3.0800  -28.8820 O   0  0  0  0  0  0  0  0  0  0  0  0
  -20.7710   -2.7560  -31.1600 C   0  0  0  0  0  0  0  0  0  0  0  0
  -21.6320   -3.8350  -31.0580 C   0  0  0  0  0  3  0  0  0  0  0  0
  -22.3870   -4.2220  -32.1440 C   0  0  0  0  0  3  0  0  0  0  0  0
  -22.2490   -3.5030  -33.3040 C   0  0  0  0  0  3  0  0  0  0  0  0
  -21.3780   -2.4140  -33.4060 C   0  0  0  0  0  3  0  0  0  0  0  0
  -21.3000    3.5040  -36.2390 S   0  0  0  0  0  0  0  0  0  0  0  0
  -21.0540    4.6230  -35.2360 O   0  0  0  0  0  0  0  0  0  0  0  0
  -22.1060    4.1590  -37.3550 O   0  0  0  0  0  0  0  0  0  0  0  0
  -22.2540    2.2390  -35.5710 C   0  0  0  0  0  0  0  0  0  0  0  0
  -22.8580    1.3000  -36.3680 C   0  0  0  0  0  3  0  0  0  0  0  0
  -23.6210    0.2920  -35.8070 C   0  0  0  0  0  3  0  0  0  0  0  0
  -23.8050    0.1890  -34.4460 C   0  0  0  0  0  0  0  0  0  0  0  0
  -23.1980    1.1340  -33.6360 C   0  0  0  0  0  3  0  0  0  0  0  0
  -24.7820   -1.1080  -33.7860 Cl  0  0  0  0  0  0  0  0  0  0  0  0
  -22.4320    2.1440  -34.2140 C   0  0  0  0  0  3  0  0  0  0  0  0
  1  6  1  0  0  0  0
  1 23  1  0  0  0  0
  2  1  1  0  0  0  0
  2  3  1  0  0  0  0
  3  4  1  0  0  0  0
  4  5  1  0  0  0  0
  4  7  1  0  0  0  0
  6  5  1  0  0  0  0
  7  9  1  0  0  0  0
  7  8  2  0  0  0  0
  9 10  2  0  0  0  0
 10 12  1  0  0  0  0
 10 11  1  0  0  0  0
 11 14  1  0  0  0  0
 11 13  1  0  0  0  0
 12 18  1  0  0  0  0
 13 15  1  0  0  0  0
 13 16  1  0  0  0  0
 15 17  2  0  0  0  0
 18 19  2  0  0  0  0
 18 15  1  0  0  0  0
 20 19  1  0  0  0  0
 21 20  2  0  0  0  0
 22 21  1  0  0  0  0
 22 12  2  0  0  0  0
 23 26  1  0  0  0  0
 23 24  2  0  0  0  0
 25 23  2  0  0  0  0
 26 32  1  0  0  0  0
 27 28  1  0  0  0  0
 27 26  2  0  0  0  0
 28 29  2  0  0  0  0
 29 31  1  0  0  0  0
 29 30  1  0  0  0  0
 32 30  2  0  0  0  0
M  END
>  <Pose>
1

>  <Score>
-8.823

$$$$
