MODEL 1
REMARK VINA RESULT:    -8.823      0.000      0.000
REMARK INTER + INTRA:         -12.152
REMARK INTER:                 -10.371
REMARK INTRA:                  -1.781
REMARK UNBOUND:                -1.781
REMARK  3 active torsions:
REMARK  status: ('A' for Active; 'I' for Inactive)
REMARK    1  A    between atoms: S_1  and  N_4 
REMARK    2  A    between atoms: S_1  and  C_24 
REMARK    3  A    between atoms: C_10  and  C_12 
ROOT
ATOM      1  N   UNK d   1     -19.812   3.044 -36.869  0.00  0.00    -0.304 N 
ATOM      2  C   UNK d   1     -19.696   1.656 -37.239  0.00  0.00     0.155 C 
ATOM      3  C   UNK d   1     -18.526   1.060 -36.459  0.00  0.00     0.145 C 
ATOM      4  N   UNK d   1     -18.549   1.540 -35.130  0.00  0.00    -0.356 N 
ATOM      5  C   UNK d   1     -18.078   2.995 -35.087  0.00  0.00     0.145 C 
ATOM      6  C   UNK d   1     -18.654   3.630 -36.302  0.00  0.00     0.155 C 
ATOM      7  C   UNK d   1     -18.949   0.977 -33.953  0.00  0.00     0.179 C 
ATOM      8  O   UNK d   1     -18.605   1.802 -32.906  0.00  0.00    -0.172 OA
ENDROOT
BRANCH   7   9
ATOM      9  C   UNK d   1     -19.595  -0.170 -33.446  0.00  0.00     0.090 C 
ATOM     10  C   UNK d   1     -19.688  -0.882 -32.372  0.00  0.00     0.063 A 
ATOM     11  N   UNK d   1     -18.987  -0.609 -31.188  0.00  0.00    -0.297 N 
ATOM     12  C   UNK d   1     -20.636  -2.037 -32.333  0.00  0.00     0.008 A 
ATOM     13  N   UNK d   1     -19.120  -1.340 -29.986  0.00  0.00    -0.265 N 
ATOM     14  H   UNK d   1     -18.290   0.138 -31.152  0.00  0.00     0.187 HD
ATOM     15  C   UNK d   1     -20.008  -2.420 -29.946  0.00  0.00     0.271 A 
ATOM     16  H   UNK d   1     -18.535  -1.036 -29.152  0.00  0.00     0.190 HD
ATOM     17  O   UNK d   1     -20.136  -3.080 -28.882  0.00  0.00    -0.266 OA
ATOM     18  C   UNK d   1     -20.771  -2.756 -31.160  0.00  0.00     0.046 A 
ATOM     19  C   UNK d   1     -21.632  -3.835 -31.058  0.00  0.00     0.018 A 
ATOM     20  C   UNK d   1     -22.387  -4.222 -32.144  0.00  0.00     0.001 A 
ATOM     21  C   UNK d   1     -22.249  -3.503 -33.304  0.00  0.00     0.001 A 
ATOM     22  C   UNK d   1     -21.378  -2.414 -33.406  0.00  0.00     0.015 A 
ENDBRANCH   7   9
BRANCH   1  23
ATOM     23  S   UNK d   1     -21.300   3.504 -36.239  0.00  0.00     0.260 S 
ATOM     24  O   UNK d   1     -21.054   4.623 -35.236  0.00  0.00    -0.200 OA
ATOM     25  O   UNK d   1     -22.106   4.159 -37.355  0.00  0.00    -0.200 OA
BRANCH  23  26
ATOM     26  C   UNK d   1     -22.254   2.239 -35.571  0.00  0.00     0.079 A 
ATOM     27  C   UNK d   1     -22.858   1.300 -36.368  0.00  0.00     0.027 A 
ATOM     28  C   UNK d   1     -23.621   0.292 -35.807  0.00  0.00     0.025 A 
ATOM     29  C   UNK d   1     -23.805   0.189 -34.446  0.00  0.00     0.034 A 
ATOM     30  C   UNK d   1     -23.198   1.134 -33.636  0.00  0.00     0.025 A 
ATOM     31 Cl   UNK d   1     -24.782  -1.108 -33.786  0.00  0.00    -0.084 Cl
ATOM     32  C   UNK d   1     -22.432   2.144 -34.214  0.00  0.00     0.027 A 
ENDBRANCH  23  26
ENDBRANCH   1  23
TORSDOF 3
ENDMDL
