MODEL 1
REMARK VINA RESULT:    -8.303      0.000      0.000
REMARK INTER + INTRA:         -11.350
REMARK INTER:                 -10.730
REMARK INTRA:                  -0.621
REMARK UNBOUND:                -0.621
REMARK  5 active torsions:
REMARK  status: ('A' for Active; 'I' for Inactive)
REMARK    1  A    between atoms: C_3  and  N_18 
REMARK    2  A    between atoms: C_5  and  N_8 
REMARK    3  A    between atoms: N_8  and  C_9 
REMARK    4  A    between atoms: C_9  and  C_10 
REMARK       I    between atoms: C_10  and  N_12 
REMARK    5  A    between atoms: C_22  and  C_23 
ROOT
ATOM      1 Cl   UNK d   1     -25.096   0.533 -38.140  0.00  0.00    -0.082 Cl
ATOM      2  C   UNK d   1     -24.220  -0.163 -36.812  0.00  0.00     0.063 A 
ATOM      3  C   UNK d   1     -23.637  -1.400 -36.916  0.00  0.00     0.086 A 
ATOM      4  C   UNK d   1     -22.956  -1.897 -35.827  0.00  0.00     0.062 A 
ATOM      5  C   UNK d   1     -22.829  -1.215 -34.636  0.00  0.00     0.030 A 
ATOM      6  C   UNK d   1     -23.420   0.025 -34.550  0.00  0.00     0.031 A 
ATOM      7  C   UNK d   1     -24.104   0.531 -35.634  0.00  0.00     0.028 A 
ENDROOT
BRANCH   5   8
ATOM      8  N   UNK d   1     -22.106  -1.764 -33.506  0.00  0.00    -0.382 N 
ATOM      9  H   UNK d   1     -21.849  -1.180 -32.704  0.00  0.00     0.160 HD
BRANCH   8  10
ATOM     10  C   UNK d   1     -21.778  -3.145 -33.575  0.00  0.00     0.207 C 
BRANCH  10  11
ATOM     11  C   UNK d   1     -21.458  -3.847 -32.336  0.00  0.00     0.171 C 
ATOM     12  O   UNK d   1     -22.034  -5.021 -32.263  0.00  0.00    -0.175 OA
ATOM     13  N   UNK d   1     -20.680  -3.507 -31.257  0.00  0.00    -0.358 N 
ATOM     14  C   UNK d   1     -19.870  -2.338 -31.131  0.00  0.00     0.151 C 
ATOM     15  C   UNK d   1     -20.663  -4.376 -30.060  0.00  0.00     0.151 C 
ATOM     16  C   UNK d   1     -20.341  -1.557 -29.907  0.00  0.00     0.187 C 
ATOM     17  O   UNK d   1     -20.079  -2.412 -28.815  0.00  0.00    -0.388 OA
ATOM     18  C   UNK d   1     -20.967  -3.464 -28.867  0.00  0.00     0.187 C 
ENDBRANCH  10  11
ENDBRANCH   8  10
ENDBRANCH   5   8
BRANCH   3  19
ATOM     19  N   UNK d   1     -23.717  -2.178 -38.084  0.00  0.00    -0.196 N 
ATOM     20  N   UNK d   1     -24.564  -3.171 -38.264  0.00  0.00    -0.039 NA
ATOM     21  N   UNK d   1     -24.400  -3.695 -39.464  0.00  0.00    -0.023 NA
ATOM     22  N   UNK d   1     -23.430  -3.012 -40.038  0.00  0.00    -0.113 NA
ATOM     23  C   UNK d   1     -22.984  -2.046 -39.181  0.00  0.00     0.158 A 
BRANCH  23  24
ATOM     24  C   UNK d   1     -21.901  -1.127 -39.528  0.00  0.00     0.059 A 
ATOM     25  C   UNK d   1     -21.508  -0.745 -40.879  0.00  0.00     0.013 A 
ATOM     26  C   UNK d   1     -22.368   0.250 -40.082  0.00  0.00     0.013 A 
ENDBRANCH  23  24
ENDBRANCH   3  19
TORSDOF 5
ENDMDL
