/Users/jonathanwahrer/Desktop/Msc/3_Semester/Drug_Design_Praktikum/waehrer_HTS_screening/HTS_experiment/out/docking_results/vina_output/5l4q/2046_docked.pdbqt
 OpenBabel03212219153D

 26 29  0  0  0  0  0  0  0  0999 V2000
  -25.0960    0.5330  -38.1400 Cl  0  0  0  0  0  0  0  0  0  0  0  0
  -24.2200   -0.1630  -36.8120 C   0  0  0  0  0  0  0  0  0  0  0  0
  -23.6370   -1.4000  -36.9160 C   0  0  0  0  0  0  0  0  0  0  0  0
  -22.9560   -1.8970  -35.8270 C   0  0  0  0  0  3  0  0  0  0  0  0
  -22.8290   -1.2150  -34.6360 C   0  0  0  0  0  0  0  0  0  0  0  0
  -23.4200    0.0250  -34.5500 C   0  0  0  0  0  3  0  0  0  0  0  0
  -24.1040    0.5310  -35.6340 C   0  0  0  0  0  3  0  0  0  0  0  0
  -22.1060   -1.7640  -33.5060 N   0  0  0  0  0  0  0  0  0  0  0  0
  -21.8490   -1.1800  -32.7040 H   0  0  0  0  0  0  0  0  0  0  0  0
  -21.7780   -3.1450  -33.5750 C   0  0  0  0  0  2  0  0  0  0  0  0
  -21.4580   -3.8470  -32.3360 C   0  0  0  0  0  0  0  0  0  0  0  0
  -22.0340   -5.0210  -32.2630 O   0  0  0  0  0  0  0  0  0  0  0  0
  -20.6800   -3.5070  -31.2570 N   0  0  0  0  0  0  0  0  0  0  0  0
  -19.8700   -2.3380  -31.1310 C   0  0  0  0  0  2  0  0  0  0  0  0
  -20.6630   -4.3760  -30.0600 C   0  0  0  0  0  2  0  0  0  0  0  0
  -20.3410   -1.5570  -29.9070 C   0  0  0  0  0  2  0  0  0  0  0  0
  -20.0790   -2.4120  -28.8150 O   0  0  0  0  0  0  0  0  0  0  0  0
  -20.9670   -3.4640  -28.8670 C   0  0  0  0  0  2  0  0  0  0  0  0
  -23.7170   -2.1780  -38.0840 N   0  0  0  0  0  0  0  0  0  0  0  0
  -24.5640   -3.1710  -38.2640 N   0  0  0  0  0  0  0  0  0  0  0  0
  -24.4000   -3.6950  -39.4640 N   0  0  0  0  0  0  0  0  0  0  0  0
  -23.4300   -3.0120  -40.0380 N   0  0  0  0  0  0  0  0  0  0  0  0
  -22.9840   -2.0460  -39.1810 C   0  0  0  0  0  0  0  0  0  0  0  0
  -21.9010   -1.1270  -39.5280 C   0  0  0  0  0  3  0  0  0  0  0  0
  -21.5080   -0.7450  -40.8790 C   0  0  0  0  0  2  0  0  0  0  0  0
  -22.3680    0.2500  -40.0820 C   0  0  0  0  0  2  0  0  0  0  0  0
  1  2  1  0  0  0  0
  2  7  1  0  0  0  0
  3  2  2  0  0  0  0
  3  4  1  0  0  0  0
  4  5  2  0  0  0  0
  5  6  1  0  0  0  0
  5  8  1  0  0  0  0
  7  6  2  0  0  0  0
  8  9  1  0  0  0  0
 10  8  1  0  0  0  0
 10 11  1  0  0  0  0
 11 12  2  0  0  0  0
 11 13  1  0  0  0  0
 13 14  1  0  0  0  0
 13 15  1  0  0  0  0
 14 16  1  0  0  0  0
 15 18  1  0  0  0  0
 16 17  1  0  0  0  0
 18 17  1  0  0  0  0
 19  3  1  0  0  0  0
 20 19  1  0  0  0  0
 21 20  2  0  0  0  0
 22 21  1  0  0  0  0
 22 23  2  0  0  0  0
 23 19  1  0  0  0  0
 24 23  1  0  0  0  0
 25 26  1  0  0  0  0
 25 24  1  0  0  0  0
 26 24  1  0  0  0  0
M  END
>  <Pose>
1

>  <Score>
-8.303

$$$$
