/Users/jonathanwahrer/Desktop/Msc/3_Semester/Drug_Design_Praktikum/waehrer_HTS_screening/HTS_experiment/out/docking_results/vina_output/5l4q/2063_docked.pdbqt
 OpenBabel03212219153D

 34 37  0  0  1  0  0  0  0  0999 V2000
  -20.4870   -1.8470  -30.8030 C   0  0  0  0  0  0  0  0  0  0  0  0
  -20.9050   -3.1140  -31.1980 C   0  0  0  0  0  3  0  0  0  0  0  0
  -21.5410   -3.3280  -32.3260 O   0  0  0  0  0  0  0  0  0  0  0  0
  -21.8350   -2.3680  -33.1700 C   0  0  0  0  0  0  0  0  0  0  0  0
  -21.4610   -1.0800  -32.8660 C   0  0  0  0  0  0  0  0  0  0  0  0
  -21.7880   -0.1070  -33.7790 C   0  0  0  0  0  3  0  0  0  0  0  0
  -22.4550   -0.3640  -34.9490 C   0  0  0  0  0  3  0  0  0  0  0  0
  -22.8470   -1.6770  -35.2810 C   0  0  0  0  0  0  0  0  0  0  0  0
  -22.5160   -2.6450  -34.3630 C   0  0  0  0  0  3  0  0  0  0  0  0
  -20.7920   -0.8210  -31.6900 C   0  0  0  0  0  0  0  0  0  0  0  0
  -20.4490    0.3590  -31.4090 O   0  0  0  0  0  0  0  0  0  0  0  0
  -23.5160   -1.8940  -36.4680 O   0  0  0  0  0  0  0  0  0  0  0  0
  -22.9940   -1.7990  -37.7250 C   0  0  2  0  0  3  0  0  0  0  0  0
  -22.8940   -0.4610  -38.1910 O   0  0  0  0  0  0  0  0  0  0  0  0
  -21.9200   -0.4820  -39.1640 C   0  0  1  0  0  3  0  0  0  0  0  0
  -22.2620   -1.3040  -40.3680 C   0  0  2  0  0  3  0  0  0  0  0  0
  -22.8970   -2.6250  -40.0030 C   0  0  1  0  0  3  0  0  0  0  0  0
  -23.8060   -2.5010  -38.7990 C   0  0  1  0  0  3  0  0  0  0  0  0
  -21.4850    0.8960  -39.5940 C   0  0  0  0  0  2  0  0  0  0  0  0
  -20.1260    0.9450  -39.8960 O   0  0  0  0  0  0  0  0  0  0  0  0
  -19.9760    0.2110  -40.5700 H   0  0  0  0  0  0  0  0  0  0  0  0
  -21.0560   -1.6070  -41.0200 O   0  0  0  0  0  0  0  0  0  0  0  0
  -21.1840   -1.6290  -42.0010 H   0  0  0  0  0  0  0  0  0  0  0  0
  -23.5510   -3.1480  -41.1110 O   0  0  0  0  0  0  0  0  0  0  0  0
  -24.2850   -3.7850  -40.8510 H   0  0  0  0  0  0  0  0  0  0  0  0
  -24.1770   -3.7810  -38.4080 O   0  0  0  0  0  0  0  0  0  0  0  0
  -24.5600   -4.2830  -39.1650 H   0  0  0  0  0  0  0  0  0  0  0  0
  -19.7870   -1.6350  -29.5540 C   0  0  0  0  0  0  0  0  0  0  0  0
  -18.7460   -0.7400  -29.4140 C   0  0  0  0  0  3  0  0  0  0  0  0
  -18.1160   -0.5850  -28.1850 C   0  0  0  0  0  3  0  0  0  0  0  0
  -18.4930   -1.3010  -27.0720 C   0  0  0  0  0  0  0  0  0  0  0  0
  -17.6160   -1.0760  -25.3870 Br  0  0  0  0  0  0  0  0  0  0  0  0
  -19.5390   -2.2010  -27.2120 C   0  0  0  0  0  3  0  0  0  0  0  0
  -20.1640   -2.3540  -28.4330 C   0  0  0  0  0  3  0  0  0  0  0  0
  1 28  1  0  0  0  0
  2  1  2  0  0  0  0
  3  2  1  0  0  0  0
  4  5  1  0  0  0  0
  4  3  1  0  0  0  0
  5 10  1  0  0  0  0
  6  5  2  0  0  0  0
  7  6  1  0  0  0  0
  8  7  2  0  0  0  0
  8  9  1  0  0  0  0
  9  4  2  0  0  0  0
 10 11  2  0  0  0  0
 10  1  1  0  0  0  0
 12  8  1  0  0  0  0
 13 12  1  1  0  0  0
 14 13  1  0  0  0  0
 15 19  1  6  0  0  0
 15 14  1  0  0  0  0
 16 22  1  1  0  0  0
 16 17  1  0  0  0  0
 16 15  1  0  0  0  0
 17 24  1  6  0  0  0
 17 18  1  0  0  0  0
 18 26  1  1  0  0  0
 18 13  1  0  0  0  0
 20 19  1  0  0  0  0
 21 20  1  0  0  0  0
 23 22  1  0  0  0  0
 24 25  1  0  0  0  0
 27 26  1  0  0  0  0
 28 29  2  0  0  0  0
 28 34  1  0  0  0  0
 29 30  1  0  0  0  0
 30 31  2  0  0  0  0
 31 32  1  0  0  0  0
 33 31  1  0  0  0  0
 34 33  2  0  0  0  0
M  END
>  <Pose>
1

>  <Score>
-9.260

$$$$
