MODEL 1
REMARK VINA RESULT:    -9.260      0.000      0.000
REMARK INTER + INTRA:         -12.835
REMARK INTER:                 -12.508
REMARK INTRA:                  -0.327
REMARK UNBOUND:                -0.327
REMARK  8 active torsions:
REMARK  status: ('A' for Active; 'I' for Inactive)
REMARK    1  A    between atoms: C_5  and  C_8 
REMARK    2  A    between atoms: C_15  and  O_17 
REMARK    3  A    between atoms: O_17  and  C_18 
REMARK    4  A    between atoms: C_20  and  C_27 
REMARK    5  A    between atoms: C_21  and  O_26 
REMARK    6  A    between atoms: C_22  and  O_25 
REMARK    7  A    between atoms: C_23  and  O_24 
REMARK    8  A    between atoms: C_27  and  O_28 
ROOT
ATOM      1  C   UNK d   1     -20.487  -1.847 -30.803  0.00  0.00     0.048 A 
ATOM      2  C   UNK d   1     -20.905  -3.114 -31.198  0.00  0.00     0.159 A 
ATOM      3  O   UNK d   1     -21.541  -3.328 -32.326  0.00  0.00    -0.321 OA
ATOM      4  C   UNK d   1     -21.835  -2.368 -33.170  0.00  0.00     0.091 A 
ATOM      5  C   UNK d   1     -21.461  -1.080 -32.866  0.00  0.00     0.049 A 
ATOM      6  C   UNK d   1     -21.788  -0.107 -33.779  0.00  0.00     0.021 A 
ATOM      7  C   UNK d   1     -22.455  -0.364 -34.949  0.00  0.00     0.038 A 
ATOM      8  C   UNK d   1     -22.847  -1.677 -35.281  0.00  0.00     0.074 A 
ATOM      9  C   UNK d   1     -22.516  -2.645 -34.363  0.00  0.00     0.075 A 
ATOM     10  C   UNK d   1     -20.792  -0.821 -31.690  0.00  0.00     0.197 A 
ATOM     11  O   UNK d   1     -20.449   0.359 -31.409  0.00  0.00    -0.286 OA
ENDROOT
BRANCH   8  12
ATOM     12  O   UNK d   1     -23.516  -1.894 -36.468  0.00  0.00    -0.318 OA
BRANCH  12  13
ATOM     13  C   UNK d   1     -22.994  -1.799 -37.725  0.00  0.00     0.298 C 
ATOM     14  O   UNK d   1     -22.894  -0.461 -38.191  0.00  0.00    -0.348 OA
ATOM     15  C   UNK d   1     -21.920  -0.482 -39.164  0.00  0.00     0.179 C 
ATOM     16  C   UNK d   1     -22.262  -1.304 -40.368  0.00  0.00     0.180 C 
ATOM     17  C   UNK d   1     -22.897  -2.625 -40.003  0.00  0.00     0.183 C 
ATOM     18  C   UNK d   1     -23.806  -2.501 -38.799  0.00  0.00     0.205 C 
BRANCH  15  19
ATOM     19  C   UNK d   1     -21.485   0.896 -39.594  0.00  0.00     0.198 C 
BRANCH  19  20
ATOM     20  O   UNK d   1     -20.126   0.945 -39.896  0.00  0.00    -0.398 OA
ATOM     21  H   UNK d   1     -19.976   0.211 -40.570  0.00  0.00     0.209 HD
ENDBRANCH  19  20
ENDBRANCH  15  19
BRANCH  16  22
ATOM     22  O   UNK d   1     -21.056  -1.607 -41.020  0.00  0.00    -0.390 OA
ATOM     23  H   UNK d   1     -21.184  -1.629 -42.001  0.00  0.00     0.210 HD
ENDBRANCH  16  22
BRANCH  17  24
ATOM     24  O   UNK d   1     -23.551  -3.148 -41.111  0.00  0.00    -0.390 OA
ATOM     25  H   UNK d   1     -24.285  -3.785 -40.851  0.00  0.00     0.210 HD
ENDBRANCH  17  24
BRANCH  18  26
ATOM     26  O   UNK d   1     -24.177  -3.781 -38.408  0.00  0.00    -0.388 OA
ATOM     27  H   UNK d   1     -24.560  -4.283 -39.165  0.00  0.00     0.210 HD
ENDBRANCH  18  26
ENDBRANCH  12  13
ENDBRANCH   8  12
BRANCH   1  28
ATOM     28  C   UNK d   1     -19.787  -1.635 -29.554  0.00  0.00    -0.020 A 
ATOM     29  C   UNK d   1     -18.746  -0.740 -29.414  0.00  0.00     0.014 A 
ATOM     30  C   UNK d   1     -18.116  -0.585 -28.185  0.00  0.00     0.020 A 
ATOM     31  C   UNK d   1     -18.493  -1.301 -27.072  0.00  0.00     0.011 A 
ATOM     32 Br   UNK d   1     -17.616  -1.076 -25.387  0.00  0.00    -0.051 Br
ATOM     33  C   UNK d   1     -19.539  -2.201 -27.212  0.00  0.00     0.020 A 
ATOM     34  C   UNK d   1     -20.164  -2.354 -28.433  0.00  0.00     0.014 A 
ENDBRANCH   1  28
TORSDOF 8
ENDMDL
