MODEL 1
REMARK VINA RESULT:    -8.459      0.000      0.000
REMARK INTER + INTRA:         -11.655
REMARK INTER:                 -10.932
REMARK INTRA:                  -0.723
REMARK UNBOUND:                -0.723
REMARK  5 active torsions:
REMARK  status: ('A' for Active; 'I' for Inactive)
REMARK    1  A    between atoms: S_1  and  N_4 
REMARK    2  A    between atoms: S_1  and  C_22 
REMARK    3  A    between atoms: N_7  and  C_10 
REMARK    4  A    between atoms: C_10  and  C_11 
REMARK    5  A    between atoms: C_11  and  N_12 
ROOT
ATOM      1  N   UNK d   1     -21.530  -2.187 -34.136  0.00  0.00    -0.203 NA
ATOM      2  C   UNK d   1     -22.129  -3.289 -33.477  0.00  0.00     0.138 C 
ATOM      3  C   UNK d   1     -21.566  -3.689 -32.142  0.00  0.00     0.288 C 
ATOM      4  N   UNK d   1     -21.087  -2.528 -31.469  0.00  0.00     0.092 N 
ATOM      5  C   UNK d   1     -19.952  -2.045 -32.256  0.00  0.00     0.288 C 
ATOM      6  C   UNK d   1     -20.469  -1.496 -33.532  0.00  0.00     0.138 C 
ENDROOT
BRANCH   4   7
ATOM      7  C   UNK d   1     -20.725  -2.721 -30.107  0.00  0.00     0.294 C 
BRANCH   7   8
ATOM      8  C   UNK d   1     -19.272  -2.483 -29.875  0.00  0.00     0.186 C 
BRANCH   8   9
ATOM      9  N   UNK d   1     -19.029  -1.606 -28.749  0.00  0.00    -0.216 N 
ATOM     10  N   UNK d   1     -18.756  -1.960 -27.494  0.00  0.00    -0.149 NA
ATOM     11  C   UNK d   1     -18.577  -0.873 -26.730  0.00  0.00     0.158 A 
ATOM     12  N   UNK d   1     -18.741   0.196 -27.520  0.00  0.00    -0.256 N 
ATOM     13  C   UNK d   1     -18.281  -0.649 -25.398  0.00  0.00     0.053 A 
ATOM     14  C   UNK d   1     -18.623   1.454 -27.032  0.00  0.00     0.103 A 
ATOM     15  C   UNK d   1     -19.022  -0.272 -28.771  0.00  0.00     0.350 A 
ATOM     16  C   UNK d   1     -18.329   1.703 -25.711  0.00  0.00     0.018 A 
ATOM     17  C   UNK d   1     -18.154   0.619 -24.874  0.00  0.00     0.005 A 
ATOM     18  O   UNK d   1     -19.229   0.508 -29.730  0.00  0.00    -0.244 OA
ENDBRANCH   8   9
ENDBRANCH   7   8
ENDBRANCH   4   7
BRANCH   1  19
ATOM     19  S   UNK d   1     -22.758  -1.076 -34.614  0.00  0.00     0.250 S 
ATOM     20  O   UNK d   1     -24.076  -1.544 -34.038  0.00  0.00    -0.205 OA
ATOM     21  O   UNK d   1     -22.497   0.290 -34.100  0.00  0.00    -0.205 OA
BRANCH  19  22
ATOM     22  C   UNK d   1     -22.847  -0.987 -36.379  0.00  0.00     0.116 A 
ATOM     23  S   UNK d   1     -21.948  -0.022 -37.460  0.00  0.00    -0.070 SA
ATOM     24  C   UNK d   1     -22.637  -0.538 -38.929  0.00  0.00     0.052 A 
ATOM     25  C   UNK d   1     -23.564  -1.463 -38.529  0.00  0.00     0.028 A 
ATOM     26 Br   UNK d   1     -22.236   0.021 -40.729  0.00  0.00    -0.043 Br
ATOM     27  C   UNK d   1     -23.672  -1.695 -37.215  0.00  0.00     0.034 A 
ENDBRANCH  19  22
ENDBRANCH   1  19
TORSDOF 5
ENDMDL
