/Users/jonathanwahrer/Desktop/Msc/3_Semester/Drug_Design_Praktikum/waehrer_HTS_screening/HTS_experiment/out/docking_results/vina_output/5l4q/2072_docked.pdbqt
 OpenBabel03212219163D

 27 30  0  0  0  0  0  0  0  0999 V2000
  -21.5300   -2.1870  -34.1360 N   0  0  0  0  0  0  0  0  0  0  0  0
  -22.1290   -3.2890  -33.4770 C   0  0  0  0  0  2  0  0  0  0  0  0
  -21.5660   -3.6890  -32.1420 C   0  0  0  0  0  2  0  0  0  0  0  0
  -21.0870   -2.5280  -31.4690 N   0  0  0  0  0  0  0  0  0  0  0  0
  -19.9520   -2.0450  -32.2560 C   0  0  0  0  0  2  0  0  0  0  0  0
  -20.4690   -1.4960  -33.5320 C   0  0  0  0  0  2  0  0  0  0  0  0
  -20.7250   -2.7210  -30.1070 C   0  0  0  0  0  2  0  0  0  0  0  0
  -19.2720   -2.4830  -29.8750 C   0  0  0  0  0  2  0  0  0  0  0  0
  -19.0290   -1.6060  -28.7490 N   0  0  0  0  0  0  0  0  0  0  0  0
  -18.7560   -1.9600  -27.4940 N   0  0  0  0  0  0  0  0  0  0  0  0
  -18.5770   -0.8730  -26.7300 C   0  0  0  0  0  0  0  0  0  0  0  0
  -18.7410    0.1960  -27.5200 N   0  0  0  0  0  0  0  0  0  0  0  0
  -18.2810   -0.6490  -25.3980 C   0  0  0  0  0  3  0  0  0  0  0  0
  -18.6230    1.4540  -27.0320 C   0  0  0  0  0  3  0  0  0  0  0  0
  -19.0220   -0.2720  -28.7710 C   0  0  0  0  0  0  0  0  0  0  0  0
  -18.3290    1.7030  -25.7110 C   0  0  0  0  0  3  0  0  0  0  0  0
  -18.1540    0.6190  -24.8740 C   0  0  0  0  0  3  0  0  0  0  0  0
  -19.2290    0.5080  -29.7300 O   0  0  0  0  0  0  0  0  0  0  0  0
  -22.7580   -1.0760  -34.6140 S   0  0  0  0  0  0  0  0  0  0  0  0
  -24.0760   -1.5440  -34.0380 O   0  0  0  0  0  0  0  0  0  0  0  0
  -22.4970    0.2900  -34.1000 O   0  0  0  0  0  0  0  0  0  0  0  0
  -22.8470   -0.9870  -36.3790 C   0  0  0  0  0  0  0  0  0  0  0  0
  -21.9480   -0.0220  -37.4600 S   0  0  0  0  0  0  0  0  0  0  0  0
  -22.6370   -0.5380  -38.9290 C   0  0  0  0  0  0  0  0  0  0  0  0
  -23.5640   -1.4630  -38.5290 C   0  0  0  0  0  3  0  0  0  0  0  0
  -22.2360    0.0210  -40.7290 Br  0  0  0  0  0  0  0  0  0  0  0  0
  -23.6720   -1.6950  -37.2150 C   0  0  0  0  0  3  0  0  0  0  0  0
  1  6  1  0  0  0  0
  1  2  1  0  0  0  0
  2  3  1  0  0  0  0
  3  4  1  0  0  0  0
  4  7  1  0  0  0  0
  5  4  1  0  0  0  0
  6  5  1  0  0  0  0
  7  8  1  0  0  0  0
  8  9  1  0  0  0  0
  9 10  1  0  0  0  0
 10 11  2  0  0  0  0
 11 13  1  0  0  0  0
 12 14  1  0  0  0  0
 12 11  1  0  0  0  0
 13 17  2  0  0  0  0
 14 16  2  0  0  0  0
 15  9  1  0  0  0  0
 15 12  1  0  0  0  0
 16 17  1  0  0  0  0
 18 15  2  0  0  0  0
 19  1  1  0  0  0  0
 19 21  2  0  0  0  0
 19 20  2  0  0  0  0
 22 19  1  0  0  0  0
 23 22  1  0  0  0  0
 24 25  2  0  0  0  0
 24 23  1  0  0  0  0
 25 27  1  0  0  0  0
 26 24  1  0  0  0  0
 27 22  2  0  0  0  0
M  END
>  <Pose>
1

>  <Score>
-8.459

$$$$
