MODEL 1
REMARK VINA RESULT:    -9.565      0.000      0.000
REMARK INTER + INTRA:         -13.618
REMARK INTER:                 -12.641
REMARK INTRA:                  -0.977
REMARK UNBOUND:                -0.977
REMARK  6 active torsions:
REMARK  status: ('A' for Active; 'I' for Inactive)
REMARK    1  A    between atoms: C_5  and  C_8 
REMARK    2  A    between atoms: C_12  and  C_17 
REMARK    3  A    between atoms: C_17  and  N_18 
REMARK    4  A    between atoms: N_21  and  C_24 
REMARK    5  A    between atoms: C_24  and  C_25 
REMARK    6  A    between atoms: C_25  and  O_26 
ROOT
ATOM      1  C   UNK d   1     -19.781  -1.159 -29.010  0.00  0.00     0.051 A 
ATOM      2  C   UNK d   1     -20.364  -2.402 -29.103  0.00  0.00     0.032 A 
ATOM      3  C   UNK d   1     -20.844  -2.829 -30.349  0.00  0.00    -0.000 A 
ATOM      4  C   UNK d   1     -20.746  -2.032 -31.468  0.00  0.00     0.100 A 
ATOM      5  C   UNK d   1     -21.190  -2.370 -32.747  0.00  0.00     0.039 A 
ATOM      6  C   UNK d   1     -21.769  -3.662 -32.817  0.00  0.00     0.118 A 
ATOM      7  C   UNK d   1     -21.882  -4.500 -31.711  0.00  0.00     0.041 A 
ATOM      8  C   UNK d   1     -21.412  -4.071 -30.480  0.00  0.00     0.017 A 
ATOM      9  O   UNK d   1     -22.269  -4.196 -33.988  0.00  0.00    -0.191 OA
ATOM     10  O   UNK d   1     -20.200  -0.891 -31.335  0.00  0.00    -0.273 OA
ATOM     11  C   UNK d   1     -19.712  -0.398 -30.194  0.00  0.00     0.299 A 
ATOM     12  O   UNK d   1     -19.199   0.726 -30.137  0.00  0.00    -0.259 OA
ENDROOT
BRANCH   5  13
ATOM     13  C   UNK d   1     -20.980  -1.675 -33.968  0.00  0.00     0.279 C 
BRANCH  13  14
ATOM     14  N   UNK d   1     -22.026  -1.256 -34.865  0.00  0.00    -0.064 N 
ATOM     15  C   UNK d   1     -22.824  -0.136 -34.291  0.00  0.00     0.265 C 
ATOM     16  C   UNK d   1     -21.924   0.821 -33.594  0.00  0.00     0.300 C 
ATOM     17  N   UNK d   1     -20.918   1.441 -34.426  0.00  0.00     0.093 N 
ATOM     18  C   UNK d   1     -20.522   0.625 -35.524  0.00  0.00     0.300 C 
ATOM     19  C   UNK d   1     -21.359  -0.482 -35.962  0.00  0.00     0.265 C 
ATOM     20  H   UNK d   1     -22.591  -1.927 -35.333  0.00  0.00     0.280 HD
BRANCH  17  21
ATOM     21  C   UNK d   1     -19.746   1.810 -33.617  0.00  0.00     0.298 C 
BRANCH  21  22
ATOM     22  C   UNK d   1     -18.512   1.035 -34.016  0.00  0.00     0.194 C 
BRANCH  22  23
ATOM     23  O   UNK d   1     -17.907   0.401 -32.940  0.00  0.00    -0.399 OA
ATOM     24  H   UNK d   1     -18.471  -0.397 -32.689  0.00  0.00     0.209 HD
ENDBRANCH  22  23
ENDBRANCH  21  22
ENDBRANCH  17  21
ENDBRANCH  13  14
ENDBRANCH   5  13
BRANCH   1  25
ATOM     25  C   UNK d   1     -19.148  -0.692 -27.760  0.00  0.00    -0.020 A 
ATOM     26  C   UNK d   1     -19.156   0.696 -27.528  0.00  0.00     0.014 A 
ATOM     27  C   UNK d   1     -18.629   1.204 -26.354  0.00  0.00     0.024 A 
ATOM     28  C   UNK d   1     -18.078   0.382 -25.377  0.00  0.00     0.034 A 
ATOM     29 Cl   UNK d   1     -17.478   1.007 -23.821  0.00  0.00    -0.084 Cl
ATOM     30  C   UNK d   1     -18.069  -0.981 -25.616  0.00  0.00     0.024 A 
ATOM     31  C   UNK d   1     -18.601  -1.464 -26.798  0.00  0.00     0.014 A 
ENDBRANCH   1  25
TORSDOF 6
ENDMDL
