MODEL 1
REMARK VINA RESULT:    -7.069      0.000      0.000
REMARK INTER + INTRA:         -11.203
REMARK INTER:                  -9.549
REMARK INTRA:                  -1.655
REMARK UNBOUND:                -1.655
REMARK  6 active torsions:
REMARK  status: ('A' for Active; 'I' for Inactive)
REMARK    1  A    between atoms: C_5  and  C_8 
REMARK    2  A    between atoms: C_8  and  N_9 
REMARK    3  A    between atoms: C_13  and  N_14 
REMARK    4  A    between atoms: N_17  and  C_20 
REMARK    5  A    between atoms: C_20  and  C_21 
REMARK    6  A    between atoms: C_21  and  O_23 
ROOT
ATOM      1  N   UNK d   1     -19.486   0.345 -34.621  0.00  0.00    -0.168 N 
ATOM      2  C   UNK d   1     -19.742  -0.546 -33.609  0.00  0.00     0.167 A 
ATOM      3  C   UNK d   1     -20.887  -1.259 -33.901  0.00  0.00     0.185 A 
ATOM      4  N   UNK d   1     -21.305  -0.787 -35.079  0.00  0.00    -0.044 NA
ATOM      5  C   UNK d   1     -20.456   0.193 -35.523  0.00  0.00     0.707 A 
ATOM      6  N   UNK d   1     -21.356  -2.196 -33.054  0.00  0.00    -0.286 N 
ATOM      7  C   UNK d   1     -20.681  -2.418 -31.917  0.00  0.00     0.330 A 
ATOM      8  O   UNK d   1     -21.128  -3.295 -31.135  0.00  0.00    -0.246 OA
ATOM      9  N   UNK d   1     -19.570  -1.747 -31.599  0.00  0.00    -0.273 N 
ATOM     10  C   UNK d   1     -19.064  -0.790 -32.433  0.00  0.00     0.280 A 
ATOM     11  O   UNK d   1     -18.021  -0.175 -32.104  0.00  0.00    -0.265 OA
ATOM     12  C   UNK d   1     -22.561  -2.927 -33.402  0.00  0.00     0.163 C 
ATOM     13  H   UNK d   1     -19.054  -1.932 -30.701  0.00  0.00     0.173 HD
ENDROOT
BRANCH   5  14
ATOM     14  N   UNK d   1     -20.721   0.924 -36.692  0.00  0.00    -0.212 N 
ATOM     15  C   UNK d   1     -21.501   2.094 -36.880  0.00  0.00     0.160 C 
ATOM     16  C   UNK d   1     -22.086   2.180 -38.294  0.00  0.00     0.137 C 
ATOM     17  N   UNK d   1     -22.237   0.955 -38.965  0.00  0.00    -0.400 N 
ATOM     18  C   UNK d   1     -21.145   0.064 -38.945  0.00  0.00     0.137 C 
ATOM     19  C   UNK d   1     -20.077   0.427 -37.939  0.00  0.00     0.160 C 
BRANCH  17  20
ATOM     20  C   UNK d   1     -23.519   0.459 -39.253  0.00  0.00     0.228 C 
BRANCH  20  21
ATOM     21  C   UNK d   1     -24.458   0.313 -38.131  0.00  0.00     0.276 C 
ATOM     22  O   UNK d   1     -25.572   0.901 -38.095  0.00  0.00    -0.263 OA
BRANCH  21  23
ATOM     23  O   UNK d   1     -24.128  -0.494 -37.064  0.00  0.00    -0.325 OA
ATOM     24  C   UNK d   1     -23.864  -1.863 -37.204  0.00  0.00     0.213 C 
ENDBRANCH  21  23
ENDBRANCH  20  21
ENDBRANCH  17  20
ENDBRANCH   5  14
BRANCH   1  25
ATOM     25  C   UNK d   1     -18.346   1.226 -34.649  0.00  0.00     0.186 C 
BRANCH  25  26
ATOM     26  C   UNK d   1     -18.776   2.682 -34.638  0.00  0.00    -0.039 A 
ATOM     27  C   UNK d   1     -18.324   3.470 -35.655  0.00  0.00     0.010 A 
ATOM     28  C   UNK d   1     -18.723   4.807 -35.704  0.00  0.00     0.019 A 
ATOM     29  C   UNK d   1     -19.561   5.317 -34.737  0.00  0.00     0.011 A 
ATOM     30 Br   UNK d   1     -20.121   7.140 -34.784  0.00  0.00    -0.051 Br
ATOM     31  C   UNK d   1     -20.000   4.487 -33.719  0.00  0.00     0.019 A 
ATOM     32  C   UNK d   1     -19.607   3.172 -33.673  0.00  0.00     0.010 A 
ENDBRANCH  25  26
ENDBRANCH   1  25
TORSDOF 6
ENDMDL
