/Users/jonathanwahrer/Desktop/Msc/3_Semester/Drug_Design_Praktikum/waehrer_HTS_screening/HTS_experiment/out/docking_results/vina_output/5l4q/2087_docked.pdbqt
 OpenBabel03212219163D

 32 35  0  0  0  0  0  0  0  0999 V2000
  -19.4860    0.3450  -34.6210 N   0  0  0  0  0  0  0  0  0  0  0  0
  -19.7420   -0.5460  -33.6090 C   0  0  0  0  0  0  0  0  0  0  0  0
  -20.8870   -1.2590  -33.9010 C   0  0  0  0  0  0  0  0  0  0  0  0
  -21.3050   -0.7870  -35.0790 N   0  0  0  0  0  0  0  0  0  0  0  0
  -20.4560    0.1930  -35.5230 C   0  0  0  0  0  0  0  0  0  0  0  0
  -21.3560   -2.1960  -33.0540 N   0  0  0  0  0  0  0  0  0  0  0  0
  -20.6810   -2.4180  -31.9170 C   0  0  0  0  0  0  0  0  0  0  0  0
  -21.1280   -3.2950  -31.1350 O   0  0  0  0  0  0  0  0  0  0  0  0
  -19.5700   -1.7470  -31.5990 N   0  0  0  0  0  0  0  0  0  0  0  0
  -19.0640   -0.7900  -32.4330 C   0  0  0  0  0  0  0  0  0  0  0  0
  -18.0210   -0.1750  -32.1040 O   0  0  0  0  0  0  0  0  0  0  0  0
  -22.5610   -2.9270  -33.4020 C   0  0  0  0  0  1  0  0  0  0  0  0
  -19.0540   -1.9320  -30.7010 H   0  0  0  0  0  0  0  0  0  0  0  0
  -20.7210    0.9240  -36.6920 N   0  0  0  0  0  0  0  0  0  0  0  0
  -21.5010    2.0940  -36.8800 C   0  0  0  0  0  2  0  0  0  0  0  0
  -22.0860    2.1800  -38.2940 C   0  0  0  0  0  2  0  0  0  0  0  0
  -22.2370    0.9550  -38.9650 N   0  0  0  0  0  0  0  0  0  0  0  0
  -21.1450    0.0640  -38.9450 C   0  0  0  0  0  2  0  0  0  0  0  0
  -20.0770    0.4270  -37.9390 C   0  0  0  0  0  2  0  0  0  0  0  0
  -23.5190    0.4590  -39.2530 C   0  0  0  0  0  2  0  0  0  0  0  0
  -24.4580    0.3130  -38.1310 C   0  0  0  0  0  0  0  0  0  0  0  0
  -25.5720    0.9010  -38.0950 O   0  0  0  0  0  0  0  0  0  0  0  0
  -24.1280   -0.4940  -37.0640 O   0  0  0  0  0  0  0  0  0  0  0  0
  -23.8640   -1.8630  -37.2040 C   0  0  0  0  0  1  0  0  0  0  0  0
  -18.3460    1.2260  -34.6490 C   0  0  0  0  0  2  0  0  0  0  0  0
  -18.7760    2.6820  -34.6380 C   0  0  0  0  0  0  0  0  0  0  0  0
  -18.3240    3.4700  -35.6550 C   0  0  0  0  0  3  0  0  0  0  0  0
  -18.7230    4.8070  -35.7040 C   0  0  0  0  0  3  0  0  0  0  0  0
  -19.5610    5.3170  -34.7370 C   0  0  0  0  0  0  0  0  0  0  0  0
  -20.1210    7.1400  -34.7840 Br  0  0  0  0  0  0  0  0  0  0  0  0
  -20.0000    4.4870  -33.7190 C   0  0  0  0  0  3  0  0  0  0  0  0
  -19.6070    3.1720  -33.6730 C   0  0  0  0  0  3  0  0  0  0  0  0
  1  2  1  0  0  0  0
  2 10  1  0  0  0  0
  3  2  2  0  0  0  0
  3  6  1  0  0  0  0
  4  3  1  0  0  0  0
  5  4  2  0  0  0  0
  5  1  1  0  0  0  0
  6  7  1  0  0  0  0
  7  9  1  0  0  0  0
  7  8  2  0  0  0  0
  9 13  1  0  0  0  0
 10 11  2  0  0  0  0
 10  9  1  0  0  0  0
 12  6  1  0  0  0  0
 14  5  1  0  0  0  0
 15 14  1  0  0  0  0
 16 15  1  0  0  0  0
 17 18  1  0  0  0  0
 17 16  1  0  0  0  0
 18 19  1  0  0  0  0
 19 14  1  0  0  0  0
 20 17  1  0  0  0  0
 20 21  1  0  0  0  0
 21 22  2  0  0  0  0
 21 23  1  0  0  0  0
 24 23  1  0  0  0  0
 25 26  1  0  0  0  0
 25  1  1  0  0  0  0
 26 32  1  0  0  0  0
 27 26  2  0  0  0  0
 28 27  1  0  0  0  0
 28 29  2  0  0  0  0
 29 31  1  0  0  0  0
 30 29  1  0  0  0  0
 31 32  2  0  0  0  0
M  END
>  <Pose>
1

>  <Score>
-7.069

$$$$
