MODEL 1
REMARK VINA RESULT:    -7.594      0.000      0.000
REMARK INTER + INTRA:          -9.824
REMARK INTER:                  -8.925
REMARK INTRA:                  -0.898
REMARK UNBOUND:                -0.898
REMARK  3 active torsions:
REMARK  status: ('A' for Active; 'I' for Inactive)
REMARK    1  A    between atoms: C_5  and  C_8 
REMARK    2  A    between atoms: C_8  and  N_9 
REMARK    3  A    between atoms: C_13  and  N_14 
ROOT
ATOM      1  N   UNK d   1     -22.242   0.495 -36.642  0.00  0.00    -0.168 N 
ATOM      2  C   UNK d   1     -22.619  -0.572 -37.362  0.00  0.00     0.167 A 
ATOM      3  C   UNK d   1     -22.144  -0.433 -38.648  0.00  0.00     0.185 A 
ATOM      4  N   UNK d   1     -21.491   0.718 -38.670  0.00  0.00    -0.044 NA
ATOM      5  C   UNK d   1     -21.532   1.305 -37.465  0.00  0.00     0.707 A 
ATOM      6  N   UNK d   1     -22.346  -1.351 -39.626  0.00  0.00    -0.286 N 
ATOM      7  C   UNK d   1     -23.047  -2.447 -39.294  0.00  0.00     0.330 A 
ATOM      8  O   UNK d   1     -23.226  -3.286 -40.213  0.00  0.00    -0.246 OA
ATOM      9  N   UNK d   1     -23.534  -2.642 -38.057  0.00  0.00    -0.273 N 
ATOM     10  C   UNK d   1     -23.340  -1.738 -37.079  0.00  0.00     0.280 A 
ATOM     11  O   UNK d   1     -23.772  -1.888 -35.928  0.00  0.00    -0.265 OA
ATOM     12  C   UNK d   1     -21.811  -1.117 -40.951  0.00  0.00     0.163 C 
ATOM     13  H   UNK d   1     -24.075  -3.498 -37.808  0.00  0.00     0.173 HD
ENDROOT
BRANCH   1  14
ATOM     14  C   UNK d   1     -22.541   0.747 -35.254  0.00  0.00     0.186 C 
BRANCH  14  15
ATOM     15  C   UNK d   1     -21.538   0.398 -34.268  0.00  0.00    -0.039 A 
ATOM     16  C   UNK d   1     -20.525   1.192 -33.827  0.00  0.00     0.010 A 
ATOM     17  C   UNK d   1     -19.617   0.806 -32.844  0.00  0.00     0.019 A 
ATOM     18  C   UNK d   1     -19.736  -0.456 -32.270  0.00  0.00     0.011 A 
ATOM     19 Br   UNK d   1     -18.546  -1.060 -30.910  0.00  0.00    -0.051 Br
ATOM     20  C   UNK d   1     -20.746  -1.293 -32.685  0.00  0.00     0.019 A 
ATOM     21  C   UNK d   1     -21.619  -0.869 -33.659  0.00  0.00     0.010 A 
ENDBRANCH  14  15
ENDBRANCH   1  14
BRANCH   5  22
ATOM     22  N   UNK d   1     -20.943   2.560 -37.099  0.00  0.00    -0.213 N 
ATOM     23  C   UNK d   1     -21.807   3.719 -37.042  0.00  0.00     0.160 C 
ATOM     24  C   UNK d   1     -21.353   4.690 -38.122  0.00  0.00     0.136 C 
ATOM     25  N   UNK d   1     -19.991   4.505 -38.498  0.00  0.00    -0.414 N 
ATOM     26  C   UNK d   1     -19.116   4.034 -37.476  0.00  0.00     0.136 C 
ATOM     27  C   UNK d   1     -19.728   4.078 -39.820  0.00  0.00     0.143 C 
ATOM     28  C   UNK d   1     -19.551   2.760 -36.797  0.00  0.00     0.160 C 
ENDBRANCH   5  22
TORSDOF 3
ENDMDL
