MODEL 1
REMARK VINA RESULT:    -7.868      0.000      0.000
REMARK INTER + INTRA:          -8.098
REMARK INTER:                  -8.098
REMARK INTRA:                   0.000
REMARK UNBOUND:                 0.000
REMARK  1 active torsions:
REMARK  status: ('A' for Active; 'I' for Inactive)
REMARK    1  A    between atoms: C_12  and  N_16 
ROOT
ATOM      1 Cl   UNK d   1     -21.917   3.381 -38.184  0.00  0.00    -0.082 Cl
ATOM      2  C   UNK d   1     -21.048   2.019 -37.509  0.00  0.00     0.061 A 
ATOM      3  C   UNK d   1     -21.462   1.435 -36.311  0.00  0.00     0.065 A 
ATOM      4  C   UNK d   1     -20.814   0.374 -35.753  0.00  0.00    -0.002 A 
ATOM      5  C   UNK d   1     -19.708  -0.108 -36.440  0.00  0.00     0.011 A 
ATOM      6  C   UNK d   1     -19.284   0.454 -37.624  0.00  0.00     0.002 A 
ATOM      7  C   UNK d   1     -19.952   1.526 -38.172  0.00  0.00     0.026 A 
ATOM      8  C   UNK d   1     -21.498  -0.002 -34.498  0.00  0.00     0.146 A 
ATOM      9  C   UNK d   1     -20.570   0.181 -33.324  0.00  0.00     0.071 A 
ATOM     10  C   UNK d   1     -20.278  -0.772 -32.483  0.00  0.00     0.060 A 
ATOM     11  N   UNK d   1     -20.824  -2.083 -32.614  0.00  0.00    -0.342 N 
ATOM     12  C   UNK d   1     -21.705  -2.341 -33.692  0.00  0.00     0.118 A 
ATOM     13  C   UNK d   1     -22.007  -1.389 -34.544  0.00  0.00     0.093 A 
ATOM     14  C   UNK d   1     -22.918  -1.698 -35.638  0.00  0.00     0.101 C 
ATOM     15  N   UNK d   1     -23.637  -1.929 -36.514  0.00  0.00    -0.191 NA
ATOM     16  C   UNK d   1     -19.348  -0.243 -31.465  0.00  0.00     0.106 A 
ATOM     17  O   UNK d   1     -19.139   1.074 -31.796  0.00  0.00    -0.301 OA
ATOM     18  C   UNK d   1     -19.861   1.390 -32.923  0.00  0.00     0.294 A 
ATOM     19  O   UNK d   1     -19.921   2.516 -33.530  0.00  0.00    -0.259 OA
ATOM     20  C   UNK d   1     -18.094  -1.088 -31.457  0.00  0.00     0.053 C 
ATOM     21  C   UNK d   1     -19.944  -0.299 -30.070  0.00  0.00     0.053 C 
ATOM     22  C   UNK d   1     -22.619   0.961 -34.388  0.00  0.00     0.246 A 
ATOM     23  O   UNK d   1     -23.489   1.015 -33.447  0.00  0.00    -0.271 OA
ATOM     24  N   UNK d   1     -22.564   1.818 -35.506  0.00  0.00    -0.324 N 
ATOM     25  H   UNK d   1     -20.594  -2.849 -31.946  0.00  0.00     0.167 HD
ATOM     26  H   UNK d   1     -23.257   2.608 -35.680  0.00  0.00     0.169 HD
ENDROOT
BRANCH  12  27
ATOM     27  N   UNK d   1     -22.293  -3.631 -33.889  0.00  0.00    -0.384 N 
ATOM     28  H   UNK d   1     -23.281  -3.723 -34.160  0.00  0.00     0.157 HD
ATOM     29  H   UNK d   1     -21.706  -4.462 -33.752  0.00  0.00     0.157 HD
ENDBRANCH  12  27
TORSDOF 1
ENDMDL
