MODEL 1
REMARK VINA RESULT:    -8.105      0.000      0.000
REMARK INTER + INTRA:          -8.816
REMARK INTER:                  -8.579
REMARK INTRA:                  -0.237
REMARK UNBOUND:                -0.237
REMARK  1 active torsions:
REMARK  status: ('A' for Active; 'I' for Inactive)
REMARK    1  A    between atoms: C_5  and  N_8 
ROOT
ATOM      1  N   UNK d   1     -20.527  -2.529 -31.628  0.00  0.00    -0.250 N 
ATOM      2  C   UNK d   1     -21.499  -3.289 -32.361  0.00  0.00     0.263 C 
ATOM      3  O   UNK d   1     -22.328  -4.098 -31.875  0.00  0.00    -0.270 OA
ATOM      4  C   UNK d   1     -21.390  -2.986 -33.807  0.00  0.00     0.259 C 
ATOM      5  O   UNK d   1     -22.613  -2.647 -34.375  0.00  0.00    -0.266 OA
ATOM      6  N   UNK d   1     -23.004  -1.497 -33.851  0.00  0.00    -0.288 N 
ATOM      7  C   UNK d   1     -21.918  -0.761 -33.373  0.00  0.00     0.125 C 
ATOM      8  C   UNK d   1     -20.713  -1.621 -33.760  0.00  0.00     0.144 C 
ATOM      9  C   UNK d   1     -19.792  -1.802 -32.612  0.00  0.00     0.240 C 
ATOM     10  O   UNK d   1     -18.593  -1.418 -32.469  0.00  0.00    -0.272 OA
ATOM     11  C   UNK d   1     -21.767   0.646 -33.770  0.00  0.00     0.028 C 
ATOM     12  C   UNK d   1     -22.821   1.247 -34.614  0.00  0.00     0.004 C 
ATOM     13  C   UNK d   1     -24.153   0.635 -34.240  0.00  0.00     0.022 C 
ATOM     14  C   UNK d   1     -24.041  -0.839 -34.531  0.00  0.00     0.150 C 
ENDROOT
BRANCH   1  15
ATOM     15  C   UNK d   1     -20.322  -2.492 -30.215  0.00  0.00     0.045 A 
ATOM     16  C   UNK d   1     -20.226  -1.320 -29.495  0.00  0.00     0.032 A 
ATOM     17  C   UNK d   1     -20.027  -1.294 -28.125  0.00  0.00     0.026 A 
ATOM     18  C   UNK d   1     -19.915  -2.473 -27.417  0.00  0.00     0.034 A 
ATOM     19 Cl   UNK d   1     -19.663  -2.453 -25.681  0.00  0.00    -0.084 Cl
ATOM     20  C   UNK d   1     -20.009  -3.652 -28.127  0.00  0.00     0.026 A 
ATOM     21  C   UNK d   1     -20.208  -3.672 -29.494  0.00  0.00     0.032 A 
ENDBRANCH   1  15
TORSDOF 1
ENDMDL
