MODEL 1
REMARK VINA RESULT:    -8.246      0.000      0.000
REMARK INTER + INTRA:         -10.529
REMARK INTER:                  -9.452
REMARK INTRA:                  -1.077
REMARK UNBOUND:                -1.077
REMARK  3 active torsions:
REMARK  status: ('A' for Active; 'I' for Inactive)
REMARK    1  A    between atoms: C_7  and  C_9 
REMARK       I    between atoms: C_9  and  N_11 
REMARK    2  A    between atoms: C_14  and  N_19 
REMARK    3  A    between atoms: C_15  and  O_18 
REMARK       I    between atoms: N_22  and  C_25 
ROOT
ATOM      1  C   UNK d   1     -23.686  -0.373 -36.149  0.00  0.00     0.203 C 
ATOM      2  O   UNK d   1     -24.075   0.862 -35.807  0.00  0.00    -0.170 OA
ATOM      3  N   UNK d   1     -24.077  -0.733 -37.421  0.00  0.00    -0.358 N 
ATOM      4  C   UNK d   1     -24.800   0.378 -38.102  0.00  0.00     0.127 C 
ATOM      5  C   UNK d   1     -23.796   1.237 -38.846  0.00  0.00     0.058 C 
ATOM      6  C   UNK d   1     -22.585   0.418 -39.082  0.00  0.00     0.253 C 
ATOM      7  C   UNK d   1     -22.904  -0.803 -39.883  0.00  0.00     0.153 C 
ATOM      8  C   UNK d   1     -22.629  -2.001 -38.957  0.00  0.00     0.054 C 
ATOM      9  C   UNK d   1     -23.837  -2.008 -38.003  0.00  0.00     0.127 C 
ENDROOT
BRANCH   1  10
ATOM     10  C   UNK d   1     -22.949  -1.039 -35.109  0.00  0.00     0.088 A 
ATOM     11  N   UNK d   1     -22.908  -2.327 -34.763  0.00  0.00    -0.352 N 
ATOM     12  C   UNK d   1     -22.093  -2.515 -33.681  0.00  0.00     0.043 A 
ATOM     13  H   UNK d   1     -23.380  -3.125 -35.207  0.00  0.00     0.166 HD
ATOM     14  C   UNK d   1     -21.604  -1.303 -33.336  0.00  0.00    -0.005 A 
ATOM     15  C   UNK d   1     -21.734  -3.623 -32.961  0.00  0.00     0.032 A 
ATOM     16  C   UNK d   1     -20.732  -1.126 -32.257  0.00  0.00     0.037 A 
ATOM     17  C   UNK d   1     -22.122  -0.367 -34.210  0.00  0.00     0.048 A 
ATOM     18  C   UNK d   1     -20.386  -2.234 -31.553  0.00  0.00     0.035 A 
ATOM     19 Cl   UNK d   1     -19.289  -2.050 -30.182  0.00  0.00    -0.084 Cl
ATOM     20  C   UNK d   1     -20.871  -3.482 -31.885  0.00  0.00     0.026 A 
ENDBRANCH   1  10
BRANCH   6  21
ATOM     21  N   UNK d   1     -21.424   1.066 -39.605  0.00  0.00     0.098 N 
ATOM     22  C   UNK d   1     -20.202   0.796 -38.890  0.00  0.00     0.293 C 
ATOM     23  C   UNK d   1     -20.245   1.316 -37.503  0.00  0.00     0.156 C 
ATOM     24  N   UNK d   1     -20.552   2.747 -37.603  0.00  0.00    -0.349 N 
ATOM     25  C   UNK d   1     -20.693   3.266 -38.939  0.00  0.00     0.156 C 
ATOM     26  C   UNK d   1     -20.672   3.536 -36.419  0.00  0.00     0.215 C 
ATOM     27  C   UNK d   1     -21.602   2.475 -39.831  0.00  0.00     0.293 C 
ATOM     28  O   UNK d   1     -20.944   4.740 -36.514  0.00  0.00    -0.274 OA
ATOM     29  C   UNK d   1     -20.461   2.870 -35.095  0.00  0.00     0.117 C 
ENDBRANCH   6  21
BRANCH   7  30
ATOM     30  O   UNK d   1     -22.181  -0.907 -41.070  0.00  0.00    -0.393 OA
ATOM     31  H   UNK d   1     -22.788  -0.536 -41.789  0.00  0.00     0.210 HD
ENDBRANCH   7  30
TORSDOF 3
ENDMDL
