MODEL 1
REMARK VINA RESULT:    -8.586      0.000      0.000
REMARK INTER + INTRA:         -12.307
REMARK INTER:                 -11.597
REMARK INTRA:                  -0.710
REMARK UNBOUND:                -0.710
REMARK  6 active torsions:
REMARK  status: ('A' for Active; 'I' for Inactive)
REMARK    1  A    between atoms: N_11  and  C_12 
REMARK    2  A    between atoms: C_12  and  C_13 
REMARK    3  A    between atoms: C_16  and  C_18 
REMARK       I    between atoms: C_18  and  N_20 
REMARK    4  A    between atoms: N_20  and  C_21 
REMARK    5  A    between atoms: C_21  and  C_22 
REMARK    6  A    between atoms: C_22  and  N_23 
ROOT
ATOM      1  C   UNK d   1     -20.808  -1.968 -33.460  0.00  0.00     0.174 A 
ATOM      2  N   UNK d   1     -21.617  -3.041 -33.417  0.00  0.00    -0.109 NA
ATOM      3  O   UNK d   1     -22.702  -2.823 -34.105  0.00  0.00    -0.186 OA
ATOM      4  C   UNK d   1     -22.608  -1.605 -34.600  0.00  0.00     0.264 A 
ATOM      5  N   UNK d   1     -21.449  -1.065 -34.213  0.00  0.00    -0.198 NA
ENDROOT
BRANCH   1   6
ATOM      6  C   UNK d   1     -19.470  -1.871 -32.816  0.00  0.00     0.217 C 
BRANCH   6   7
ATOM      7  N   UNK d   1     -19.579  -1.256 -31.525  0.00  0.00    -0.283 N 
ATOM      8  C   UNK d   1     -19.799  -1.800 -30.325  0.00  0.00     0.075 A 
ATOM      9  C   UNK d   1     -19.993  -3.112 -29.914  0.00  0.00     0.056 A 
ATOM     10  C   UNK d   1     -19.821  -0.793 -29.357  0.00  0.00     0.108 A 
ATOM     11  C   UNK d   1     -20.199  -3.356 -28.559  0.00  0.00     0.036 A 
ATOM     12 Cl   UNK d   1     -20.446  -5.014 -28.033  0.00  0.00    -0.084 Cl
ATOM     13  C   UNK d   1     -20.214  -2.335 -27.626  0.00  0.00     0.026 A 
ATOM     14  C   UNK d   1     -20.024  -1.050 -28.032  0.00  0.00     0.041 A 
ATOM     15  O   UNK d   1     -19.614   0.298 -30.028  0.00  0.00    -0.259 OA
ATOM     16  C   UNK d   1     -19.466   0.066 -31.307  0.00  0.00     0.373 A 
ATOM     17  O   UNK d   1     -19.254   0.968 -32.161  0.00  0.00    -0.237 OA
ENDBRANCH   6   7
ENDBRANCH   1   6
BRANCH   4  18
ATOM     18  C   UNK d   1     -23.696  -1.024 -35.457  0.00  0.00     0.297 C 
ATOM     19  O   UNK d   1     -24.288  -0.069 -34.844  0.00  0.00    -0.264 OA
ATOM     20  N   UNK d   1     -23.929  -1.513 -36.688  0.00  0.00    -0.352 N 
ATOM     21  H   UNK d   1     -24.892  -0.554 -36.877  0.00  0.00     0.162 HD
BRANCH  20  22
ATOM     22  C   UNK d   1     -24.181  -2.004 -37.955  0.00  0.00     0.142 C 
BRANCH  22  23
ATOM     23  C   UNK d   1     -22.972  -1.921 -38.893  0.00  0.00     0.136 C 
BRANCH  23  24
ATOM     24  N   UNK d   1     -22.979  -0.823 -39.777  0.00  0.00    -0.407 N 
ATOM     25  C   UNK d   1     -22.016  -0.978 -40.796  0.00  0.00     0.143 C 
ATOM     26  C   UNK d   1     -21.534   0.319 -41.355  0.00  0.00     0.187 C 
ATOM     27  O   UNK d   1     -22.600   1.169 -41.494  0.00  0.00    -0.388 OA
ATOM     28  C   UNK d   1     -23.162   1.567 -40.295  0.00  0.00     0.187 C 
ATOM     29  C   UNK d   1     -23.260   0.463 -39.284  0.00  0.00     0.143 C 
ENDBRANCH  23  24
ENDBRANCH  22  23
ENDBRANCH  20  22
ENDBRANCH   4  18
TORSDOF 6
ENDMDL
