MODEL 1
REMARK VINA RESULT:    -8.548      0.000      0.000
REMARK INTER + INTRA:          -9.575
REMARK INTER:                  -9.548
REMARK INTRA:                  -0.027
REMARK UNBOUND:                -0.027
REMARK  2 active torsions:
REMARK  status: ('A' for Active; 'I' for Inactive)
REMARK    1  A    between atoms: C_5  and  N_8 
REMARK    2  A    between atoms: C_12  and  C_21 
ROOT
ATOM      1  N   UNK d   1     -21.115  -1.015 -33.183  0.00  0.00    -0.252 N 
ATOM      2  C   UNK d   1     -22.122  -1.614 -33.985  0.00  0.00     0.239 C 
ATOM      3  O   UNK d   1     -22.938  -2.490 -33.594  0.00  0.00    -0.272 OA
ATOM      4  C   UNK d   1     -22.083  -1.057 -35.379  0.00  0.00     0.138 C 
ATOM      5  C   UNK d   1     -23.399  -0.467 -35.760  0.00  0.00     0.142 C 
ATOM      6  O   UNK d   1     -23.084   0.828 -36.242  0.00  0.00    -0.355 OA
ATOM      7  C   UNK d   1     -22.345   1.242 -35.104  0.00  0.00     0.089 C 
ATOM      8  C   UNK d   1     -21.230   0.204 -35.181  0.00  0.00     0.133 C 
ATOM      9  C   UNK d   1     -20.503   0.027 -33.933  0.00  0.00     0.239 C 
ATOM     10  O   UNK d   1     -19.496   0.701 -33.596  0.00  0.00    -0.272 OA
ATOM     11  C   UNK d   1     -23.318   0.939 -34.027  0.00  0.00     0.010 C 
ATOM     12  C   UNK d   1     -24.084  -0.072 -34.487  0.00  0.00     0.016 C 
ATOM     13  C   UNK d   1     -21.884   2.638 -35.158  0.00  0.00     0.051 C 
ENDROOT
BRANCH   1  14
ATOM     14  C   UNK d   1     -20.707  -1.326 -31.848  0.00  0.00     0.045 A 
ATOM     15  C   UNK d   1     -20.355  -2.591 -31.443  0.00  0.00     0.032 A 
ATOM     16  C   UNK d   1     -19.964  -2.881 -30.148  0.00  0.00     0.026 A 
ATOM     17  C   UNK d   1     -19.916  -1.883 -29.205  0.00  0.00     0.034 A 
ATOM     18 Cl   UNK d   1     -19.427  -2.208 -27.539  0.00  0.00    -0.084 Cl
ATOM     19  C   UNK d   1     -20.267  -0.610 -29.596  0.00  0.00     0.026 A 
ATOM     20  C   UNK d   1     -20.660  -0.320 -30.900  0.00  0.00     0.032 A 
ENDBRANCH   1  14
BRANCH   5  21
ATOM     21  C   UNK d   1     -24.238  -1.240 -36.683  0.00  0.00     0.298 C 
ATOM     22  O   UNK d   1     -24.554  -0.433 -37.778  0.00  0.00    -0.356 OA
ATOM     23  C   UNK d   1     -23.559  -0.572 -38.714  0.00  0.00     0.197 C 
ATOM     24  C   UNK d   1     -23.030  -1.953 -38.434  0.00  0.00     0.197 C 
ATOM     25  O   UNK d   1     -23.507  -2.313 -37.193  0.00  0.00    -0.356 OA
ENDBRANCH   5  21
TORSDOF 2
ENDMDL
