MODEL 1
REMARK VINA RESULT:   -10.700      0.000      0.000
REMARK INTER + INTRA:         -13.811
REMARK INTER:                 -13.202
REMARK INTRA:                  -0.609
REMARK UNBOUND:                -0.609
REMARK  4 active torsions:
REMARK  status: ('A' for Active; 'I' for Inactive)
REMARK    1  A    between atoms: C_5  and  N_8 
REMARK       I    between atoms: N_8  and  C_9 
REMARK       I    between atoms: C_9  and  N_11 
REMARK    2  A    between atoms: N_11  and  N_12 
REMARK       I    between atoms: N_12  and  C_13 
REMARK    3  A    between atoms: C_13  and  C_15 
REMARK    4  A    between atoms: N_17  and  C_26 
ROOT
ATOM      1  C   UNK d   1     -18.983  -0.857 -29.489  0.00  0.00     0.244 A 
ATOM      2  N   UNK d   1     -18.643   0.173 -28.753  0.00  0.00    -0.127 NA
ATOM      3  N   UNK d   1     -18.705  -0.095 -27.409  0.00  0.00    -0.058 N 
ATOM      4  C   UNK d   1     -19.132  -1.453 -27.304  0.00  0.00     0.756 A 
ATOM      5  N   UNK d   1     -19.358  -2.232 -26.287  0.00  0.00     0.020 NA
ATOM      6  N   UNK d   1     -19.789  -3.574 -26.453  0.00  0.00    -0.258 N 
ATOM      7  C   UNK d   1     -19.995  -4.139 -27.725  0.00  0.00     0.110 A 
ATOM      8  C   UNK d   1     -20.405  -5.389 -27.895  0.00  0.00     0.050 C 
ATOM      9  C   UNK d   1     -19.744  -3.283 -28.879  0.00  0.00     0.295 A 
ATOM     10  O   UNK d   1     -19.917  -3.759 -30.005  0.00  0.00    -0.265 OA
ATOM     11  N   UNK d   1     -19.312  -1.944 -28.631  0.00  0.00    -0.080 N 
ATOM     12  H   UNK d   1     -19.941  -4.112 -25.570  0.00  0.00     0.190 HD
ENDROOT
BRANCH   1  13
ATOM     13  C   UNK d   1     -19.010  -0.862 -30.938  0.00  0.00     0.308 C 
ATOM     14  N   UNK d   1     -20.119  -1.429 -31.610  0.00  0.00    -0.259 N 
ATOM     15  H   UNK d   1     -20.934  -1.820 -31.114  0.00  0.00     0.190 HD
ATOM     16  O   UNK d   1     -18.054  -0.373 -31.620  0.00  0.00    -0.262 OA
BRANCH  14  17
ATOM     17  N   UNK d   1     -20.114  -1.448 -33.000  0.00  0.00    -0.248 N 
ATOM     18  C   UNK d   1     -21.078  -0.883 -33.857  0.00  0.00     0.339 C 
ATOM     19  N   UNK d   1     -21.011  -0.939 -35.260  0.00  0.00    -0.308 N 
ATOM     20  O   UNK d   1     -22.062  -0.287 -33.342  0.00  0.00    -0.245 OA
ATOM     21  H   UNK d   1     -20.207  -1.435 -35.719  0.00  0.00     0.170 HD
ATOM     22  H   UNK d   1     -19.275  -1.966 -33.420  0.00  0.00     0.192 HD
BRANCH  19  23
ATOM     23  C   UNK d   1     -21.955  -0.364 -36.158  0.00  0.00     0.036 A 
ATOM     24  C   UNK d   1     -23.036  -1.107 -36.627  0.00  0.00     0.031 A 
ATOM     25  C   UNK d   1     -23.964  -0.578 -37.495  0.00  0.00     0.026 A 
ATOM     26  C   UNK d   1     -23.782   0.724 -37.884  0.00  0.00     0.034 A 
ATOM     27 Cl   UNK d   1     -24.922   1.499 -38.992  0.00  0.00    -0.084 Cl
ATOM     28  C   UNK d   1     -22.736   1.491 -37.448  0.00  0.00     0.026 A 
ATOM     29  C   UNK d   1     -21.814   0.950 -36.581  0.00  0.00     0.031 A 
ENDBRANCH  19  23
ENDBRANCH  14  17
ENDBRANCH   1  13
BRANCH   3  30
ATOM     30  C   UNK d   1     -18.445   0.824 -26.352  0.00  0.00     0.077 A 
ATOM     31  C   UNK d   1     -18.079   0.391 -25.101  0.00  0.00     0.033 A 
ATOM     32  C   UNK d   1     -17.774   1.243 -24.048  0.00  0.00     0.009 A 
ATOM     33  C   UNK d   1     -17.832   2.610 -24.231  0.00  0.00    -0.062 A 
ATOM     34  C   UNK d   1     -18.201   3.068 -25.478  0.00  0.00     0.009 A 
ATOM     35  C   UNK d   1     -17.476   3.562 -23.135  0.00  0.00     0.048 C 
ATOM     36  C   UNK d   1     -18.501   2.189 -26.517  0.00  0.00     0.033 A 
ENDBRANCH   3  30
TORSDOF 4
ENDMDL
