MODEL 1
REMARK VINA RESULT:    -8.896      0.000      0.000
REMARK INTER + INTRA:         -11.776
REMARK INTER:                 -11.496
REMARK INTRA:                  -0.280
REMARK UNBOUND:                -0.280
REMARK  5 active torsions:
REMARK  status: ('A' for Active; 'I' for Inactive)
REMARK    1  A    between atoms: C_10  and  C_22 
REMARK    2  A    between atoms: N_15  and  C_18 
REMARK    3  A    between atoms: C_18  and  C_19 
REMARK    4  A    between atoms: C_19  and  O_20 
REMARK    5  A    between atoms: C_22  and  C_23 
ROOT
ATOM      1 Cl   UNK d   1     -21.041   5.824 -35.343  0.00  0.00    -0.082 Cl
ATOM      2  C   UNK d   1     -20.074   4.368 -35.244  0.00  0.00     0.061 A 
ATOM      3  C   UNK d   1     -20.589   3.158 -34.827  0.00  0.00     0.066 A 
ATOM      4  C   UNK d   1     -19.791   2.020 -34.759  0.00  0.00     0.019 A 
ATOM      5  C   UNK d   1     -18.481   2.166 -35.125  0.00  0.00     0.013 A 
ATOM      6  C   UNK d   1     -17.951   3.363 -35.543  0.00  0.00     0.002 A 
ATOM      7  C   UNK d   1     -18.736   4.475 -35.609  0.00  0.00     0.026 A 
ATOM      8  C   UNK d   1     -20.624   0.909 -34.285  0.00  0.00     0.279 A 
ATOM      9  N   UNK d   1     -20.116   0.315 -33.062  0.00  0.00     0.114 N 
ATOM     10  C   UNK d   1     -20.852  -0.951 -33.011  0.00  0.00     0.240 C 
ATOM     11  C   UNK d   1     -20.996  -1.418 -34.410  0.00  0.00     0.128 C 
ATOM     12  C   UNK d   1     -20.574  -0.251 -35.245  0.00  0.00     0.147 C 
ATOM     13  C   UNK d   1     -21.511  -0.114 -36.363  0.00  0.00     0.235 C 
ATOM     14  O   UNK d   1     -21.292   0.592 -37.379  0.00  0.00    -0.272 OA
ATOM     15  N   UNK d   1     -22.644  -0.914 -36.050  0.00  0.00    -0.286 N 
ATOM     16  C   UNK d   1     -22.446  -1.569 -34.804  0.00  0.00     0.233 C 
ATOM     17  O   UNK d   1     -23.284  -2.190 -34.095  0.00  0.00    -0.272 OA
ATOM     18  C   UNK d   1     -21.973   1.455 -34.069  0.00  0.00     0.267 A 
ATOM     19  O   UNK d   1     -22.992   0.873 -33.670  0.00  0.00    -0.270 OA
ATOM     20  N   UNK d   1     -21.907   2.832 -34.414  0.00  0.00    -0.323 N 
ATOM     21  H   UNK d   1     -20.332   0.911 -32.216  0.00  0.00     0.318 HD
ATOM     22  H   UNK d   1     -22.699   3.529 -34.378  0.00  0.00     0.169 HD
ENDROOT
BRANCH  10  23
ATOM     23  C   UNK d   1     -20.136  -1.962 -32.167  0.00  0.00     0.075 C 
BRANCH  23  24
ATOM     24  C   UNK d   1     -20.170  -1.688 -30.721  0.00  0.00    -0.056 A 
ATOM     25  C   UNK d   1     -19.959  -2.760 -29.856  0.00  0.00     0.007 A 
ATOM     26  C   UNK d   1     -19.964  -2.534 -28.504  0.00  0.00     0.001 A 
ATOM     27  C   UNK d   1     -20.169  -1.290 -27.956  0.00  0.00     0.000 A 
ATOM     28  C   UNK d   1     -20.373  -0.256 -28.844  0.00  0.00     0.001 A 
ATOM     29  C   UNK d   1     -20.378  -0.428 -30.212  0.00  0.00     0.007 A 
ENDBRANCH  23  24
ENDBRANCH  10  23
BRANCH  15  30
ATOM     30  C   UNK d   1     -23.831  -1.034 -36.893  0.00  0.00     0.161 C 
BRANCH  30  31
ATOM     31  C   UNK d   1     -23.619  -2.213 -37.832  0.00  0.00     0.187 C 
BRANCH  31  32
ATOM     32  O   UNK d   1     -24.760  -2.995 -37.908  0.00  0.00    -0.394 OA
ATOM     33  C   UNK d   1     -24.715  -3.766 -39.053  0.00  0.00     0.201 C 
ENDBRANCH  31  32
ENDBRANCH  30  31
ENDBRANCH  15  30
TORSDOF 5
ENDMDL
