/Users/jonathanwahrer/Desktop/Msc/3_Semester/Drug_Design_Praktikum/waehrer_HTS_screening/HTS_experiment/out/docking_results/vina_output/5l4q/2136_docked.pdbqt
 OpenBabel03212219183D

 33 37  0  0  1  0  0  0  0  0999 V2000
  -21.0410    5.8240  -35.3430 Cl  0  0  0  0  0  0  0  0  0  0  0  0
  -20.0740    4.3680  -35.2440 C   0  0  0  0  0  0  0  0  0  0  0  0
  -20.5890    3.1580  -34.8270 C   0  0  0  0  0  0  0  0  0  0  0  0
  -19.7910    2.0200  -34.7590 C   0  0  0  0  0  0  0  0  0  0  0  0
  -18.4810    2.1660  -35.1250 C   0  0  0  0  0  3  0  0  0  0  0  0
  -17.9510    3.3630  -35.5430 C   0  0  0  0  0  3  0  0  0  0  0  0
  -18.7360    4.4750  -35.6090 C   0  0  0  0  0  3  0  0  0  0  0  0
  -20.6240    0.9090  -34.2850 C   0  0  2  0  0  0  0  0  0  0  0  0
  -20.1160    0.3150  -33.0620 N   0  0  0  0  0  0  0  0  0  0  0  0
  -20.8520   -0.9510  -33.0110 C   0  0  1  0  0  3  0  0  0  0  0  0
  -20.9960   -1.4180  -34.4100 C   0  0  2  0  0  3  0  0  0  0  0  0
  -20.5740   -0.2510  -35.2450 C   0  0  1  0  0  3  0  0  0  0  0  0
  -21.5110   -0.1140  -36.3630 C   0  0  0  0  0  0  0  0  0  0  0  0
  -21.2920    0.5920  -37.3790 O   0  0  0  0  0  0  0  0  0  0  0  0
  -22.6440   -0.9140  -36.0500 N   0  0  0  0  0  0  0  0  0  0  0  0
  -22.4460   -1.5690  -34.8040 C   0  0  0  0  0  0  0  0  0  0  0  0
  -23.2840   -2.1900  -34.0950 O   0  0  0  0  0  0  0  0  0  0  0  0
  -21.9730    1.4550  -34.0690 C   0  0  0  0  0  0  0  0  0  0  0  0
  -22.9920    0.8730  -33.6700 O   0  0  0  0  0  0  0  0  0  0  0  0
  -21.9070    2.8320  -34.4140 N   0  0  0  0  0  0  0  0  0  0  0  0
  -20.3320    0.9110  -32.2160 H   0  0  0  0  0  0  0  0  0  0  0  0
  -22.6990    3.5290  -34.3780 H   0  0  0  0  0  0  0  0  0  0  0  0
  -20.1360   -1.9620  -32.1670 C   0  0  0  0  0  2  0  0  0  0  0  0
  -20.1700   -1.6880  -30.7210 C   0  0  0  0  0  0  0  0  0  0  0  0
  -19.9590   -2.7600  -29.8560 C   0  0  0  0  0  3  0  0  0  0  0  0
  -19.9640   -2.5340  -28.5040 C   0  0  0  0  0  3  0  0  0  0  0  0
  -20.1690   -1.2900  -27.9560 C   0  0  0  0  0  3  0  0  0  0  0  0
  -20.3730   -0.2560  -28.8440 C   0  0  0  0  0  3  0  0  0  0  0  0
  -20.3780   -0.4280  -30.2120 C   0  0  0  0  0  3  0  0  0  0  0  0
  -23.8310   -1.0340  -36.8930 C   0  0  0  0  0  2  0  0  0  0  0  0
  -23.6190   -2.2130  -37.8320 C   0  0  0  0  0  2  0  0  0  0  0  0
  -24.7600   -2.9950  -37.9080 O   0  0  0  0  0  0  0  0  0  0  0  0
  -24.7150   -3.7660  -39.0530 C   0  0  0  0  0  1  0  0  0  0  0  0
  1  2  1  0  0  0  0
  2  3  1  0  0  0  0
  3  4  2  0  0  0  0
  3 20  1  0  0  0  0
  5  4  1  0  0  0  0
  6  5  2  0  0  0  0
  7  6  1  0  0  0  0
  7  2  2  0  0  0  0
  8  4  1  6  0  0  0
  8 18  1  0  0  0  0
  8  9  1  0  0  0  0
  9 10  1  0  0  0  0
  9 21  1  0  0  0  0
 10 23  1  1  0  0  0
 11 16  1  6  0  0  0
 11 10  1  0  0  0  0
 12 13  1  6  0  0  0
 12 11  1  0  0  0  0
 12  8  1  0  0  0  0
 13 15  1  0  0  0  0
 14 13  2  0  0  0  0
 15 16  1  0  0  0  0
 16 17  2  0  0  0  0
 18 19  2  0  0  0  0
 20 22  1  0  0  0  0
 20 18  1  0  0  0  0
 23 24  1  0  0  0  0
 24 29  2  0  0  0  0
 24 25  1  0  0  0  0
 25 26  2  0  0  0  0
 26 27  1  0  0  0  0
 28 27  2  0  0  0  0
 29 28  1  0  0  0  0
 30 15  1  0  0  0  0
 31 30  1  0  0  0  0
 32 31  1  0  0  0  0
 33 32  1  0  0  0  0
M  END
>  <Pose>
1

>  <Score>
-8.896

$$$$
