MODEL 1
REMARK VINA RESULT:    -8.671      0.000      0.000
REMARK INTER + INTRA:         -10.754
REMARK INTER:                 -10.445
REMARK INTRA:                  -0.309
REMARK UNBOUND:                -0.309
REMARK  4 active torsions:
REMARK  status: ('A' for Active; 'I' for Inactive)
REMARK    1  A    between atoms: C_5  and  C_8 
REMARK    2  A    between atoms: C_8  and  N_9 
REMARK    3  A    between atoms: N_12  and  C_15 
REMARK    4  A    between atoms: C_17  and  N_24 
ROOT
ATOM      1  N   UNK d   1     -22.447  -1.001 -34.599  0.00  0.00    -0.405 N 
ATOM      2  C   UNK d   1     -21.344  -0.170 -34.873  0.00  0.00     0.137 C 
ATOM      3  C   UNK d   1     -21.091   0.152 -36.321  0.00  0.00     0.144 C 
ATOM      4  N   UNK d   1     -22.389  -0.051 -37.017  0.00  0.00    -0.360 N 
ATOM      5  C   UNK d   1     -23.509   0.383 -36.273  0.00  0.00     0.144 C 
ATOM      6  C   UNK d   1     -23.715  -0.603 -35.143  0.00  0.00     0.137 C 
ENDROOT
BRANCH   4   7
ATOM      7  C   UNK d   1     -22.329  -0.607 -38.313  0.00  0.00     0.176 A 
ATOM      8  N   UNK d   1     -21.585   0.020 -39.273  0.00  0.00    -0.043 NA
ATOM      9  C   UNK d   1     -21.475  -0.378 -40.534  0.00  0.00     0.724 A 
ATOM     10  N   UNK d   1     -22.138  -1.482 -40.918  0.00  0.00    -0.041 NA
ATOM     11  C   UNK d   1     -22.890  -2.146 -40.011  0.00  0.00     0.200 A 
ATOM     12  N   UNK d   1     -23.637  -3.262 -40.100  0.00  0.00    -0.222 NA
ATOM     13  C   UNK d   1     -23.009  -1.732 -38.683  0.00  0.00     0.129 A 
ATOM     14  C   UNK d   1     -24.181  -3.522 -38.911  0.00  0.00     0.210 A 
ATOM     15  N   UNK d   1     -23.803  -2.588 -38.020  0.00  0.00    -0.344 N 
ATOM     16  H   UNK d   1     -24.094  -2.584 -37.019  0.00  0.00     0.167 HD
BRANCH   9  17
ATOM     17  N   UNK d   1     -20.670   0.333 -41.498  0.00  0.00    -0.231 N 
ATOM     18  H   UNK d   1     -20.088  -0.157 -42.192  0.00  0.00     0.174 HD
ATOM     19  H   UNK d   1     -20.670   1.372 -41.502  0.00  0.00     0.174 HD
ENDBRANCH   9  17
ENDBRANCH   4   7
BRANCH   1  20
ATOM     20  C   UNK d   1     -22.221  -2.392 -34.498  0.00  0.00     0.155 C 
BRANCH  20  21
ATOM     21  C   UNK d   1     -21.845  -2.895 -33.179  0.00  0.00    -0.041 A 
ATOM     22  C   UNK d   1     -21.086  -2.134 -32.327  0.00  0.00     0.010 A 
ATOM     23  C   UNK d   1     -20.694  -2.553 -31.061  0.00  0.00     0.024 A 
ATOM     24  C   UNK d   1     -21.103  -3.807 -30.660  0.00  0.00     0.034 A 
ATOM     25 Cl   UNK d   1     -20.647  -4.406 -29.078  0.00  0.00    -0.084 Cl
ATOM     26  C   UNK d   1     -21.864  -4.574 -31.513  0.00  0.00     0.024 A 
ATOM     27  C   UNK d   1     -22.241  -4.141 -32.761  0.00  0.00     0.010 A 
ENDBRANCH  20  21
ENDBRANCH   1  20
TORSDOF 4
ENDMDL
