/Users/jonathanwahrer/Desktop/Msc/3_Semester/Drug_Design_Praktikum/waehrer_HTS_screening/HTS_experiment/out/docking_results/vina_output/5l4q/2149_docked.pdbqt
 OpenBabel03212219183D

 24 27  0  0  0  0  0  0  0  0999 V2000
  -20.4090   -0.5040  -32.3630 N   0  0  0  0  0  0  0  0  0  0  0  0
  -19.8220   -1.2810  -33.2540 N   0  0  0  0  0  0  0  0  0  0  0  0
  -20.4800   -1.2760  -34.3990 N   0  0  0  0  0  0  0  0  0  0  0  0
  -21.5380   -0.4750  -34.2770 C   0  0  0  0  0  0  0  0  0  0  0  0
  -21.4950    0.0150  -32.9900 C   0  0  0  0  0  0  0  0  0  0  0  0
  -22.4660    0.8580  -32.6090 N   0  0  0  0  0  0  0  0  0  0  0  0
  -23.4460    1.2130  -33.4580 C   0  0  0  0  0  3  0  0  0  0  0  0
  -23.4660    0.7210  -34.7090 N   0  0  0  0  0  0  0  0  0  0  0  0
  -22.5300   -0.1380  -35.1890 C   0  0  0  0  0  0  0  0  0  0  0  0
  -20.0110   -0.2310  -30.9840 C   0  0  0  0  0  2  0  0  0  0  0  0
  -20.1470   -1.4950  -30.2170 C   0  0  0  0  0  0  0  0  0  0  0  0
  -19.6300   -1.5310  -28.9510 C   0  0  0  0  0  3  0  0  0  0  0  0
  -19.7140   -2.6690  -28.1660 C   0  0  0  0  0  3  0  0  0  0  0  0
  -20.3310   -3.7870  -28.6700 C   0  0  0  0  0  0  0  0  0  0  0  0
  -20.4480   -5.2440  -27.6900 Cl  0  0  0  0  0  0  0  0  0  0  0  0
  -20.8490   -3.7410  -29.9490 C   0  0  0  0  0  3  0  0  0  0  0  0
  -20.7650   -2.6130  -30.7250 C   0  0  0  0  0  3  0  0  0  0  0  0
  -22.5470   -0.6550  -36.4970 N   0  0  0  0  0  0  0  0  0  0  0  0
  -23.2820   -1.8010  -36.9610 C   0  0  0  0  0  2  0  0  0  0  0  0
  -24.2010   -1.3610  -38.0400 C   0  0  0  0  0  2  0  0  0  0  0  0
  -23.9540   -0.1280  -38.6600 N   0  0  0  0  0  0  0  0  0  0  0  0
  -22.6900    0.4700  -38.5780 C   0  0  0  0  0  2  0  0  0  0  0  0
  -24.9670    0.8270  -38.2470 C   0  0  0  0  0  1  0  0  0  0  0  0
  -21.7650   -0.0130  -37.5250 C   0  0  0  0  0  2  0  0  0  0  0  0
  1 10  1  0  0  0  0
  2  1  1  0  0  0  0
  3  4  1  0  0  0  0
  3  2  2  0  0  0  0
  4  5  1  0  0  0  0
  5  6  2  0  0  0  0
  5  1  1  0  0  0  0
  7  6  1  0  0  0  0
  8  7  2  0  0  0  0
  9  8  1  0  0  0  0
  9  4  2  0  0  0  0
 10 11  1  0  0  0  0
 11 12  1  0  0  0  0
 12 13  2  0  0  0  0
 14 13  1  0  0  0  0
 14 15  1  0  0  0  0
 16 14  2  0  0  0  0
 17 11  2  0  0  0  0
 17 16  1  0  0  0  0
 18  9  1  0  0  0  0
 19 18  1  0  0  0  0
 20 19  1  0  0  0  0
 21 22  1  0  0  0  0
 21 23  1  0  0  0  0
 21 20  1  0  0  0  0
 22 24  1  0  0  0  0
 24 18  1  0  0  0  0
M  END
>  <Pose>
1

>  <Score>
-8.006

$$$$
