MODEL 1
REMARK VINA RESULT:    -8.006      0.000      0.000
REMARK INTER + INTRA:          -9.658
REMARK INTER:                  -9.410
REMARK INTRA:                  -0.248
REMARK UNBOUND:                -0.248
REMARK  3 active torsions:
REMARK  status: ('A' for Active; 'I' for Inactive)
REMARK    1  A    between atoms: C_5  and  C_8 
REMARK    2  A    between atoms: C_8  and  N_9 
REMARK    3  A    between atoms: C_17  and  N_18 
ROOT
ATOM      1  N   UNK d   1     -20.409  -0.504 -32.363  0.00  0.00    -0.227 N 
ATOM      2  N   UNK d   1     -19.822  -1.281 -33.254  0.00  0.00    -0.063 NA
ATOM      3  N   UNK d   1     -20.480  -1.276 -34.399  0.00  0.00    -0.124 NA
ATOM      4  C   UNK d   1     -21.538  -0.475 -34.277  0.00  0.00     0.173 A 
ATOM      5  C   UNK d   1     -21.495   0.015 -32.990  0.00  0.00     0.183 A 
ATOM      6  N   UNK d   1     -22.466   0.858 -32.609  0.00  0.00    -0.220 NA
ATOM      7  C   UNK d   1     -23.446   1.213 -33.458  0.00  0.00     0.237 A 
ATOM      8  N   UNK d   1     -23.466   0.721 -34.709  0.00  0.00    -0.222 NA
ATOM      9  C   UNK d   1     -22.530  -0.138 -35.189  0.00  0.00     0.162 A 
ENDROOT
BRANCH   1  10
ATOM     10  C   UNK d   1     -20.011  -0.231 -30.984  0.00  0.00     0.193 C 
BRANCH  10  11
ATOM     11  C   UNK d   1     -20.147  -1.495 -30.217  0.00  0.00    -0.038 A 
ATOM     12  C   UNK d   1     -19.630  -1.531 -28.951  0.00  0.00     0.010 A 
ATOM     13  C   UNK d   1     -19.714  -2.669 -28.166  0.00  0.00     0.024 A 
ATOM     14  C   UNK d   1     -20.331  -3.787 -28.670  0.00  0.00     0.034 A 
ATOM     15 Cl   UNK d   1     -20.448  -5.244 -27.690  0.00  0.00    -0.084 Cl
ATOM     16  C   UNK d   1     -20.849  -3.741 -29.949  0.00  0.00     0.024 A 
ATOM     17  C   UNK d   1     -20.765  -2.613 -30.725  0.00  0.00     0.010 A 
ENDBRANCH  10  11
ENDBRANCH   1  10
BRANCH   9  18
ATOM     18  N   UNK d   1     -22.547  -0.655 -36.497  0.00  0.00    -0.360 N 
ATOM     19  C   UNK d   1     -23.282  -1.801 -36.961  0.00  0.00     0.154 C 
ATOM     20  C   UNK d   1     -24.201  -1.361 -38.040  0.00  0.00     0.291 C 
ATOM     21  N   UNK d   1     -23.954  -0.128 -38.660  0.00  0.00     0.087 N 
ATOM     22  C   UNK d   1     -22.690   0.470 -38.578  0.00  0.00     0.291 C 
ATOM     23  C   UNK d   1     -24.967   0.827 -38.247  0.00  0.00     0.310 C 
ATOM     24  C   UNK d   1     -21.765  -0.013 -37.525  0.00  0.00     0.154 C 
ENDBRANCH   9  18
TORSDOF 3
ENDMDL
