MODEL 1
REMARK VINA RESULT:    -8.590      0.000      0.000
REMARK INTER + INTRA:         -12.592
REMARK INTER:                 -11.603
REMARK INTRA:                  -0.989
REMARK UNBOUND:                -0.989
REMARK  6 active torsions:
REMARK  status: ('A' for Active; 'I' for Inactive)
REMARK    1  A    between atoms: C_4  and  C_10 
REMARK    2  A    between atoms: C_5  and  O_8 
REMARK    3  A    between atoms: N_11  and  N_12 
REMARK    4  A    between atoms: N_12  and  C_13 
REMARK    5  A    between atoms: C_15  and  N_25 
REMARK    6  A    between atoms: C_17  and  N_19 
ROOT
ATOM      1  C   UNK d   1     -18.805   0.392 -33.141  0.00  0.00     0.774 A 
ATOM      2  N   UNK d   1     -18.474   1.701 -33.099  0.00  0.00     0.133 NA
ATOM      3  C   UNK d   1     -19.238   2.637 -33.673  0.00  0.00     0.756 A 
ATOM      4  N   UNK d   1     -20.359   2.251 -34.302  0.00  0.00     0.131 NA
ATOM      5  C   UNK d   1     -20.753   0.952 -34.383  0.00  0.00     0.756 A 
ATOM      6  N   UNK d   1     -19.927   0.055 -33.777  0.00  0.00     0.133 NA
ENDROOT
BRANCH   1   7
ATOM      7  N   UNK d   1     -18.016  -0.629 -32.542  0.00  0.00    -0.105 N 
ATOM      8  H   UNK d   1     -17.337  -1.198 -33.116  0.00  0.00     0.208 HD
BRANCH   7   9
ATOM      9  N   UNK d   1     -18.089  -0.938 -31.183  0.00  0.00    -0.171 NA
ATOM     10  C   UNK d   1     -19.182  -1.168 -30.559  0.00  0.00     0.153 C 
BRANCH  10  11
ATOM     11  C   UNK d   1     -19.238  -1.490 -29.137  0.00  0.00     0.018 A 
ATOM     12  C   UNK d   1     -18.738  -0.634 -28.185  0.00  0.00     0.034 A 
ATOM     13  C   UNK d   1     -18.797  -0.949 -26.846  0.00  0.00     0.011 A 
ATOM     14 Br   UNK d   1     -18.102   0.238 -25.526  0.00  0.00    -0.051 Br
ATOM     15  C   UNK d   1     -19.361  -2.139 -26.403  0.00  0.00     0.022 A 
ATOM     16  C   UNK d   1     -19.867  -3.005 -27.358  0.00  0.00     0.039 A 
ATOM     17  C   UNK d   1     -19.800  -2.674 -28.714  0.00  0.00     0.080 A 
BRANCH  17  18
ATOM     18  O   UNK d   1     -20.299  -3.521 -29.697  0.00  0.00    -0.355 OA
ATOM     19  C   UNK d   1     -20.348  -4.923 -29.573  0.00  0.00     0.210 C 
ENDBRANCH  17  18
ENDBRANCH  10  11
ENDBRANCH   7   9
ENDBRANCH   1   7
BRANCH   3  20
ATOM     20  N   UNK d   1     -18.889   4.014 -33.630  0.00  0.00    -0.209 N 
ATOM     21  C   UNK d   1     -17.517   4.463 -33.539  0.00  0.00     0.167 C 
ATOM     22  C   UNK d   1     -17.380   5.620 -32.561  0.00  0.00     0.188 C 
ATOM     23  O   UNK d   1     -18.396   6.560 -32.767  0.00  0.00    -0.388 OA
ATOM     24  C   UNK d   1     -19.641   6.016 -32.563  0.00  0.00     0.188 C 
ATOM     25  C   UNK d   1     -19.918   5.029 -33.676  0.00  0.00     0.167 C 
ENDBRANCH   3  20
BRANCH   5  26
ATOM     26  N   UNK d   1     -21.929   0.553 -35.044  0.00  0.00    -0.209 N 
ATOM     27  C   UNK d   1     -23.214   1.042 -34.641  0.00  0.00     0.167 C 
ATOM     28  C   UNK d   1     -24.104  -0.178 -34.412  0.00  0.00     0.188 C 
ATOM     29  O   UNK d   1     -24.096  -0.911 -35.585  0.00  0.00    -0.388 OA
ATOM     30  C   UNK d   1     -22.871  -1.472 -35.861  0.00  0.00     0.188 C 
ATOM     31  C   UNK d   1     -21.857  -0.363 -36.144  0.00  0.00     0.167 C 
ENDBRANCH   5  26
TORSDOF 6
ENDMDL
