MODEL 1
REMARK VINA RESULT:    -8.444      0.000      0.000
REMARK INTER + INTRA:         -11.646
REMARK INTER:                 -10.419
REMARK INTRA:                  -1.227
REMARK UNBOUND:                -1.227
REMARK  4 active torsions:
REMARK  status: ('A' for Active; 'I' for Inactive)
REMARK    1  A    between atoms: C_5  and  C_8 
REMARK    2  A    between atoms: C_8  and  C_10 
REMARK    3  A    between atoms: C_10  and  N_11 
REMARK    4  A    between atoms: C_26  and  N_27 
ROOT
ATOM      1  N   UNK d   1     -19.998  -0.125 -33.840  0.00  0.00    -0.092 N 
ATOM      2  N   UNK d   1     -19.944  -0.564 -32.601  0.00  0.00    -0.056 N 
ATOM      3  C   UNK d   1     -19.466   0.367 -31.763  0.00  0.00     0.767 A 
ATOM      4  N   UNK d   1     -19.417  -0.100 -30.506  0.00  0.00    -0.040 NA
ATOM      5  C   UNK d   1     -19.869  -1.373 -30.494  0.00  0.00     0.188 A 
ATOM      6  C   UNK d   1     -20.199  -1.652 -31.825  0.00  0.00     0.190 A 
ATOM      7  C   UNK d   1     -20.683  -2.923 -32.054  0.00  0.00     0.284 A 
ATOM      8  O   UNK d   1     -20.991  -3.223 -33.246  0.00  0.00    -0.265 OA
ATOM      9  N   UNK d   1     -20.842  -3.856 -31.078  0.00  0.00    -0.269 N 
ATOM     10  C   UNK d   1     -20.505  -3.509 -29.827  0.00  0.00     0.332 A 
ATOM     11  O   UNK d   1     -20.663  -4.398 -28.927  0.00  0.00    -0.246 OA
ATOM     12  N   UNK d   1     -20.026  -2.293 -29.528  0.00  0.00    -0.285 N 
ATOM     13  C   UNK d   1     -19.682  -1.985 -28.166  0.00  0.00     0.163 C 
ATOM     14  C   UNK d   1     -21.359  -5.166 -31.402  0.00  0.00     0.164 C 
ATOM     15  N   UNK d   1     -19.209   1.447 -32.544  0.00  0.00     0.132 NA
ATOM     16  C   UNK d   1     -19.528   1.160 -33.813  0.00  0.00     0.736 A 
ENDROOT
BRANCH   1  17
ATOM     17  C   UNK d   1     -20.438  -0.787 -35.047  0.00  0.00     0.253 C 
BRANCH  17  18
ATOM     18  C   UNK d   1     -21.840  -0.502 -35.400  0.00  0.00     0.179 C 
ATOM     19  O   UNK d   1     -22.772  -0.563 -34.567  0.00  0.00    -0.290 OA
BRANCH  18  20
ATOM     20  C   UNK d   1     -22.138  -0.139 -36.779  0.00  0.00     0.011 A 
ATOM     21  C   UNK d   1     -23.415  -0.187 -37.296  0.00  0.00     0.017 A 
ATOM     22  C   UNK d   1     -23.693   0.159 -38.603  0.00  0.00     0.025 A 
ATOM     23  C   UNK d   1     -22.678   0.574 -39.455  0.00  0.00     0.034 A 
ATOM     24 Cl   UNK d   1     -23.005   1.021 -41.121  0.00  0.00    -0.084 Cl
ATOM     25  C   UNK d   1     -21.393   0.628 -38.957  0.00  0.00     0.025 A 
ATOM     26  C   UNK d   1     -21.125   0.281 -37.650  0.00  0.00     0.017 A 
ENDBRANCH  18  20
ENDBRANCH  17  18
ENDBRANCH   1  17
BRANCH  16  27
ATOM     27  N   UNK d   1     -19.421   1.995 -34.962  0.00  0.00    -0.210 N 
ATOM     28  C   UNK d   1     -18.294   1.902 -35.874  0.00  0.00     0.167 C 
ATOM     29  C   UNK d   1     -17.931   3.303 -36.300  0.00  0.00     0.188 C 
ATOM     30  O   UNK d   1     -19.052   3.942 -36.854  0.00  0.00    -0.388 OA
ATOM     31  C   UNK d   1     -20.011   4.208 -35.902  0.00  0.00     0.188 C 
ATOM     32  C   UNK d   1     -20.458   2.955 -35.235  0.00  0.00     0.167 C 
ENDBRANCH  16  27
TORSDOF 4
ENDMDL
