MODEL 1
REMARK VINA RESULT:    -9.538      0.000      0.000
REMARK INTER + INTRA:         -11.212
REMARK INTER:                 -10.653
REMARK INTRA:                  -0.559
REMARK UNBOUND:                -0.559
REMARK  2 active torsions:
REMARK  status: ('A' for Active; 'I' for Inactive)
REMARK    1  A    between atoms: C_10  and  N_11 
REMARK    2  A    between atoms: N_14  and  C_17 
ROOT
ATOM      1  N   UNK d   1     -21.240  -2.528 -33.511  0.00  0.00    -0.384 N 
ATOM      2  C   UNK d   1     -22.535  -2.144 -34.020  0.00  0.00     0.142 C 
ATOM      3  C   UNK d   1     -22.674  -0.651 -33.875  0.00  0.00     0.144 C 
ATOM      4  N   UNK d   1     -21.493   0.078 -34.293  0.00  0.00    -0.362 N 
ATOM      5  C   UNK d   1     -20.199  -0.350 -33.799  0.00  0.00     0.144 C 
ATOM      6  C   UNK d   1     -20.075  -1.836 -34.013  0.00  0.00     0.142 C 
ENDROOT
BRANCH   1   7
ATOM      7  C   UNK d   1     -21.186  -3.572 -32.548  0.00  0.00     0.134 C 
ATOM      8  C   UNK d   1     -20.818  -3.425 -31.297  0.00  0.00     0.124 A 
ATOM      9  N   UNK d   1     -20.424  -2.169 -30.752  0.00  0.00    -0.340 N 
ATOM     10  N   UNK d   1     -20.806  -4.549 -30.430  0.00  0.00    -0.308 N 
ATOM     11  C   UNK d   1     -20.022  -1.974 -29.405  0.00  0.00     0.049 A 
ATOM     12  H   UNK d   1     -20.439  -1.354 -31.400  0.00  0.00     0.167 HD
ATOM     13  C   UNK d   1     -20.006  -3.062 -28.556  0.00  0.00     0.060 A 
ATOM     14  C   UNK d   1     -19.639  -0.761 -28.874  0.00  0.00     0.032 A 
ATOM     15  C   UNK d   1     -19.626  -2.934 -27.242  0.00  0.00     0.043 A 
ATOM     16  C   UNK d   1     -20.410  -4.378 -29.090  0.00  0.00     0.259 A 
ATOM     17  C   UNK d   1     -19.247  -1.714 -26.729  0.00  0.00     0.035 A 
ATOM     18 Cl   UNK d   1     -18.765  -1.592 -25.034  0.00  0.00    -0.084 Cl
ATOM     19  C   UNK d   1     -19.256  -0.617 -27.560  0.00  0.00     0.026 A 
ATOM     20  O   UNK d   1     -20.373  -5.341 -28.257  0.00  0.00    -0.267 OA
ATOM     21  H   UNK d   1     -21.081  -5.503 -30.755  0.00  0.00     0.170 HD
ENDBRANCH   1   7
BRANCH   4  22
ATOM     22  C   UNK d   1     -21.619   1.195 -35.174  0.00  0.00     0.142 A 
ATOM     23  N   UNK d   1     -21.622   2.437 -34.652  0.00  0.00    -0.224 NA
ATOM     24  C   UNK d   1     -21.740   3.531 -35.457  0.00  0.00     0.237 A 
ATOM     25  N   UNK d   1     -21.857   3.393 -36.796  0.00  0.00    -0.222 NA
ATOM     26  C   UNK d   1     -21.860   2.187 -37.372  0.00  0.00     0.162 A 
ATOM     27  N   UNK d   1     -21.960   1.771 -38.648  0.00  0.00    -0.256 N 
ATOM     28  C   UNK d   1     -21.738   1.077 -36.534  0.00  0.00     0.076 A 
ATOM     29  N   UNK d   1     -21.905   0.451 -38.639  0.00  0.00    -0.182 NA
ATOM     30  C   UNK d   1     -22.103   2.602 -39.848  0.00  0.00     0.182 C 
ATOM     31  C   UNK d   1     -21.769  -0.002 -37.361  0.00  0.00     0.158 A 
ENDBRANCH   4  22
TORSDOF 2
ENDMDL
