/Users/jonathanwahrer/Desktop/Msc/3_Semester/Drug_Design_Praktikum/waehrer_HTS_screening/HTS_experiment/out/docking_results/vina_output/5l4q/2177_docked.pdbqt
 OpenBabel03212219193D

 31 35  0  0  0  0  0  0  0  0999 V2000
  -21.2400   -2.5280  -33.5110 N   0  0  0  0  0  0  0  0  0  0  0  0
  -22.5350   -2.1440  -34.0200 C   0  0  0  0  0  2  0  0  0  0  0  0
  -22.6740   -0.6510  -33.8750 C   0  0  0  0  0  2  0  0  0  0  0  0
  -21.4930    0.0780  -34.2930 N   0  0  0  0  0  0  0  0  0  0  0  0
  -20.1990   -0.3500  -33.7990 C   0  0  0  0  0  2  0  0  0  0  0  0
  -20.0750   -1.8360  -34.0130 C   0  0  0  0  0  2  0  0  0  0  0  0
  -21.1860   -3.5720  -32.5480 C   0  0  0  0  0  3  0  0  0  0  0  0
  -20.8180   -3.4250  -31.2970 C   0  0  0  0  0  0  0  0  0  0  0  0
  -20.4240   -2.1690  -30.7520 N   0  0  0  0  0  0  0  0  0  0  0  0
  -20.8060   -4.5490  -30.4300 N   0  0  0  0  0  0  0  0  0  0  0  0
  -20.0220   -1.9740  -29.4050 C   0  0  0  0  0  0  0  0  0  0  0  0
  -20.4390   -1.3540  -31.4000 H   0  0  0  0  0  0  0  0  0  0  0  0
  -20.0060   -3.0620  -28.5560 C   0  0  0  0  0  0  0  0  0  0  0  0
  -19.6390   -0.7610  -28.8740 C   0  0  0  0  0  3  0  0  0  0  0  0
  -19.6260   -2.9340  -27.2420 C   0  0  0  0  0  3  0  0  0  0  0  0
  -20.4100   -4.3780  -29.0900 C   0  0  0  0  0  0  0  0  0  0  0  0
  -19.2470   -1.7140  -26.7290 C   0  0  0  0  0  0  0  0  0  0  0  0
  -18.7650   -1.5920  -25.0340 Cl  0  0  0  0  0  0  0  0  0  0  0  0
  -19.2560   -0.6170  -27.5600 C   0  0  0  0  0  3  0  0  0  0  0  0
  -20.3730   -5.3410  -28.2570 O   0  0  0  0  0  0  0  0  0  0  0  0
  -21.0810   -5.5030  -30.7550 H   0  0  0  0  0  0  0  0  0  0  0  0
  -21.6190    1.1950  -35.1740 C   0  0  0  0  0  0  0  0  0  0  0  0
  -21.6220    2.4370  -34.6520 N   0  0  0  0  0  0  0  0  0  0  0  0
  -21.7400    3.5310  -35.4570 C   0  0  0  0  0  3  0  0  0  0  0  0
  -21.8570    3.3930  -36.7960 N   0  0  0  0  0  0  0  0  0  0  0  0
  -21.8600    2.1870  -37.3720 C   0  0  0  0  0  0  0  0  0  0  0  0
  -21.9600    1.7710  -38.6480 N   0  0  0  0  0  0  0  0  0  0  0  0
  -21.7380    1.0770  -36.5340 C   0  0  0  0  0  0  0  0  0  0  0  0
  -21.9050    0.4510  -38.6390 N   0  0  0  0  0  0  0  0  0  0  0  0
  -22.1030    2.6020  -39.8480 C   0  0  0  0  0  1  0  0  0  0  0  0
  -21.7690   -0.0020  -37.3610 C   0  0  0  0  0  3  0  0  0  0  0  0
  1  7  1  0  0  0  0
  2  3  1  0  0  0  0
  2  1  1  0  0  0  0
  4  3  1  0  0  0  0
  4  5  1  0  0  0  0
  6  5  1  0  0  0  0
  6  1  1  0  0  0  0
  7  8  2  0  0  0  0
  8  9  1  0  0  0  0
  8 10  1  0  0  0  0
  9 11  1  0  0  0  0
 10 16  1  0  0  0  0
 11 14  2  0  0  0  0
 11 13  1  0  0  0  0
 12  9  1  0  0  0  0
 13 15  2  0  0  0  0
 14 19  1  0  0  0  0
 15 17  1  0  0  0  0
 16 13  1  0  0  0  0
 16 20  2  0  0  0  0
 17 18  1  0  0  0  0
 19 17  2  0  0  0  0
 21 10  1  0  0  0  0
 22 23  1  0  0  0  0
 22  4  1  0  0  0  0
 24 23  2  0  0  0  0
 25 24  1  0  0  0  0
 26 25  2  0  0  0  0
 26 28  1  0  0  0  0
 27 29  1  0  0  0  0
 27 26  1  0  0  0  0
 28 22  2  0  0  0  0
 29 31  2  0  0  0  0
 30 27  1  0  0  0  0
 31 28  1  0  0  0  0
M  END
>  <Pose>
1

>  <Score>
-9.538

$$$$
