MODEL 1
REMARK VINA RESULT:    -9.317      0.000      0.000
REMARK INTER + INTRA:         -12.135
REMARK INTER:                 -11.496
REMARK INTRA:                  -0.639
REMARK UNBOUND:                -0.639
REMARK  4 active torsions:
REMARK  status: ('A' for Active; 'I' for Inactive)
REMARK    1  A    between atoms: C_13  and  C_14 
REMARK    2  A    between atoms: C_14  and  N_15 
REMARK    3  A    between atoms: N_18  and  C_21 
REMARK    4  A    between atoms: C_24  and  O_27 
ROOT
ATOM      1  N   UNK d   1     -19.447  -0.094 -31.389  0.00  0.00    -0.064 N 
ATOM      2  C   UNK d   1     -19.707   0.728 -32.469  0.00  0.00     0.255 C 
ATOM      3  C   UNK d   1     -19.383  -0.012 -33.813  0.00  0.00     0.150 C 
ATOM      4  N   UNK d   1     -20.561  -1.006 -33.795  0.00  0.00    -0.378 N 
ATOM      5  C   UNK d   1     -20.423  -1.945 -32.793  0.00  0.00     0.150 C 
ATOM      6  C   UNK d   1     -19.243  -1.475 -31.913  0.00  0.00     0.255 C 
ATOM      7  H   UNK d   1     -18.462   0.140 -31.041  0.00  0.00     0.280 HD
ENDROOT
BRANCH   1   8
ATOM      8  C   UNK d   1     -20.238  -0.205 -30.242  0.00  0.00     0.274 C 
BRANCH   8   9
ATOM      9  C   UNK d   1     -19.765   0.211 -28.911  0.00  0.00    -0.014 A 
ATOM     10  C   UNK d   1     -19.570  -0.893 -28.023  0.00  0.00     0.008 A 
ATOM     11  C   UNK d   1     -19.930  -2.136 -28.413  0.00  0.00     0.041 A 
ATOM     12  C   UNK d   1     -19.048  -0.667 -26.779  0.00  0.00     0.093 A 
ATOM     13  C   UNK d   1     -19.782  -3.210 -27.577  0.00  0.00     0.071 A 
ATOM     14 Cl   UNK d   1     -20.287  -4.852 -27.991  0.00  0.00    -0.081 Cl
ATOM     15  C   UNK d   1     -19.245  -3.038 -26.296  0.00  0.00     0.131 A 
ATOM     16  C   UNK d   1     -18.891  -1.775 -25.913  0.00  0.00     0.080 A 
ATOM     17  O   UNK d   1     -19.053  -4.127 -25.416  0.00  0.00    -0.190 OA
ATOM     18  O   UNK d   1     -18.714   0.520 -26.359  0.00  0.00    -0.275 OA
ATOM     19  C   UNK d   1     -18.877   1.576 -27.148  0.00  0.00     0.288 A 
ATOM     20  O   UNK d   1     -18.554   2.694 -26.728  0.00  0.00    -0.260 OA
ATOM     21  C   UNK d   1     -19.412   1.429 -28.444  0.00  0.00     0.092 A 
ENDBRANCH   8   9
ENDBRANCH   1   8
BRANCH   4  22
ATOM     22  C   UNK d   1     -21.546  -0.691 -34.756  0.00  0.00     0.030 A 
ATOM     23  C   UNK d   1     -21.381   0.071 -35.859  0.00  0.00     0.032 A 
ATOM     24  C   UNK d   1     -22.362   0.122 -36.890  0.00  0.00     0.039 A 
ATOM     25  C   UNK d   1     -23.523  -0.601 -36.812  0.00  0.00     0.068 A 
ATOM     26  C   UNK d   1     -23.706  -1.383 -35.676  0.00  0.00     0.039 A 
ATOM     27  C   UNK d   1     -22.746  -1.423 -34.675  0.00  0.00     0.032 A 
BRANCH  25  28
ATOM     28  O   UNK d   1     -24.451  -0.516 -37.842  0.00  0.00    -0.356 OA
ATOM     29  C   UNK d   1     -25.100   0.727 -38.150  0.00  0.00     0.210 C 
ENDBRANCH  25  28
ENDBRANCH   4  22
TORSDOF 4
ENDMDL
