MODEL 1
REMARK VINA RESULT:    -8.989      0.000      0.000
REMARK INTER + INTRA:         -12.267
REMARK INTER:                 -11.354
REMARK INTRA:                  -0.913
REMARK UNBOUND:                -0.913
REMARK  5 active torsions:
REMARK  status: ('A' for Active; 'I' for Inactive)
REMARK    1  A    between atoms: S_1  and  N_4 
REMARK    2  A    between atoms: C_6  and  C_10 
REMARK    3  A    between atoms: N_13  and  C_20 
REMARK    4  A    between atoms: C_17  and  O_19 
REMARK    5  A    between atoms: C_20  and  C_21 
ROOT
ATOM      1  C   UNK d   1     -21.784   0.352 -33.965  0.00  0.00     0.137 A 
ATOM      2  N   UNK d   1     -21.488   0.010 -32.713  0.00  0.00    -0.211 NA
ATOM      3  C   UNK d   1     -20.217  -0.116 -32.293  0.00  0.00     0.184 A 
ATOM      4  N   UNK d   1     -19.648  -0.445 -31.101  0.00  0.00    -0.227 N 
ATOM      5  N   UNK d   1     -18.345  -0.408 -31.289  0.00  0.00    -0.063 NA
ATOM      6  N   UNK d   1     -18.045  -0.076 -32.530  0.00  0.00    -0.124 NA
ATOM      7  C   UNK d   1     -19.189   0.117 -33.197  0.00  0.00     0.180 A 
ATOM      8  C   UNK d   1     -19.483   0.473 -34.502  0.00  0.00     0.199 A 
ATOM      9  N   UNK d   1     -20.780   0.571 -34.820  0.00  0.00    -0.207 NA
ENDROOT
BRANCH   1  10
ATOM     10  C   UNK d   1     -23.178   0.509 -34.463  0.00  0.00     0.076 C 
ATOM     11  C   UNK d   1     -23.301   1.103 -35.796  0.00  0.00     0.147 C 
ATOM     12  N   UNK d   1     -23.680   0.333 -36.893  0.00  0.00    -0.310 N 
ATOM     13  C   UNK d   1     -23.720  -1.053 -36.828  0.00  0.00     0.135 C 
ATOM     14  C   UNK d   1     -23.358  -1.677 -35.511  0.00  0.00     0.021 C 
ATOM     15  C   UNK d   1     -23.863  -0.832 -34.398  0.00  0.00     0.015 C 
BRANCH  12  16
ATOM     16  S   UNK d   1     -23.363   1.044 -38.399  0.00  0.00     0.224 S 
ATOM     17  O   UNK d   1     -24.490   1.871 -38.909  0.00  0.00    -0.206 OA
ATOM     18  O   UNK d   1     -23.028  -0.062 -39.379  0.00  0.00    -0.206 OA
ATOM     19  C   UNK d   1     -21.889   2.073 -38.327  0.00  0.00     0.186 C 
ENDBRANCH  12  16
ENDBRANCH   1  10
BRANCH   8  20
ATOM     20  O   UNK d   1     -18.469   0.710 -35.420  0.00  0.00    -0.343 OA
ATOM     21  H   UNK d   1     -17.880  -0.048 -35.730  0.00  0.00     0.219 HD
ENDBRANCH   8  20
BRANCH   4  22
ATOM     22  C   UNK d   1     -20.338  -0.764 -29.891  0.00  0.00     0.195 C 
BRANCH  22  23
ATOM     23  C   UNK d   1     -20.357  -2.214 -29.582  0.00  0.00    -0.017 A 
ATOM     24  C   UNK d   1     -19.995  -2.620 -28.322  0.00  0.00     0.042 A 
ATOM     25  C   UNK d   1     -19.985  -3.962 -27.948  0.00  0.00     0.024 A 
ATOM     26 Cl   UNK d   1     -19.526  -1.439 -27.117  0.00  0.00    -0.084 Cl
ATOM     27  C   UNK d   1     -20.345  -4.932 -28.859  0.00  0.00     0.002 A 
ATOM     28  C   UNK d   1     -20.710  -4.533 -30.125  0.00  0.00     0.001 A 
ATOM     29  C   UNK d   1     -20.717  -3.187 -30.488  0.00  0.00     0.010 A 
ENDBRANCH  22  23
ENDBRANCH   4  22
TORSDOF 5
ENDMDL
