/Users/jonathanwahrer/Desktop/Msc/3_Semester/Drug_Design_Praktikum/waehrer_HTS_screening/HTS_experiment/out/docking_results/vina_output/5l4q/2195_docked.pdbqt
 OpenBabel03212219203D

 29 32  0  0  1  0  0  0  0  0999 V2000
  -21.7840    0.3520  -33.9650 C   0  0  0  0  0  0  0  0  0  0  0  0
  -21.4880    0.0100  -32.7130 N   0  0  0  0  0  0  0  0  0  0  0  0
  -20.2170   -0.1160  -32.2930 C   0  0  0  0  0  0  0  0  0  0  0  0
  -19.6480   -0.4450  -31.1010 N   0  0  0  0  0  0  0  0  0  0  0  0
  -18.3450   -0.4080  -31.2890 N   0  0  0  0  0  0  0  0  0  0  0  0
  -18.0450   -0.0760  -32.5300 N   0  0  0  0  0  0  0  0  0  0  0  0
  -19.1890    0.1170  -33.1970 C   0  0  0  0  0  0  0  0  0  0  0  0
  -19.4830    0.4730  -34.5020 C   0  0  0  0  0  0  0  0  0  0  0  0
  -20.7800    0.5710  -34.8200 N   0  0  0  0  0  0  0  0  0  0  0  0
  -23.1780    0.5090  -34.4630 C   0  0  1  0  0  3  0  0  0  0  0  0
  -23.3010    1.1030  -35.7960 C   0  0  0  0  0  2  0  0  0  0  0  0
  -23.6800    0.3330  -36.8930 N   0  0  0  0  0  0  0  0  0  0  0  0
  -23.7200   -1.0530  -36.8280 C   0  0  0  0  0  2  0  0  0  0  0  0
  -23.3580   -1.6770  -35.5110 C   0  0  0  0  0  2  0  0  0  0  0  0
  -23.8630   -0.8320  -34.3980 C   0  0  0  0  0  2  0  0  0  0  0  0
  -23.3630    1.0440  -38.3990 S   0  0  0  0  0  0  0  0  0  0  0  0
  -24.4900    1.8710  -38.9090 O   0  0  0  0  0  0  0  0  0  0  0  0
  -23.0280   -0.0620  -39.3790 O   0  0  0  0  0  0  0  0  0  0  0  0
  -21.8890    2.0730  -38.3270 C   0  0  0  0  0  1  0  0  0  0  0  0
  -18.4690    0.7100  -35.4200 O   0  0  0  0  0  0  0  0  0  0  0  0
  -17.8800   -0.0480  -35.7300 H   0  0  0  0  0  0  0  0  0  0  0  0
  -20.3380   -0.7640  -29.8910 C   0  0  0  0  0  2  0  0  0  0  0  0
  -20.3570   -2.2140  -29.5820 C   0  0  0  0  0  0  0  0  0  0  0  0
  -19.9950   -2.6200  -28.3220 C   0  0  0  0  0  0  0  0  0  0  0  0
  -19.9850   -3.9620  -27.9480 C   0  0  0  0  0  3  0  0  0  0  0  0
  -19.5260   -1.4390  -27.1170 Cl  0  0  0  0  0  0  0  0  0  0  0  0
  -20.3450   -4.9320  -28.8590 C   0  0  0  0  0  3  0  0  0  0  0  0
  -20.7100   -4.5330  -30.1250 C   0  0  0  0  0  3  0  0  0  0  0  0
  -20.7170   -3.1870  -30.4880 C   0  0  0  0  0  3  0  0  0  0  0  0
  1  2  2  0  0  0  0
  2  3  1  0  0  0  0
  3  4  1  0  0  0  0
  4 22  1  0  0  0  0
  5  4  1  0  0  0  0
  6  5  2  0  0  0  0
  7  6  1  0  0  0  0
  7  3  2  0  0  0  0
  8  7  1  0  0  0  0
  9  8  2  0  0  0  0
  9  1  1  0  0  0  0
 10 15  1  0  0  0  0
 10  1  1  6  0  0  0
 11 10  1  0  0  0  0
 12 13  1  0  0  0  0
 12 11  1  0  0  0  0
 13 14  1  0  0  0  0
 14 15  1  0  0  0  0
 16 19  1  0  0  0  0
 16 12  1  0  0  0  0
 17 16  2  0  0  0  0
 18 16  2  0  0  0  0
 20  8  1  0  0  0  0
 21 20  1  0  0  0  0
 22 23  1  0  0  0  0
 23 24  1  0  0  0  0
 24 25  2  0  0  0  0
 24 26  1  0  0  0  0
 27 25  1  0  0  0  0
 28 27  2  0  0  0  0
 29 28  1  0  0  0  0
 29 23  2  0  0  0  0
M  END
>  <Pose>
1

>  <Score>
-8.989

$$$$
