/Users/jonathanwahrer/Desktop/Msc/3_Semester/Drug_Design_Praktikum/waehrer_HTS_screening/HTS_experiment/out/docking_results/vina_output/5l4q/2197_docked.pdbqt
 OpenBabel03212219203D

 28 31  0  0  1  0  0  0  0  0999 V2000
  -18.8420   -0.2280  -30.5450 N   0  0  0  0  0  0  0  0  0  0  0  0
  -19.3980    0.7280  -31.5250 C   0  0  0  0  0  2  0  0  0  0  0  0
  -20.2940   -0.0370  -32.4260 C   0  0  2  0  0  3  0  0  0  0  0  0
  -19.8550   -1.1960  -32.9500 O   0  0  0  0  0  0  0  0  0  0  0  0
  -18.7910   -1.8190  -32.4210 C   0  0  0  0  0  2  0  0  0  0  0  0
  -18.0650   -1.1240  -31.3210 C   0  0  0  0  0  2  0  0  0  0  0  0
  -20.6860    0.8810  -33.5350 C   0  0  0  0  0  0  0  0  0  0  0  0
  -19.8720    1.7920  -33.8410 O   0  0  0  0  0  0  0  0  0  0  0  0
  -21.8920    0.8010  -34.2570 N   0  0  0  0  0  0  0  0  0  0  0  0
  -22.9230   -0.1910  -34.0180 C   0  0  0  0  0  2  0  0  0  0  0  0
  -22.2040    1.7450  -35.3400 C   0  0  0  0  0  2  0  0  0  0  0  0
  -24.0920    0.1500  -34.9200 C   0  0  0  0  0  2  0  0  0  0  0  0
  -23.7430    0.1090  -36.3280 N   0  0  0  0  0  0  0  0  0  0  0  0
  -22.5440    0.8560  -36.5430 C   0  0  0  0  0  2  0  0  0  0  0  0
  -23.6920   -1.2570  -36.7380 C   0  0  0  0  0  2  0  0  0  0  0  0
  -24.0390   -1.4720  -38.1860 C   0  0  0  0  0  3  0  0  0  0  0  0
  -24.0370   -2.9450  -38.5910 C   0  0  0  0  0  2  0  0  0  0  0  0
  -23.0680   -1.9600  -39.1670 C   0  0  0  0  0  2  0  0  0  0  0  0
  -20.0370   -0.8370  -29.5280 S   0  0  0  0  0  0  0  0  0  0  0  0
  -21.0960    0.2600  -29.3590 O   0  0  0  0  0  0  0  0  0  0  0  0
  -20.8020   -1.9950  -30.1220 O   0  0  0  0  0  0  0  0  0  0  0  0
  -19.4790   -1.1950  -27.9250 C   0  0  0  0  0  0  0  0  0  0  0  0
  -18.8710   -0.2430  -27.1370 C   0  0  0  0  0  0  0  0  0  0  0  0
  -18.3710   -0.5340  -25.8820 C   0  0  0  0  0  3  0  0  0  0  0  0
  -18.7740    1.4460  -27.6710 Cl  0  0  0  0  0  0  0  0  0  0  0  0
  -18.4810   -1.8110  -25.3890 C   0  0  0  0  0  3  0  0  0  0  0  0
  -19.0930   -2.7820  -26.1670 C   0  0  0  0  0  3  0  0  0  0  0  0
  -19.5830   -2.4880  -27.4090 C   0  0  0  0  0  3  0  0  0  0  0  0
  1 19  1  0  0  0  0
  2  1  1  0  0  0  0
  3  7  1  6  0  0  0
  3  2  1  0  0  0  0
  4  3  1  0  0  0  0
  4  5  1  0  0  0  0
  5  6  1  0  0  0  0
  6  1  1  0  0  0  0
  8  7  2  0  0  0  0
  9 10  1  0  0  0  0
  9  7  1  0  0  0  0
 11  9  1  0  0  0  0
 12 10  1  0  0  0  0
 13 12  1  0  0  0  0
 14 13  1  0  0  0  0
 14 11  1  0  0  0  0
 15 13  1  0  0  0  0
 16 15  1  0  0  0  0
 17 16  1  0  0  0  0
 18 17  1  0  0  0  0
 18 16  1  0  0  0  0
 19 20  2  0  0  0  0
 19 22  1  0  0  0  0
 21 19  2  0  0  0  0
 22 28  2  0  0  0  0
 22 23  1  0  0  0  0
 23 24  2  0  0  0  0
 24 26  1  0  0  0  0
 25 23  1  0  0  0  0
 27 26  2  0  0  0  0
 28 27  1  0  0  0  0
M  END
>  <Pose>
1

>  <Score>
-7.937

$$$$
