/Users/jonathanwahrer/Desktop/Msc/3_Semester/Drug_Design_Praktikum/waehrer_HTS_screening/HTS_experiment/out/docking_results/vina_output/5l4q/2210_docked.pdbqt
 OpenBabel03212219203D

 33 36  0  0  0  0  0  0  0  0999 V2000
  -23.8390   -0.5510  -37.4350 C   0  0  0  0  0  3  0  0  0  0  0  0
  -22.9640   -0.4260  -36.4290 C   0  0  0  0  0  0  0  0  0  0  0  0
  -21.6670    0.0490  -36.5810 O   0  0  0  0  0  0  0  0  0  0  0  0
  -21.0470    0.0750  -35.3230 C   0  0  0  0  0  0  0  0  0  0  0  0
  -21.8670   -0.3670  -34.3310 C   0  0  0  0  0  0  0  0  0  0  0  0
  -21.4660   -0.4030  -33.0160 C   0  0  0  0  0  3  0  0  0  0  0  0
  -20.1880    0.0230  -32.6720 C   0  0  0  0  0  3  0  0  0  0  0  0
  -19.3510    0.4730  -33.6950 C   0  0  0  0  0  0  0  0  0  0  0  0
  -19.7500    0.5030  -34.9910 C   0  0  0  0  0  0  0  0  0  0  0  0
  -18.0870    0.8800  -33.2680 O   0  0  0  0  0  1  0  0  0  0  0  0
  -23.1450   -0.7140  -35.0220 C   0  0  0  0  0  0  0  0  0  0  0  0
  -24.1680   -1.1690  -34.4940 O   0  0  0  0  0  0  0  0  0  0  0  0
  -18.8630    0.7820  -36.1410 C   0  0  0  0  0  2  0  0  0  0  0  0
  -18.9530    2.0820  -36.6170 N   0  0  0  0  0  4  0  0  0  0  0  0
  -19.5420    2.1390  -37.9920 C   0  0  0  0  0  2  0  0  0  0  0  0
  -20.6310    3.2360  -37.8880 C   0  0  0  0  0  2  0  0  0  0  0  0
  -20.4190    3.9990  -36.6990 N   0  0  0  0  0  0  0  0  0  0  0  0
  -19.0960    4.4350  -36.4810 C   0  0  0  0  0  2  0  0  0  0  0  0
  -18.1200    3.1790  -36.4650 C   0  0  0  0  0  2  0  0  0  0  0  0
  -19.9060    2.3810  -36.0530 H   0  0  0  0  0  0  0  0  0  0  0  0
  -21.4810    4.2420  -35.8570 C   0  0  0  0  0  2  0  0  0  0  0  0
  -21.4580    3.7510  -34.4440 C   0  0  0  0  0  2  0  0  0  0  0  0
  -22.6210    3.0220  -34.1450 O   0  0  0  0  0  0  0  0  0  0  0  0
  -22.3530    2.0900  -33.8530 H   0  0  0  0  0  0  0  0  0  0  0  0
  -23.3360   -0.1300  -38.7540 C   0  0  0  0  0  0  0  0  0  0  0  0
  -23.4480    1.1630  -39.1220 C   0  0  0  0  0  3  0  0  0  0  0  0
  -23.0500    1.5320  -40.4190 C   0  0  0  0  0  0  0  0  0  0  0  0
  -23.1940    3.3510  -40.9680 Br  0  0  0  0  0  0  0  0  0  0  0  0
  -22.5580    0.6150  -41.3130 C   0  0  0  0  0  3  0  0  0  0  0  0
  -22.4630   -0.7000  -40.9040 C   0  0  0  0  0  3  0  0  0  0  0  0
  -22.8500   -1.0900  -39.6130 C   0  0  0  0  0  0  0  0  0  0  0  0
  -22.7570   -2.4110  -39.2000 O   0  0  0  0  0  0  0  0  0  0  0  0
  -23.6270   -3.4390  -39.5250 C   0  0  0  0  0  1  0  0  0  0  0  0
  1  2  2  0  0  0  0
  2 11  1  0  0  0  0
  3  2  1  0  0  0  0
  3  4  1  0  0  0  0
  4  9  2  0  0  0  0
  4  5  1  0  0  0  0
  5  6  2  0  0  0  0
  6  7  1  0  0  0  0
  8 10  1  0  0  0  0
  8  7  2  0  0  0  0
  9  8  1  0  0  0  0
 11 12  2  0  0  0  0
 11  5  1  0  0  0  0
 13  9  1  0  0  0  0
 14 19  1  0  0  0  0
 14 13  1  0  0  0  0
 14 20  1  0  0  0  0
 15 16  1  0  0  0  0
 15 14  1  0  0  0  0
 16 17  1  0  0  0  0
 17 18  1  0  0  0  0
 17 21  1  0  0  0  0
 18 19  1  0  0  0  0
 21 22  1  0  0  0  0
 22 23  1  0  0  0  0
 23 24  1  0  0  0  0
 25  1  1  0  0  0  0
 26 25  1  0  0  0  0
 27 26  2  0  0  0  0
 28 27  1  0  0  0  0
 29 30  2  0  0  0  0
 29 27  1  0  0  0  0
 30 31  1  0  0  0  0
 31 32  1  0  0  0  0
 31 25  2  0  0  0  0
 33 32  1  0  0  0  0
M  END
>  <Pose>
1

>  <Score>
-7.615

$$$$
