MODEL 1
REMARK VINA RESULT:    -7.615      0.000      0.000
REMARK INTER + INTRA:         -12.337
REMARK INTER:                 -10.509
REMARK INTRA:                  -1.828
REMARK UNBOUND:                -1.828
REMARK  7 active torsions:
REMARK  status: ('A' for Active; 'I' for Inactive)
REMARK    1  A    between atoms: C_4  and  C_10 
REMARK    2  A    between atoms: C_5  and  O_8 
REMARK    3  A    between atoms: C_18  and  C_19 
REMARK    4  A    between atoms: C_19  and  N_20 
REMARK    5  A    between atoms: N_23  and  C_26 
REMARK    6  A    between atoms: C_26  and  C_27 
REMARK    7  A    between atoms: C_27  and  O_28 
ROOT
ATOM      1  C   UNK d   1     -23.839  -0.551 -37.435  0.00  0.00     0.055 C 
ATOM      2  C   UNK d   1     -22.964  -0.426 -36.429  0.00  0.00     0.128 A 
ATOM      3  O   UNK d   1     -21.667   0.049 -36.581  0.00  0.00    -0.305 OA
ATOM      4  C   UNK d   1     -21.047   0.075 -35.323  0.00  0.00     0.101 A 
ATOM      5  C   UNK d   1     -21.867  -0.367 -34.331  0.00  0.00     0.051 A 
ATOM      6  C   UNK d   1     -21.466  -0.403 -33.016  0.00  0.00     0.021 A 
ATOM      7  C   UNK d   1     -20.188   0.023 -32.672  0.00  0.00     0.041 A 
ATOM      8  C   UNK d   1     -19.351   0.473 -33.695  0.00  0.00     0.118 A 
ATOM      9  C   UNK d   1     -19.750   0.503 -34.991  0.00  0.00     0.039 A 
ATOM     10  O   UNK d   1     -18.087   0.880 -33.268  0.00  0.00    -0.191 OA
ATOM     11  C   UNK d   1     -23.145  -0.714 -35.022  0.00  0.00     0.218 A 
ATOM     12  O   UNK d   1     -24.168  -1.169 -34.494  0.00  0.00    -0.284 OA
ENDROOT
BRANCH   9  13
ATOM     13  C   UNK d   1     -18.863   0.782 -36.141  0.00  0.00     0.279 C 
BRANCH  13  14
ATOM     14  N   UNK d   1     -18.953   2.082 -36.617  0.00  0.00    -0.064 N 
ATOM     15  C   UNK d   1     -19.542   2.139 -37.992  0.00  0.00     0.254 C 
ATOM     16  C   UNK d   1     -20.631   3.236 -37.888  0.00  0.00     0.144 C 
ATOM     17  N   UNK d   1     -20.419   3.999 -36.699  0.00  0.00    -0.407 N 
ATOM     18  C   UNK d   1     -19.096   4.435 -36.481  0.00  0.00     0.144 C 
ATOM     19  C   UNK d   1     -18.120   3.179 -36.465  0.00  0.00     0.254 C 
ATOM     20  H   UNK d   1     -19.906   2.381 -36.053  0.00  0.00     0.280 HD
BRANCH  17  21
ATOM     21  C   UNK d   1     -21.481   4.242 -35.857  0.00  0.00     0.143 C 
BRANCH  21  22
ATOM     22  C   UNK d   1     -21.458   3.751 -34.444  0.00  0.00     0.183 C 
BRANCH  22  23
ATOM     23  O   UNK d   1     -22.621   3.022 -34.145  0.00  0.00    -0.399 OA
ATOM     24  H   UNK d   1     -22.353   2.090 -33.853  0.00  0.00     0.209 HD
ENDBRANCH  22  23
ENDBRANCH  21  22
ENDBRANCH  17  21
ENDBRANCH  13  14
ENDBRANCH   9  13
BRANCH   1  25
ATOM     25  C   UNK d   1     -23.336  -0.130 -38.754  0.00  0.00     0.001 A 
ATOM     26  C   UNK d   1     -23.448   1.163 -39.122  0.00  0.00     0.033 A 
ATOM     27  C   UNK d   1     -23.050   1.532 -40.419  0.00  0.00     0.011 A 
ATOM     28 Br   UNK d   1     -23.194   3.351 -40.968  0.00  0.00    -0.051 Br
ATOM     29  C   UNK d   1     -22.558   0.615 -41.313  0.00  0.00     0.022 A 
ATOM     30  C   UNK d   1     -22.463  -0.700 -40.904  0.00  0.00     0.039 A 
ATOM     31  C   UNK d   1     -22.850  -1.090 -39.613  0.00  0.00     0.078 A 
BRANCH  31  32
ATOM     32  O   UNK d   1     -22.757  -2.411 -39.200  0.00  0.00    -0.355 OA
ATOM     33  C   UNK d   1     -23.627  -3.439 -39.525  0.00  0.00     0.210 C 
ENDBRANCH  31  32
ENDBRANCH   1  25
TORSDOF 7
ENDMDL
