MODEL 1
REMARK VINA RESULT:    -7.596      0.000      0.000
REMARK INTER + INTRA:          -7.890
REMARK INTER:                  -8.040
REMARK INTRA:                   0.149
REMARK UNBOUND:                 0.149
REMARK  1 active torsions:
REMARK  status: ('A' for Active; 'I' for Inactive)
REMARK    1  A    between atoms: C_9  and  C_21 
ROOT
ATOM      1 Cl   UNK d   1     -24.287  -1.150 -37.800  0.00  0.00    -0.081 Cl
ATOM      2  C   UNK d   1     -22.912  -0.087 -38.006  0.00  0.00     0.070 A 
ATOM      3  C   UNK d   1     -21.947  -0.050 -36.989  0.00  0.00     0.107 A 
ATOM      4  C   UNK d   1     -20.859   0.773 -37.121  0.00  0.00    -0.007 A 
ATOM      5  C   UNK d   1     -20.776   1.540 -38.288  0.00  0.00     0.035 A 
ATOM      6  C   UNK d   1     -21.730   1.496 -39.280  0.00  0.00     0.036 A 
ATOM      7  C   UNK d   1     -22.830   0.667 -39.151  0.00  0.00     0.050 A 
ATOM      8 Cl   UNK d   1     -21.603   2.471 -40.738  0.00  0.00    -0.084 Cl
ATOM      9  C   UNK d   1     -19.800   0.876 -36.106  0.00  0.00     0.107 A 
ATOM     10  C   UNK d   1     -20.075  -0.010 -34.962  0.00  0.00     0.075 A 
ATOM     11  C   UNK d   1     -21.161  -0.819 -34.851  0.00  0.00     0.167 A 
ATOM     12  N   UNK d   1     -21.369  -1.623 -33.767  0.00  0.00    -0.283 N 
ATOM     13  C   UNK d   1     -20.458  -1.594 -32.797  0.00  0.00     0.332 A 
ATOM     14  O   UNK d   1     -20.609  -2.325 -31.767  0.00  0.00    -0.246 OA
ATOM     15  N   UNK d   1     -19.366  -0.807 -32.866  0.00  0.00    -0.270 N 
ATOM     16  C   UNK d   1     -19.152  -0.016 -33.923  0.00  0.00     0.262 A 
ATOM     17  O   UNK d   1     -18.133   0.718 -33.988  0.00  0.00    -0.267 OA
ATOM     18  C   UNK d   1     -18.405  -0.822 -31.771  0.00  0.00     0.164 C 
ATOM     19  C   UNK d   1     -22.537  -2.472 -33.680  0.00  0.00     0.163 C 
ATOM     20  O   UNK d   1     -22.086  -0.834 -35.859  0.00  0.00    -0.290 OA
ENDROOT
BRANCH   9  21
ATOM     21  C   UNK d   1     -19.601   2.297 -35.665  0.00  0.00     0.078 A 
ATOM     22  C   UNK d   1     -20.528   2.956 -34.895  0.00  0.00     0.197 A 
ATOM     23  N   UNK d   1     -20.383   4.229 -34.495  0.00  0.00    -0.281 N 
ATOM     24  O   UNK d   1     -21.667   2.279 -34.511  0.00  0.00    -0.171 OA
ATOM     25  C   UNK d   1     -19.271   4.889 -34.871  0.00  0.00     0.332 A 
ATOM     26  C   UNK d   1     -21.378   4.897 -33.678  0.00  0.00     0.163 C 
ATOM     27  O   UNK d   1     -19.145   6.090 -34.490  0.00  0.00    -0.246 OA
ATOM     28  N   UNK d   1     -18.337   4.283 -35.626  0.00  0.00    -0.270 N 
ATOM     29  C   UNK d   1     -18.463   3.012 -36.034  0.00  0.00     0.262 A 
ATOM     30  C   UNK d   1     -17.163   5.034 -36.005  0.00  0.00     0.164 C 
ATOM     31  O   UNK d   1     -17.610   2.420 -36.737  0.00  0.00    -0.267 OA
ENDBRANCH   9  21
TORSDOF 1
ENDMDL
