/Users/jonathanwahrer/Desktop/Msc/3_Semester/Drug_Design_Praktikum/waehrer_HTS_screening/HTS_experiment/out/docking_results/vina_output/5l4q/2213_docked.pdbqt
 OpenBabel03212219203D

 31 34  0  0  0  0  0  0  0  0999 V2000
  -24.2870   -1.1500  -37.8000 Cl  0  0  0  0  0  0  0  0  0  0  0  0
  -22.9120   -0.0870  -38.0060 C   0  0  0  0  0  0  0  0  0  0  0  0
  -21.9470   -0.0500  -36.9890 C   0  0  0  0  0  0  0  0  0  0  0  0
  -20.8590    0.7730  -37.1210 C   0  0  0  0  0  0  0  0  0  0  0  0
  -20.7760    1.5400  -38.2880 C   0  0  0  0  0  2  0  0  0  0  0  0
  -21.7300    1.4960  -39.2800 C   0  0  0  0  0  0  0  0  0  0  0  0
  -22.8300    0.6670  -39.1510 C   0  0  0  0  0  3  0  0  0  0  0  0
  -21.6030    2.4710  -40.7380 Cl  0  0  0  0  0  0  0  0  0  0  0  0
  -19.8000    0.8760  -36.1060 C   0  0  0  0  0  0  0  0  0  0  0  0
  -20.0750   -0.0100  -34.9620 C   0  0  0  0  0  0  0  0  0  0  0  0
  -21.1610   -0.8190  -34.8510 C   0  0  0  0  0  0  0  0  0  0  0  0
  -21.3690   -1.6230  -33.7670 N   0  0  0  0  0  0  0  0  0  0  0  0
  -20.4580   -1.5940  -32.7970 C   0  0  0  0  0  0  0  0  0  0  0  0
  -20.6090   -2.3250  -31.7670 O   0  0  0  0  0  0  0  0  0  0  0  0
  -19.3660   -0.8070  -32.8660 N   0  0  0  0  0  0  0  0  0  0  0  0
  -19.1520   -0.0160  -33.9230 C   0  0  0  0  0  0  0  0  0  0  0  0
  -18.1330    0.7180  -33.9880 O   0  0  0  0  0  0  0  0  0  0  0  0
  -18.4050   -0.8220  -31.7710 C   0  0  0  0  0  1  0  0  0  0  0  0
  -22.5370   -2.4720  -33.6800 C   0  0  0  0  0  1  0  0  0  0  0  0
  -22.0860   -0.8340  -35.8590 O   0  0  0  0  0  0  0  0  0  0  0  0
  -19.6010    2.2970  -35.6650 C   0  0  0  0  0  3  0  0  0  0  0  0
  -20.5280    2.9560  -34.8950 C   0  0  0  0  0  0  0  0  0  0  0  0
  -20.3830    4.2290  -34.4950 N   0  0  0  0  0  0  0  0  0  0  0  0
  -21.6670    2.2790  -34.5110 O   0  0  0  0  0  0  0  0  0  0  0  0
  -19.2710    4.8890  -34.8710 C   0  0  0  0  0  0  0  0  0  0  0  0
  -21.3780    4.8970  -33.6780 C   0  0  0  0  0  1  0  0  0  0  0  0
  -19.1450    6.0900  -34.4900 O   0  0  0  0  0  0  0  0  0  0  0  0
  -18.3370    4.2830  -35.6260 N   0  0  0  0  0  0  0  0  0  0  0  0
  -18.4630    3.0120  -36.0340 C   0  0  0  0  0  0  0  0  0  0  0  0
  -17.1630    5.0340  -36.0050 C   0  0  0  0  0  1  0  0  0  0  0  0
  -17.6100    2.4200  -36.7370 O   0  0  0  0  0  0  0  0  0  0  0  0
  2  1  1  0  0  0  0
  2  3  2  0  0  0  0
  3 20  1  0  0  0  0
  4  3  1  0  0  0  0
  4  9  2  0  0  0  0
  5  4  1  0  0  0  0
  6  7  2  0  0  0  0
  6  5  1  0  0  0  0
  7  2  1  0  0  0  0
  8  6  1  0  0  0  0
  9 21  1  0  0  0  0
  9 10  1  0  0  0  0
 10 11  2  0  0  0  0
 10 16  1  0  0  0  0
 11 12  1  0  0  0  0
 12 19  1  0  0  0  0
 12 13  1  0  0  0  0
 13 14  2  0  0  0  0
 15 13  1  0  0  0  0
 15 18  1  0  0  0  0
 16 15  1  0  0  0  0
 17 16  2  0  0  0  0
 20 11  1  0  0  0  0
 21 22  1  0  0  0  0
 22 24  2  0  0  0  0
 22 23  1  0  0  0  0
 23 26  1  0  0  0  0
 25 23  1  0  0  0  0
 25 27  2  0  0  0  0
 28 25  1  0  0  0  0
 29 21  1  0  0  0  0
 29 28  1  0  0  0  0
 30 28  1  0  0  0  0
 31 29  2  0  0  0  0
M  END
>  <Pose>
1

>  <Score>
-7.596

$$$$
