MODEL 1
REMARK VINA RESULT:    -8.055      0.000      0.000
REMARK INTER + INTRA:         -10.674
REMARK INTER:                  -9.939
REMARK INTRA:                  -0.735
REMARK UNBOUND:                -0.735
REMARK  4 active torsions:
REMARK  status: ('A' for Active; 'I' for Inactive)
REMARK    1  A    between atoms: C_13  and  C_27 
REMARK    2  A    between atoms: N_18  and  C_21 
REMARK    3  A    between atoms: C_21  and  C_22 
REMARK    4  A    between atoms: C_27  and  C_28 
REMARK       I    between atoms: C_28  and  N_30 
ROOT
ATOM      1 Cl   UNK d   1     -19.650   3.783 -40.575  0.00  0.00    -0.084 Cl
ATOM      2  C   UNK d   1     -20.296   3.777 -38.947  0.00  0.00     0.034 A 
ATOM      3  C   UNK d   1     -20.785   2.643 -38.359  0.00  0.00     0.036 A 
ATOM      4  C   UNK d   1     -21.292   2.683 -37.057  0.00  0.00     0.019 A 
ATOM      5  C   UNK d   1     -21.280   3.879 -36.403  0.00  0.00     0.044 A 
ATOM      6  C   UNK d   1     -20.778   5.045 -37.004  0.00  0.00     0.032 A 
ATOM      7  C   UNK d   1     -20.283   5.005 -38.277  0.00  0.00     0.026 A 
ATOM      8  N   UNK d   1     -21.838   3.694 -35.106  0.00  0.00    -0.324 N 
ATOM      9  C   UNK d   1     -22.209   2.347 -34.941  0.00  0.00     0.267 A 
ATOM     10  O   UNK d   1     -22.739   1.879 -33.884  0.00  0.00    -0.270 OA
ATOM     11  C   UNK d   1     -21.870   1.648 -36.184  0.00  0.00     0.279 A 
ATOM     12  N   UNK d   1     -23.036   1.132 -36.866  0.00  0.00     0.114 N 
ATOM     13  C   UNK d   1     -22.989  -0.295 -36.906  0.00  0.00     0.245 C 
ATOM     14  C   UNK d   1     -21.867  -0.680 -36.026  0.00  0.00     0.128 C 
ATOM     15  C   UNK d   1     -20.925   0.490 -35.963  0.00  0.00     0.147 C 
ATOM     16  C   UNK d   1     -20.419   0.423 -34.574  0.00  0.00     0.235 C 
ATOM     17  O   UNK d   1     -19.383   0.947 -34.094  0.00  0.00    -0.272 OA
ATOM     18  N   UNK d   1     -21.314  -0.372 -33.767  0.00  0.00    -0.285 N 
ATOM     19  C   UNK d   1     -22.385  -0.769 -34.615  0.00  0.00     0.233 C 
ATOM     20  O   UNK d   1     -23.522  -1.118 -34.222  0.00  0.00    -0.272 OA
ATOM     21  H   UNK d   1     -21.964   4.443 -34.360  0.00  0.00     0.169 HD
ATOM     22  H   UNK d   1     -23.120   1.476 -37.849  0.00  0.00     0.318 HD
ENDROOT
BRANCH  13  23
ATOM     23  C   UNK d   1     -22.899  -0.838 -38.308  0.00  0.00     0.139 C 
BRANCH  23  24
ATOM     24  C   UNK d   1     -23.292  -2.226 -38.452  0.00  0.00     0.217 C 
ATOM     25  O   UNK d   1     -24.258  -2.677 -37.801  0.00  0.00    -0.274 OA
ATOM     26  N   UNK d   1     -22.598  -3.093 -39.326  0.00  0.00    -0.370 N 
ATOM     27  H   UNK d   1     -23.134  -3.640 -40.039  0.00  0.00     0.159 HD
ATOM     28  H   UNK d   1     -21.571  -3.233 -39.315  0.00  0.00     0.159 HD
ENDBRANCH  23  24
ENDBRANCH  13  23
BRANCH  18  29
ATOM     29  C   UNK d   1     -21.136  -0.688 -32.366  0.00  0.00     0.166 C 
BRANCH  29  30
ATOM     30  C   UNK d   1     -20.252  -1.883 -32.135  0.00  0.00     0.140 C 
ATOM     31  O   UNK d   1     -18.989  -1.458 -31.731  0.00  0.00    -0.384 OA
ATOM     32  C   UNK d   1     -18.995  -1.414 -30.356  0.00  0.00     0.168 C 
ATOM     33  C   UNK d   1     -19.997  -2.432 -29.857  0.00  0.00     0.029 C 
ATOM     34  C   UNK d   1     -20.753  -2.836 -31.108  0.00  0.00     0.035 C 
ENDBRANCH  29  30
ENDBRANCH  18  29
TORSDOF 4
ENDMDL
