MODEL 1
REMARK VINA RESULT:    -9.452      0.000      0.000
REMARK INTER + INTRA:         -10.942
REMARK INTER:                 -11.109
REMARK INTRA:                   0.167
REMARK UNBOUND:                 0.167
REMARK  3 active torsions:
REMARK  status: ('A' for Active; 'I' for Inactive)
REMARK    1  A    between atoms: C_5  and  N_8 
REMARK    2  A    between atoms: C_16  and  N_17 
REMARK       I    between atoms: N_20  and  C_23 
REMARK    3  A    between atoms: C_23  and  C_25 
ROOT
ATOM      1  N   UNK d   1     -20.515  -1.394 -30.851  0.00  0.00    -0.195 N 
ATOM      2  N   UNK d   1     -20.341  -0.240 -31.470  0.00  0.00    -0.058 NA
ATOM      3  N   UNK d   1     -20.770  -0.284 -32.716  0.00  0.00    -0.124 NA
ATOM      4  C   UNK d   1     -21.258  -1.510 -32.972  0.00  0.00     0.174 A 
ATOM      5  C   UNK d   1     -21.088  -2.195 -31.785  0.00  0.00     0.188 A 
ATOM      6  N   UNK d   1     -21.496  -3.483 -31.739  0.00  0.00    -0.220 NA
ATOM      7  C   UNK d   1     -22.044  -4.042 -32.834  0.00  0.00     0.237 A 
ATOM      8  N   UNK d   1     -22.207  -3.364 -33.997  0.00  0.00    -0.222 NA
ATOM      9  C   UNK d   1     -21.819  -2.080 -34.097  0.00  0.00     0.162 A 
ENDROOT
BRANCH   9  10
ATOM     10  N   UNK d   1     -21.984  -1.350 -35.313  0.00  0.00    -0.361 N 
ATOM     11  C   UNK d   1     -23.212  -1.586 -36.048  0.00  0.00     0.144 C 
ATOM     12  C   UNK d   1     -23.552  -0.393 -36.938  0.00  0.00     0.144 C 
ATOM     13  N   UNK d   1     -22.383   0.200 -37.480  0.00  0.00    -0.360 N 
ATOM     14  C   UNK d   1     -21.477   0.765 -36.433  0.00  0.00     0.144 C 
ATOM     15  C   UNK d   1     -22.040   0.280 -38.819  0.00  0.00     0.157 C 
ATOM     16  C   UNK d   1     -20.941  -0.455 -35.708  0.00  0.00     0.144 C 
ATOM     17  O   UNK d   1     -20.889   0.890 -39.046  0.00  0.00    -0.177 OA
BRANCH  15  18
ATOM     18  C   UNK d   1     -22.691  -0.176 -40.037  0.00  0.00     0.063 A 
ATOM     19  C   UNK d   1     -22.448   0.567 -41.296  0.00  0.00     0.013 A 
ATOM     20  C   UNK d   1     -22.088  -0.894 -41.155  0.00  0.00     0.013 A 
ENDBRANCH  15  18
ENDBRANCH   9  10
BRANCH   1  21
ATOM     21  C   UNK d   1     -20.176  -1.717 -29.511  0.00  0.00     0.062 A 
ATOM     22  C   UNK d   1     -20.366  -2.953 -28.938  0.00  0.00     0.033 A 
ATOM     23  C   UNK d   1     -20.018  -3.209 -27.631  0.00  0.00     0.026 A 
ATOM     24  C   UNK d   1     -19.465  -2.217 -26.861  0.00  0.00     0.034 A 
ATOM     25 Cl   UNK d   1     -19.027  -2.546 -25.212  0.00  0.00    -0.084 Cl
ATOM     26  C   UNK d   1     -19.262  -0.980 -27.399  0.00  0.00     0.026 A 
ATOM     27  C   UNK d   1     -19.618  -0.742 -28.714  0.00  0.00     0.033 A 
ENDBRANCH   1  21
TORSDOF 3
ENDMDL
