/Users/jonathanwahrer/Desktop/Msc/3_Semester/Drug_Design_Praktikum/waehrer_HTS_screening/HTS_experiment/out/docking_results/vina_output/5l4q/2231_docked.pdbqt
 OpenBabel03212219213D

 27 31  0  0  0  0  0  0  0  0999 V2000
  -20.5150   -1.3940  -30.8510 N   0  0  0  0  0  0  0  0  0  0  0  0
  -20.3410   -0.2400  -31.4700 N   0  0  0  0  0  0  0  0  0  0  0  0
  -20.7700   -0.2840  -32.7160 N   0  0  0  0  0  0  0  0  0  0  0  0
  -21.2580   -1.5100  -32.9720 C   0  0  0  0  0  0  0  0  0  0  0  0
  -21.0880   -2.1950  -31.7850 C   0  0  0  0  0  0  0  0  0  0  0  0
  -21.4960   -3.4830  -31.7390 N   0  0  0  0  0  0  0  0  0  0  0  0
  -22.0440   -4.0420  -32.8340 C   0  0  0  0  0  3  0  0  0  0  0  0
  -22.2070   -3.3640  -33.9970 N   0  0  0  0  0  0  0  0  0  0  0  0
  -21.8190   -2.0800  -34.0970 C   0  0  0  0  0  0  0  0  0  0  0  0
  -21.9840   -1.3500  -35.3130 N   0  0  0  0  0  0  0  0  0  0  0  0
  -23.2120   -1.5860  -36.0480 C   0  0  0  0  0  2  0  0  0  0  0  0
  -23.5520   -0.3930  -36.9380 C   0  0  0  0  0  2  0  0  0  0  0  0
  -22.3830    0.2000  -37.4800 N   0  0  0  0  0  0  0  0  0  0  0  0
  -21.4770    0.7650  -36.4330 C   0  0  0  0  0  2  0  0  0  0  0  0
  -22.0400    0.2800  -38.8190 C   0  0  0  0  0  0  0  0  0  0  0  0
  -20.9410   -0.4550  -35.7080 C   0  0  0  0  0  2  0  0  0  0  0  0
  -20.8890    0.8900  -39.0460 O   0  0  0  0  0  0  0  0  0  0  0  0
  -22.6910   -0.1760  -40.0370 C   0  0  0  0  0  3  0  0  0  0  0  0
  -22.4480    0.5670  -41.2960 C   0  0  0  0  0  2  0  0  0  0  0  0
  -22.0880   -0.8940  -41.1550 C   0  0  0  0  0  2  0  0  0  0  0  0
  -20.1760   -1.7170  -29.5110 C   0  0  0  0  0  0  0  0  0  0  0  0
  -20.3660   -2.9530  -28.9380 C   0  0  0  0  0  3  0  0  0  0  0  0
  -20.0180   -3.2090  -27.6310 C   0  0  0  0  0  3  0  0  0  0  0  0
  -19.4650   -2.2170  -26.8610 C   0  0  0  0  0  0  0  0  0  0  0  0
  -19.0270   -2.5460  -25.2120 Cl  0  0  0  0  0  0  0  0  0  0  0  0
  -19.2620   -0.9800  -27.3990 C   0  0  0  0  0  3  0  0  0  0  0  0
  -19.6180   -0.7420  -28.7140 C   0  0  0  0  0  3  0  0  0  0  0  0
  1 21  1  0  0  0  0
  2  1  1  0  0  0  0
  3  2  2  0  0  0  0
  4  3  1  0  0  0  0
  4  5  1  0  0  0  0
  5  6  2  0  0  0  0
  5  1  1  0  0  0  0
  7  6  1  0  0  0  0
  8  7  2  0  0  0  0
  9  8  1  0  0  0  0
  9  4  2  0  0  0  0
 10  9  1  0  0  0  0
 11 10  1  0  0  0  0
 12 11  1  0  0  0  0
 13 12  1  0  0  0  0
 13 14  1  0  0  0  0
 14 16  1  0  0  0  0
 15 13  1  0  0  0  0
 16 10  1  0  0  0  0
 17 15  2  0  0  0  0
 18 15  1  0  0  0  0
 19 20  1  0  0  0  0
 19 18  1  0  0  0  0
 20 18  1  0  0  0  0
 21 22  2  0  0  0  0
 21 27  1  0  0  0  0
 22 23  1  0  0  0  0
 23 24  2  0  0  0  0
 24 25  1  0  0  0  0
 26 24  1  0  0  0  0
 27 26  2  0  0  0  0
M  END
>  <Pose>
1

>  <Score>
-9.452

$$$$
