MODEL 1
REMARK VINA RESULT:   -10.620      0.000      0.000
REMARK INTER + INTRA:         -12.043
REMARK INTER:                 -12.483
REMARK INTRA:                   0.440
REMARK UNBOUND:                 0.440
REMARK  3 active torsions:
REMARK  status: ('A' for Active; 'I' for Inactive)
REMARK    1  A    between atoms: C_7  and  N_8 
REMARK       I    between atoms: N_8  and  C_9 
REMARK    2  A    between atoms: C_9  and  C_11 
REMARK    3  A    between atoms: N_13  and  C_18 
ROOT
ATOM      1  N   UNK d   1     -21.058  -1.856 -32.156  0.00  0.00    -0.319 N 
ATOM      2  C   UNK d   1     -20.749  -3.149 -31.725  0.00  0.00     0.293 C 
ATOM      3  O   UNK d   1     -20.694  -4.122 -32.490  0.00  0.00    -0.264 OA
ATOM      4  H   UNK d   1     -21.084  -1.081 -31.421  0.00  0.00     0.169 HD
ENDROOT
BRANCH   2   5
ATOM      5  C   UNK d   1     -20.465  -3.418 -30.288  0.00  0.00     0.213 C 
ATOM      6  N   UNK d   1     -20.046  -2.442 -29.544  0.00  0.00    -0.141 NA
ATOM      7  N   UNK d   1     -19.757  -2.609 -28.191  0.00  0.00    -0.198 N 
ATOM      8  C   UNK d   1     -19.925  -3.881 -27.608  0.00  0.00     0.262 C 
ATOM      9  O   UNK d   1     -19.732  -3.965 -26.348  0.00  0.00    -0.269 OA
ATOM     10  C   UNK d   1     -20.304  -5.074 -28.393  0.00  0.00     0.226 C 
ATOM     11  N   UNK d   1     -20.641  -4.707 -29.724  0.00  0.00    -0.360 N 
ATOM     12  H   UNK d   1     -21.054  -5.439 -30.358  0.00  0.00     0.161 HD
BRANCH   7  13
ATOM     13  C   UNK d   1     -19.286  -1.496 -27.392  0.00  0.00     0.062 A 
ATOM     14  C   UNK d   1     -19.396  -0.199 -27.830  0.00  0.00     0.032 A 
ATOM     15  C   UNK d   1     -18.938   0.859 -27.038  0.00  0.00     0.009 A 
ATOM     16  C   UNK d   1     -18.366   0.623 -25.804  0.00  0.00    -0.062 A 
ATOM     17  C   UNK d   1     -18.261  -0.681 -25.380  0.00  0.00     0.009 A 
ATOM     18  C   UNK d   1     -17.864   1.717 -24.919  0.00  0.00     0.048 C 
ATOM     19  C   UNK d   1     -18.711  -1.707 -26.157  0.00  0.00     0.032 A 
ENDBRANCH   7  13
ENDBRANCH   2   5
BRANCH   1  20
ATOM     20  C   UNK d   1     -21.337  -1.495 -33.480  0.00  0.00     0.059 A 
ATOM     21  C   UNK d   1     -20.451  -0.625 -34.119  0.00  0.00     0.063 A 
ATOM     22 Cl   UNK d   1     -19.057  -0.018 -33.251  0.00  0.00    -0.082 Cl
ATOM     23  C   UNK d   1     -20.637  -0.224 -35.412  0.00  0.00     0.058 A 
ATOM     24  C   UNK d   1     -21.702  -0.655 -36.152  0.00  0.00     0.070 A 
ATOM     25  C   UNK d   1     -22.594  -1.511 -35.562  0.00  0.00     0.098 A 
ATOM     26  N   UNK d   1     -21.916  -0.259 -37.512  0.00  0.00    -0.323 N 
ATOM     27  C   UNK d   1     -22.397  -1.919 -34.231  0.00  0.00     0.070 A 
ATOM     28  O   UNK d   1     -23.706  -1.997 -36.244  0.00  0.00    -0.340 OA
ATOM     29  C   UNK d   1     -23.805  -1.952 -37.675  0.00  0.00     0.278 C 
ATOM     30  C   UNK d   1     -23.052  -0.775 -38.199  0.00  0.00     0.246 C 
ATOM     31  O   UNK d   1     -23.442  -0.243 -39.264  0.00  0.00    -0.271 OA
ATOM     32  H   UNK d   1     -21.257   0.390 -37.985  0.00  0.00     0.169 HD
ENDBRANCH   1  20
TORSDOF 3
ENDMDL
