/Users/jonathanwahrer/Desktop/Msc/3_Semester/Drug_Design_Praktikum/waehrer_HTS_screening/HTS_experiment/out/docking_results/vina_output/5l4q/2266_docked.pdbqt
 OpenBabel03212219213D

 27 30  0  0  1  0  0  0  0  0999 V2000
  -21.6990   -1.8590  -34.1650 N   0  0  0  0  0  0  0  0  0  0  0  0
  -22.1230   -3.0630  -33.5730 C   0  0  0  0  0  2  0  0  0  0  0  0
  -21.1050   -3.6770  -32.6330 C   0  0  0  0  0  2  0  0  0  0  0  0
  -20.7290   -2.5980  -31.6710 C   0  0  1  0  0  3  0  0  0  0  0  0
  -20.4420   -1.3620  -32.2130 C   0  0  0  0  0  0  0  0  0  0  0  0
  -20.0990   -0.3560  -31.4080 N   0  0  0  0  0  0  0  0  0  0  0  0
  -20.0460   -0.5880  -30.0800 C   0  0  2  0  0  3  0  0  0  0  0  0
  -20.3220   -1.7820  -29.5280 N   0  0  0  0  0  0  0  0  0  0  0  0
  -20.1870   -1.7150  -28.1900 N   0  0  0  0  0  0  0  0  0  0  0  0
  -19.8200   -0.4780  -27.8270 C   0  0  0  0  0  3  0  0  0  0  0  0
  -19.7270    0.2410  -28.9950 C   0  0  0  0  0  3  0  0  0  0  0  0
  -20.6720   -2.8240  -30.3140 C   0  0  0  0  0  0  0  0  0  0  0  0
  -20.9410   -3.9640  -29.8560 O   0  0  0  0  0  0  0  0  0  0  0  0
  -20.5350   -1.2360  -33.6870 C   0  0  0  0  0  2  0  0  0  0  0  0
  -20.3510   -2.5270  -27.5520 H   0  0  0  0  0  0  0  0  0  0  0  0
  -22.8340   -0.9490  -35.0010 S   0  0  0  0  0  0  0  0  0  0  0  0
  -24.2380   -1.1430  -34.4470 O   0  0  0  0  0  0  0  0  0  0  0  0
  -22.5320    0.5250  -34.7460 O   0  0  0  0  0  0  0  0  0  0  0  0
  -22.9220   -1.1940  -36.7020 C   0  0  0  0  0  0  0  0  0  0  0  0
  -22.1950   -0.3900  -37.5770 C   0  0  0  0  0  0  0  0  0  0  0  0
  -22.2900   -0.6120  -38.9330 C   0  0  0  0  0  3  0  0  0  0  0  0
  -23.0700   -1.5920  -39.4540 C   0  0  0  0  0  3  0  0  0  0  0  0
  -23.7950   -2.3980  -38.6220 C   0  0  0  0  0  0  0  0  0  0  0  0
  -23.7010   -2.1770  -37.2640 C   0  0  0  0  0  3  0  0  0  0  0  0
  -24.8190   -3.6830  -39.2740 Cl  0  0  0  0  0  0  0  0  0  0  0  0
  -21.3810    0.6250  -37.1320 O   0  0  0  0  0  0  0  0  0  0  0  0
  -19.9860    0.5100  -37.3010 C   0  0  0  0  0  1  0  0  0  0  0  0
  1 14  1  0  0  0  0
  1  2  1  0  0  0  0
  2  3  1  0  0  0  0
  4  3  1  1  0  0  0
  4 12  1  0  0  0  0
  5  4  1  0  0  0  0
  5  6  2  0  0  0  0
  6  7  1  0  0  0  0
  7  8  1  0  0  0  0
  7 11  1  1  0  0  0
  8  9  1  0  0  0  0
  9 10  1  0  0  0  0
  9 15  1  0  0  0  0
 11 10  2  0  0  0  0
 12 13  2  0  0  0  0
 12  8  1  0  0  0  0
 14  5  1  0  0  0  0
 16 18  2  0  0  0  0
 16 17  2  0  0  0  0
 16  1  1  0  0  0  0
 19 16  1  0  0  0  0
 20 26  1  0  0  0  0
 20 19  2  0  0  0  0
 21 20  1  0  0  0  0
 22 21  2  0  0  0  0
 22 23  1  0  0  0  0
 23 24  2  0  0  0  0
 24 19  1  0  0  0  0
 25 23  1  0  0  0  0
 27 26  1  0  0  0  0
M  END
>  <Pose>
1

>  <Score>
-8.735

$$$$
