MODEL 1
REMARK VINA RESULT:    -8.735      0.000      0.000
REMARK INTER + INTRA:         -10.406
REMARK INTER:                 -10.267
REMARK INTRA:                  -0.140
REMARK UNBOUND:                -0.140
REMARK  3 active torsions:
REMARK  status: ('A' for Active; 'I' for Inactive)
REMARK    1  A    between atoms: S_1  and  N_4 
REMARK    2  A    between atoms: S_1  and  C_18 
REMARK    3  A    between atoms: C_19  and  O_25 
ROOT
ATOM      1  N   UNK d   1     -21.699  -1.859 -34.165  0.00  0.00    -0.301 N 
ATOM      2  C   UNK d   1     -22.123  -3.063 -33.573  0.00  0.00     0.140 C 
ATOM      3  C   UNK d   1     -21.105  -3.677 -32.633  0.00  0.00     0.067 C 
ATOM      4  C   UNK d   1     -20.729  -2.598 -31.671  0.00  0.00     0.040 A 
ATOM      5  C   UNK d   1     -20.442  -1.362 -32.213  0.00  0.00     0.067 A 
ATOM      6  N   UNK d   1     -20.099  -0.356 -31.408  0.00  0.00    -0.231 NA
ATOM      7  C   UNK d   1     -20.046  -0.588 -30.080  0.00  0.00     0.154 A 
ATOM      8  N   UNK d   1     -20.322  -1.782 -29.528  0.00  0.00    -0.202 N 
ATOM      9  N   UNK d   1     -20.187  -1.715 -28.190  0.00  0.00    -0.301 N 
ATOM     10  C   UNK d   1     -19.820  -0.478 -27.827  0.00  0.00     0.112 A 
ATOM     11  C   UNK d   1     -19.727   0.241 -28.995  0.00  0.00     0.071 A 
ATOM     12  C   UNK d   1     -20.672  -2.824 -30.314  0.00  0.00     0.276 A 
ATOM     13  O   UNK d   1     -20.941  -3.964 -29.856  0.00  0.00    -0.266 OA
ATOM     14  C   UNK d   1     -20.535  -1.236 -33.687  0.00  0.00     0.195 C 
ATOM     15  H   UNK d   1     -20.351  -2.527 -27.552  0.00  0.00     0.186 HD
ENDROOT
BRANCH   1  16
ATOM     16  S   UNK d   1     -22.834  -0.949 -35.001  0.00  0.00     0.264 S 
ATOM     17  O   UNK d   1     -24.238  -1.143 -34.447  0.00  0.00    -0.200 OA
ATOM     18  O   UNK d   1     -22.532   0.525 -34.746  0.00  0.00    -0.200 OA
BRANCH  16  19
ATOM     19  C   UNK d   1     -22.922  -1.194 -36.702  0.00  0.00     0.114 A 
ATOM     20  C   UNK d   1     -22.195  -0.390 -37.577  0.00  0.00     0.091 A 
ATOM     21  C   UNK d   1     -22.290  -0.612 -38.933  0.00  0.00     0.040 A 
ATOM     22  C   UNK d   1     -23.070  -1.592 -39.454  0.00  0.00     0.026 A 
ATOM     23  C   UNK d   1     -23.795  -2.398 -38.622  0.00  0.00     0.035 A 
ATOM     24  C   UNK d   1     -23.701  -2.177 -37.264  0.00  0.00     0.052 A 
ATOM     25 Cl   UNK d   1     -24.819  -3.683 -39.274  0.00  0.00    -0.084 Cl
BRANCH  20  26
ATOM     26  O   UNK d   1     -21.381   0.625 -37.132  0.00  0.00    -0.354 OA
ATOM     27  C   UNK d   1     -19.986   0.510 -37.301  0.00  0.00     0.210 C 
ENDBRANCH  20  26
ENDBRANCH  16  19
ENDBRANCH   1  16
TORSDOF 3
ENDMDL
