/Users/jonathanwahrer/Desktop/Msc/3_Semester/Drug_Design_Praktikum/waehrer_HTS_screening/HTS_experiment/out/docking_results/vina_output/5l4q/2267_docked.pdbqt
 OpenBabel03212219223D

 27 30  0  0  1  0  0  0  0  0999 V2000
  -21.6700   -2.2140  -34.0320 N   0  0  0  0  0  0  0  0  0  0  0  0
  -22.1870   -3.4340  -33.6010 C   0  0  0  0  0  2  0  0  0  0  0  0
  -21.4780   -4.0030  -32.3940 C   0  0  0  0  0  2  0  0  0  0  0  0
  -20.8650   -2.9710  -31.5260 C   0  0  2  0  0  3  0  0  0  0  0  0
  -20.3160   -1.8780  -32.1510 C   0  0  0  0  0  0  0  0  0  0  0  0
  -19.7390   -0.8960  -31.4490 N   0  0  0  0  0  0  0  0  0  0  0  0
  -19.6960   -0.9850  -30.0790 C   0  0  2  0  0  3  0  0  0  0  0  0
  -20.2400   -2.0660  -29.4830 N   0  0  0  0  0  0  0  0  0  0  0  0
  -20.0710   -1.9130  -28.1670 N   0  0  0  0  0  0  0  0  0  0  0  0
  -19.4380   -0.7740  -27.9130 C   0  0  0  0  0  3  0  0  0  0  0  0
  -19.1750   -0.1370  -29.1250 C   0  0  0  0  0  3  0  0  0  0  0  0
  -20.8300   -3.0760  -30.1360 C   0  0  0  0  0  0  0  0  0  0  0  0
  -21.3360   -4.0800  -29.5800 O   0  0  0  0  0  0  0  0  0  0  0  0
  -20.3790   -1.8060  -33.6210 C   0  0  0  0  0  2  0  0  0  0  0  0
  -20.3850   -2.5850  -27.4300 H   0  0  0  0  0  0  0  0  0  0  0  0
  -22.7050   -1.0510  -34.6310 S   0  0  0  0  0  0  0  0  0  0  0  0
  -24.1180   -1.3580  -34.1890 O   0  0  0  0  0  0  0  0  0  0  0  0
  -22.3710    0.3090  -34.0930 O   0  0  0  0  0  0  0  0  0  0  0  0
  -22.7400   -0.9400  -36.3760 C   0  0  0  0  0  0  0  0  0  0  0  0
  -23.2230   -1.9550  -37.1840 C   0  0  0  0  0  3  0  0  0  0  0  0
  -23.2260   -1.8120  -38.5630 C   0  0  0  0  0  0  0  0  0  0  0  0
  -22.7610   -0.6770  -39.1860 C   0  0  0  0  0  0  0  0  0  0  0  0
  -23.8400   -3.1080  -39.5710 Cl  0  0  0  0  0  0  0  0  0  0  0  0
  -22.2800    0.3340  -38.3830 C   0  0  0  0  0  3  0  0  0  0  0  0
  -22.2770    0.1930  -37.0130 C   0  0  0  0  0  3  0  0  0  0  0  0
  -22.7740   -0.5540  -40.5850 O   0  0  0  0  0  0  0  0  0  0  0  0
  -21.5710   -0.7060  -41.3130 C   0  0  0  0  0  1  0  0  0  0  0  0
  1 14  1  0  0  0  0
  1  2  1  0  0  0  0
  2  3  1  0  0  0  0
  4  3  1  6  0  0  0
  4 12  1  0  0  0  0
  5  4  1  0  0  0  0
  5  6  2  0  0  0  0
  6  7  1  0  0  0  0
  7  8  1  0  0  0  0
  7 11  1  1  0  0  0
  8  9  1  0  0  0  0
  9 10  1  0  0  0  0
  9 15  1  0  0  0  0
 11 10  2  0  0  0  0
 12 13  2  0  0  0  0
 12  8  1  0  0  0  0
 14  5  1  0  0  0  0
 16 17  2  0  0  0  0
 16 18  2  0  0  0  0
 16  1  1  0  0  0  0
 19 16  1  0  0  0  0
 20 19  2  0  0  0  0
 21 20  1  0  0  0  0
 22 21  2  0  0  0  0
 22 24  1  0  0  0  0
 23 21  1  0  0  0  0
 24 25  2  0  0  0  0
 25 19  1  0  0  0  0
 26 22  1  0  0  0  0
 27 26  1  0  0  0  0
M  END
>  <Pose>
1

>  <Score>
-8.567

$$$$
