MODEL 1
REMARK VINA RESULT:    -7.325      0.000      0.000
REMARK INTER + INTRA:          -9.200
REMARK INTER:                  -8.823
REMARK INTRA:                  -0.377
REMARK UNBOUND:                -0.377
REMARK  4 active torsions:
REMARK  status: ('A' for Active; 'I' for Inactive)
REMARK    1  A    between atoms: C_5  and  C_8 
REMARK    2  A    between atoms: C_8  and  O_25 
REMARK    3  A    between atoms: N_9  and  C_17 
REMARK    4  A    between atoms: C_20  and  O_23 
ROOT
ATOM      1  C   UNK d   1     -22.319   1.855 -34.402  0.00  0.00     0.283 C 
ATOM      2  N   UNK d   1     -22.610   1.652 -35.733  0.00  0.00     0.042 N 
ATOM      3  C   UNK d   1     -21.509   2.256 -36.454  0.00  0.00     0.210 C 
ATOM      4  C   UNK d   1     -20.781   1.935 -37.474  0.00  0.00     0.030 C 
ATOM      5  C   UNK d   1     -19.692   2.775 -38.005  0.00  0.00     0.032 C 
ATOM      6  C   UNK d   1     -19.444   4.047 -37.277  0.00  0.00     0.023 C 
ATOM      7  C   UNK d   1     -20.600   4.539 -36.473  0.00  0.00     0.125 C 
ATOM      8  N   UNK d   1     -21.284   3.475 -35.770  0.00  0.00    -0.356 N 
ATOM      9  C   UNK d   1     -21.843   3.335 -34.428  0.00  0.00     0.200 C 
ATOM     10  H   UNK d   1     -23.412   2.344 -35.972  0.00  0.00     0.299 HD
ENDROOT
BRANCH   1  11
ATOM     11  C   UNK d   1     -21.288   1.138 -33.679  0.00  0.00     0.007 A 
ATOM     12  C   UNK d   1     -21.655   0.157 -32.777  0.00  0.00     0.014 A 
ATOM     13  C   UNK d   1     -20.710  -0.521 -32.066  0.00  0.00     0.024 A 
ATOM     14  C   UNK d   1     -19.353  -0.263 -32.210  0.00  0.00     0.034 A 
ATOM     15 Cl   UNK d   1     -18.123  -1.116 -31.312  0.00  0.00    -0.084 Cl
ATOM     16  C   UNK d   1     -18.991   0.708 -33.103  0.00  0.00     0.024 A 
ATOM     17  C   UNK d   1     -19.949   1.398 -33.826  0.00  0.00     0.014 A 
ENDBRANCH   1  11
BRANCH   1  18
ATOM     18  O   UNK d   1     -23.498   1.927 -33.606  0.00  0.00    -0.359 OA
ATOM     19  H   UNK d   1     -24.020   1.115 -33.832  0.00  0.00     0.213 HD
ENDBRANCH   1  18
BRANCH   2  20
ATOM     20  C   UNK d   1     -23.016   0.441 -36.272  0.00  0.00     0.146 A 
ATOM     21  C   UNK d   1     -22.608  -0.795 -35.902  0.00  0.00     0.041 A 
ATOM     22  C   UNK d   1     -23.119  -1.927 -36.535  0.00  0.00     0.039 A 
ATOM     23  C   UNK d   1     -24.054  -1.851 -37.554  0.00  0.00     0.068 A 
ATOM     24  C   UNK d   1     -24.450  -0.578 -37.909  0.00  0.00     0.039 A 
ATOM     25  C   UNK d   1     -23.966   0.553 -37.307  0.00  0.00     0.041 A 
BRANCH  23  26
ATOM     26  O   UNK d   1     -24.536  -3.001 -38.158  0.00  0.00    -0.356 OA
ATOM     27  C   UNK d   1     -23.930  -3.466 -39.336  0.00  0.00     0.210 C 
ENDBRANCH  23  26
ENDBRANCH   2  20
TORSDOF 4
ENDMDL
