/Users/jonathanwahrer/Desktop/Msc/3_Semester/Drug_Design_Praktikum/waehrer_HTS_screening/HTS_experiment/out/docking_results/vina_output/5l4q/2271_docked.pdbqt
 OpenBabel03212219223D

 27 30  0  0  1  0  0  0  0  0999 V2000
  -22.3190    1.8550  -34.4020 C   0  0  2  0  0  0  0  0  0  0  0  0
  -22.6100    1.6520  -35.7330 N   0  0  0  0  0  4  0  0  0  0  0  0
  -21.5090    2.2560  -36.4540 C   0  0  0  0  0  0  0  0  0  0  0  0
  -20.7810    1.9350  -37.4740 C   0  0  0  0  0  3  0  0  0  0  0  0
  -19.6920    2.7750  -38.0050 C   0  0  0  0  0  2  0  0  0  0  0  0
  -19.4440    4.0470  -37.2770 C   0  0  0  0  0  2  0  0  0  0  0  0
  -20.6000    4.5390  -36.4730 C   0  0  0  0  0  2  0  0  0  0  0  0
  -21.2840    3.4750  -35.7700 N   0  0  0  0  0  0  0  0  0  0  0  0
  -21.8430    3.3350  -34.4280 C   0  0  0  0  0  2  0  0  0  0  0  0
  -23.4120    2.3440  -35.9720 H   0  0  0  0  0  0  0  0  0  0  0  0
  -21.2880    1.1380  -33.6790 C   0  0  0  0  0  0  0  0  0  0  0  0
  -21.6550    0.1570  -32.7770 C   0  0  0  0  0  3  0  0  0  0  0  0
  -20.7100   -0.5210  -32.0660 C   0  0  0  0  0  3  0  0  0  0  0  0
  -19.3530   -0.2630  -32.2100 C   0  0  0  0  0  0  0  0  0  0  0  0
  -18.1230   -1.1160  -31.3120 Cl  0  0  0  0  0  0  0  0  0  0  0  0
  -18.9910    0.7080  -33.1030 C   0  0  0  0  0  3  0  0  0  0  0  0
  -19.9490    1.3980  -33.8260 C   0  0  0  0  0  3  0  0  0  0  0  0
  -23.4980    1.9270  -33.6060 O   0  0  0  0  0  0  0  0  0  0  0  0
  -24.0200    1.1150  -33.8320 H   0  0  0  0  0  0  0  0  0  0  0  0
  -23.0160    0.4410  -36.2720 C   0  0  0  0  0  0  0  0  0  0  0  0
  -22.6080   -0.7950  -35.9020 C   0  0  0  0  0  3  0  0  0  0  0  0
  -23.1190   -1.9270  -36.5350 C   0  0  0  0  0  3  0  0  0  0  0  0
  -24.0540   -1.8510  -37.5540 C   0  0  0  0  0  0  0  0  0  0  0  0
  -24.4500   -0.5780  -37.9090 C   0  0  0  0  0  3  0  0  0  0  0  0
  -23.9660    0.5530  -37.3070 C   0  0  0  0  0  3  0  0  0  0  0  0
  -24.5360   -3.0010  -38.1580 O   0  0  0  0  0  0  0  0  0  0  0  0
  -23.9300   -3.4660  -39.3360 C   0  0  0  0  0  1  0  0  0  0  0  0
  1 11  1  0  0  0  0
  1 18  1  1  0  0  0
  2  1  1  0  0  0  0
  3  8  1  0  0  0  0
  3  2  1  0  0  0  0
  4  3  2  0  0  0  0
  5  4  1  0  0  0  0
  5  6  1  0  0  0  0
  6  7  1  0  0  0  0
  7  8  1  0  0  0  0
  8  9  1  0  0  0  0
  9  1  1  0  0  0  0
 10  2  1  0  0  0  0
 11 12  1  0  0  0  0
 12 13  2  0  0  0  0
 14 13  1  0  0  0  0
 14 15  1  0  0  0  0
 16 14  2  0  0  0  0
 17 11  2  0  0  0  0
 17 16  1  0  0  0  0
 19 18  1  0  0  0  0
 20 21  1  0  0  0  0
 20  2  1  0  0  0  0
 22 21  2  0  0  0  0
 23 22  1  0  0  0  0
 24 23  2  0  0  0  0
 24 25  1  0  0  0  0
 25 20  2  0  0  0  0
 26 23  1  0  0  0  0
 27 26  1  0  0  0  0
M  END
>  <Pose>
1

>  <Score>
-7.325

$$$$
