MODEL 1
REMARK VINA RESULT:    -9.449      0.000      0.000
REMARK INTER + INTRA:         -11.342
REMARK INTER:                 -12.210
REMARK INTRA:                   0.868
REMARK UNBOUND:                 0.868
REMARK  5 active torsions:
REMARK  status: ('A' for Active; 'I' for Inactive)
REMARK    1  A    between atoms: C_3  and  N_15 
REMARK    2  A    between atoms: N_6  and  C_9 
REMARK    3  A    between atoms: N_18  and  C_21 
REMARK    4  A    between atoms: C_21  and  C_22 
REMARK       I    between atoms: C_22  and  N_24 
REMARK       I    between atoms: N_24  and  C_25 
REMARK       I    between atoms: C_25  and  N_27 
REMARK    5  A    between atoms: N_27  and  C_28 
ROOT
ATOM      1  N   UNK d   1     -20.624  -1.270 -33.071  0.00  0.00    -0.375 N 
ATOM      2  C   UNK d   1     -20.327  -1.533 -34.415  0.00  0.00     0.153 C 
ATOM      3  C   UNK d   1     -19.860  -0.175 -35.056  0.00  0.00     0.292 C 
ATOM      4  N   UNK d   1     -19.599   0.872 -34.200  0.00  0.00     0.100 N 
ATOM      5  C   UNK d   1     -20.271   0.932 -32.931  0.00  0.00     0.292 C 
ATOM      6  C   UNK d   1     -21.503  -0.031 -32.937  0.00  0.00     0.153 C 
ENDROOT
BRANCH   1   7
ATOM      7  C   UNK d   1     -20.166  -1.749 -31.853  0.00  0.00     0.077 A 
ATOM      8  C   UNK d   1     -20.756  -2.644 -31.072  0.00  0.00     0.131 A 
ATOM      9 Cl   UNK d   1     -22.011  -3.705 -31.830  0.00  0.00    -0.076 Cl
ATOM     10  C   UNK d   1     -20.454  -2.822 -29.722  0.00  0.00     0.292 A 
ATOM     11  N   UNK d   1     -19.530  -2.078 -29.180  0.00  0.00    -0.197 N 
ATOM     12  O   UNK d   1     -21.124  -3.704 -29.085  0.00  0.00    -0.264 OA
ATOM     13  N   UNK d   1     -18.889  -1.160 -29.949  0.00  0.00    -0.174 NA
ATOM     14  C   UNK d   1     -19.112  -0.944 -31.191  0.00  0.00     0.170 A 
BRANCH  11  15
ATOM     15  C   UNK d   1     -19.326  -1.982 -27.735  0.00  0.00     0.062 A 
ATOM     16  C   UNK d   1     -19.578  -3.013 -26.887  0.00  0.00     0.032 A 
ATOM     17  C   UNK d   1     -19.261  -2.934 -25.548  0.00  0.00     0.002 A 
ATOM     18  C   UNK d   1     -18.668  -1.787 -25.024  0.00  0.00     0.000 A 
ATOM     19  C   UNK d   1     -18.429  -0.742 -25.917  0.00  0.00     0.002 A 
ATOM     20  C   UNK d   1     -18.746  -0.839 -27.216  0.00  0.00     0.032 A 
ENDBRANCH  11  15
ENDBRANCH   1   7
BRANCH   4  21
ATOM     21  C   UNK d   1     -19.870   2.237 -34.762  0.00  0.00     0.375 C 
BRANCH  21  22
ATOM     22  C   UNK d   1     -20.501   2.114 -36.068  0.00  0.00     0.254 C 
ATOM     23  O   UNK d   1     -20.152   2.132 -37.129  0.00  0.00    -0.271 OA
ATOM     24  N   UNK d   1     -22.182   1.879 -35.878  0.00  0.00    -0.278 N 
ATOM     25  C   UNK d   1     -22.403   1.443 -37.302  0.00  0.00     0.323 C 
ATOM     26  H   UNK d   1     -22.064   2.105 -35.148  0.00  0.00     0.173 HD
ATOM     27  O   UNK d   1     -21.782   1.826 -38.255  0.00  0.00    -0.247 OA
ATOM     28  N   UNK d   1     -23.470   0.471 -37.366  0.00  0.00    -0.338 N 
ATOM     29  H   UNK d   1     -23.951   0.261 -36.429  0.00  0.00     0.164 HD
BRANCH  28  30
ATOM     30  C   UNK d   1     -23.958  -0.201 -38.510  0.00  0.00     0.086 C 
ATOM     31  C   UNK d   1     -23.025  -0.590 -39.583  0.00  0.00     0.025 C 
ATOM     32  C   UNK d   1     -22.545  -2.013 -39.282  0.00  0.00     0.002 C 
ATOM     33  C   UNK d   1     -23.779  -2.609 -38.644  0.00  0.00     0.002 C 
ATOM     34  C   UNK d   1     -24.519  -1.535 -37.976  0.00  0.00     0.025 C 
ENDBRANCH  28  30
ENDBRANCH  21  22
ENDBRANCH   4  21
TORSDOF 5
ENDMDL
