/Users/jonathanwahrer/Desktop/Msc/3_Semester/Drug_Design_Praktikum/waehrer_HTS_screening/HTS_experiment/out/docking_results/vina_output/5l4q/2281_docked.pdbqt
 OpenBabel03212219233D

 34 37  0  0  1  0  0  0  0  0999 V2000
  -20.6240   -1.2700  -33.0710 N   0  0  0  0  0  0  0  0  0  0  0  0
  -20.3270   -1.5330  -34.4150 C   0  0  0  0  0  2  0  0  0  0  0  0
  -19.8600   -0.1750  -35.0560 C   0  0  0  0  0  2  0  0  0  0  0  0
  -19.5990    0.8720  -34.2000 N   0  0  0  0  0  0  0  0  0  0  0  0
  -20.2710    0.9320  -32.9310 C   0  0  0  0  0  2  0  0  0  0  0  0
  -21.5030   -0.0310  -32.9370 C   0  0  0  0  0  2  0  0  0  0  0  0
  -20.1660   -1.7490  -31.8530 C   0  0  2  0  0  3  0  0  0  0  0  0
  -20.7560   -2.6440  -31.0720 C   0  0  1  0  0  3  0  0  0  0  0  0
  -22.0110   -3.7050  -31.8300 Cl  0  0  0  0  0  0  0  0  0  0  0  0
  -20.4540   -2.8220  -29.7220 C   0  0  0  0  0  0  0  0  0  0  0  0
  -19.5300   -2.0780  -29.1800 N   0  0  0  0  0  0  0  0  0  0  0  0
  -21.1240   -3.7040  -29.0850 O   0  0  0  0  0  0  0  0  0  0  0  0
  -18.8890   -1.1600  -29.9490 N   0  0  0  0  0  0  0  0  0  0  0  0
  -19.1120   -0.9440  -31.1910 C   0  0  0  0  0  3  0  0  0  0  0  0
  -19.3260   -1.9820  -27.7350 C   0  0  0  0  0  0  0  0  0  0  0  0
  -19.5780   -3.0130  -26.8870 C   0  0  0  0  0  3  0  0  0  0  0  0
  -19.2610   -2.9340  -25.5480 C   0  0  0  0  0  3  0  0  0  0  0  0
  -18.6680   -1.7870  -25.0240 C   0  0  0  0  0  3  0  0  0  0  0  0
  -18.4290   -0.7420  -25.9170 C   0  0  0  0  0  3  0  0  0  0  0  0
  -18.7460   -0.8390  -27.2160 C   0  0  0  0  0  3  0  0  0  0  0  0
  -19.8700    2.2370  -34.7620 C   0  0  0  0  0  2  0  0  0  0  0  0
  -20.5010    2.1140  -36.0680 C   0  0  0  0  0  0  0  0  0  0  0  0
  -20.1520    2.1320  -37.1290 O   0  0  0  0  0  0  0  0  0  0  0  0
  -22.1820    1.8790  -35.8780 N   0  0  0  0  0  0  0  0  0  0  0  0
  -22.4030    1.4430  -37.3020 C   0  0  0  0  0  0  0  0  0  0  0  0
  -22.0640    2.1050  -35.1480 H   0  0  0  0  0  0  0  0  0  0  0  0
  -21.7820    1.8260  -38.2550 O   0  0  0  0  0  0  0  0  0  0  0  0
  -23.4700    0.4710  -37.3660 N   0  0  0  0  0  0  0  0  0  0  0  0
  -23.9510    0.2610  -36.4290 H   0  0  0  0  0  0  0  0  0  0  0  0
  -23.9580   -0.2010  -38.5100 C   0  0  0  0  0  3  0  0  0  0  0  0
  -23.0250   -0.5900  -39.5830 C   0  0  0  0  0  2  0  0  0  0  0  0
  -22.5450   -2.0130  -39.2820 C   0  0  0  0  0  2  0  0  0  0  0  0
  -23.7790   -2.6090  -38.6440 C   0  0  0  0  0  2  0  0  0  0  0  0
  -24.5190   -1.5350  -37.9760 C   0  0  0  0  0  2  0  0  0  0  0  0
  1  6  1  0  0  0  0
  2  1  1  0  0  0  0
  3  2  1  0  0  0  0
  3  4  1  0  0  0  0
  4  5  1  0  0  0  0
  6  5  1  0  0  0  0
  7  1  1  1  0  0  0
  7 14  1  0  0  0  0
  7  8  1  0  0  0  0
  8  9  1  6  0  0  0
  8 10  1  0  0  0  0
 10 11  1  0  0  0  0
 10 12  2  0  0  0  0
 11 15  1  0  0  0  0
 13 11  1  0  0  0  0
 14 13  2  0  0  0  0
 15 20  2  0  0  0  0
 15 16  1  0  0  0  0
 16 17  2  0  0  0  0
 17 18  1  0  0  0  0
 19 18  2  0  0  0  0
 20 19  1  0  0  0  0
 21  4  1  0  0  0  0
 22 24  1  0  0  0  0
 22 21  1  0  0  0  0
 23 22  2  0  0  0  0
 24 26  1  0  0  0  0
 25 24  1  0  0  0  0
 27 25  2  0  0  0  0
 28 25  1  0  0  0  0
 28 29  1  0  0  0  0
 30 34  1  0  0  0  0
 30 28  1  0  0  0  0
 31 32  1  0  0  0  0
 31 30  1  0  0  0  0
 32 33  1  0  0  0  0
 33 34  1  0  0  0  0
M  END
>  <Pose>
1

>  <Score>
-9.449

$$$$
