MODEL 1
REMARK VINA RESULT:    -9.064      0.000      0.000
REMARK INTER + INTRA:         -12.912
REMARK INTER:                 -11.713
REMARK INTRA:                  -1.199
REMARK UNBOUND:                -1.199
REMARK  5 active torsions:
REMARK  status: ('A' for Active; 'I' for Inactive)
REMARK    1  A    between atoms: S_1  and  N_4 
REMARK    2  A    between atoms: S_1  and  C_28 
REMARK    3  A    between atoms: N_7  and  C_10 
REMARK    4  A    between atoms: C_10  and  C_11 
REMARK    5  A    between atoms: C_17  and  C_21 
ROOT
ATOM      1  C   UNK d   1     -22.784  -1.467 -36.152  0.00  0.00     0.060 A 
ATOM      2  C   UNK d   1     -22.071  -0.380 -35.686  0.00  0.00     0.105 A 
ATOM      3  C   UNK d   1     -21.485  -0.304 -34.448  0.00  0.00     0.272 A 
ATOM      4  O   UNK d   1     -20.851   0.755 -34.130  0.00  0.00    -0.266 OA
ATOM      5  N   UNK d   1     -21.592  -1.359 -33.587  0.00  0.00    -0.171 N 
ATOM      6  N   UNK d   1     -21.097  -1.417 -32.415  0.00  0.00    -0.154 NA
ATOM      7  C   UNK d   1     -21.236  -2.456 -31.647  0.00  0.00     0.132 A 
ATOM      8  S   UNK d   1     -22.171  -3.465 -32.691  0.00  0.00    -0.028 SA
ATOM      9  C   UNK d   1     -22.281  -2.409 -34.040  0.00  0.00     0.199 A 
ATOM     10  N   UNK d   1     -22.858  -2.479 -35.260  0.00  0.00    -0.225 NA
ENDROOT
BRANCH   1  11
ATOM     11  C   UNK d   1     -23.399  -1.497 -37.500  0.00  0.00     0.176 C 
BRANCH  11  12
ATOM     12  N   UNK d   1     -22.779  -0.498 -38.310  0.00  0.00    -0.404 N 
ATOM     13  C   UNK d   1     -23.631   0.446 -38.916  0.00  0.00     0.137 C 
ATOM     14  C   UNK d   1     -22.795   1.652 -39.355  0.00  0.00     0.155 C 
ATOM     15  N   UNK d   1     -21.688   1.242 -40.101  0.00  0.00    -0.302 N 
ATOM     16  C   UNK d   1     -21.665  -0.128 -40.402  0.00  0.00     0.155 C 
ATOM     17  C   UNK d   1     -21.717  -0.944 -39.129  0.00  0.00     0.137 C 
BRANCH  15  18
ATOM     18  S   UNK d   1     -20.298   2.148 -40.157  0.00  0.00     0.280 S 
ATOM     19  O   UNK d   1     -20.638   3.526 -40.716  0.00  0.00    -0.199 OA
ATOM     20  O   UNK d   1     -19.225   1.510 -41.001  0.00  0.00    -0.199 OA
BRANCH  18  21
ATOM     21  C   UNK d   1     -19.667   2.440 -38.552  0.00  0.00     0.188 A 
ATOM     22  N   UNK d   1     -19.079   3.584 -38.103  0.00  0.00    -0.229 NA
ATOM     23  C   UNK d   1     -18.716   3.446 -36.827  0.00  0.00     0.208 A 
ATOM     24  N   UNK d   1     -19.051   2.222 -36.396  0.00  0.00    -0.358 N 
ATOM     25  C   UNK d   1     -19.636   1.607 -37.460  0.00  0.00     0.134 A 
ATOM     26  H   UNK d   1     -18.895   1.832 -35.452  0.00  0.00     0.166 HD
ENDBRANCH  18  21
ENDBRANCH  15  18
ENDBRANCH  11  12
ENDBRANCH   1  11
BRANCH   7  27
ATOM     27  C   UNK d   1     -20.763  -2.741 -30.287  0.00  0.00     0.002 A 
ATOM     28  C   UNK d   1     -20.247  -1.708 -29.535  0.00  0.00     0.016 A 
ATOM     29  C   UNK d   1     -19.783  -1.913 -28.243  0.00  0.00     0.024 A 
ATOM     30  C   UNK d   1     -19.838  -3.174 -27.688  0.00  0.00     0.034 A 
ATOM     31  C   UNK d   1     -20.353  -4.228 -28.424  0.00  0.00     0.024 A 
ATOM     32 Cl   UNK d   1     -19.263  -3.445 -26.075  0.00  0.00    -0.084 Cl
ATOM     33  C   UNK d   1     -20.799  -3.976 -29.701  0.00  0.00     0.016 A 
ENDBRANCH   7  27
TORSDOF 5
ENDMDL
