/Users/jonathanwahrer/Desktop/Msc/3_Semester/Drug_Design_Praktikum/waehrer_HTS_screening/HTS_experiment/out/docking_results/vina_output/5l4q/2284_docked.pdbqt
 OpenBabel03212219233D

 33 37  0  0  0  0  0  0  0  0999 V2000
  -22.7840   -1.4670  -36.1520 C   0  0  0  0  0  0  0  0  0  0  0  0
  -22.0710   -0.3800  -35.6860 C   0  0  0  0  0  3  0  0  0  0  0  0
  -21.4850   -0.3040  -34.4480 C   0  0  0  0  0  0  0  0  0  0  0  0
  -20.8510    0.7550  -34.1300 O   0  0  0  0  0  0  0  0  0  0  0  0
  -21.5920   -1.3590  -33.5870 N   0  0  0  0  0  0  0  0  0  0  0  0
  -21.0970   -1.4170  -32.4150 N   0  0  0  0  0  0  0  0  0  0  0  0
  -21.2360   -2.4560  -31.6470 C   0  0  0  0  0  0  0  0  0  0  0  0
  -22.1710   -3.4650  -32.6910 S   0  0  0  0  0  0  0  0  0  0  0  0
  -22.2810   -2.4090  -34.0400 C   0  0  0  0  0  0  0  0  0  0  0  0
  -22.8580   -2.4790  -35.2600 N   0  0  0  0  0  0  0  0  0  0  0  0
  -23.3990   -1.4970  -37.5000 C   0  0  0  0  0  2  0  0  0  0  0  0
  -22.7790   -0.4980  -38.3100 N   0  0  0  0  0  0  0  0  0  0  0  0
  -23.6310    0.4460  -38.9160 C   0  0  0  0  0  2  0  0  0  0  0  0
  -22.7950    1.6520  -39.3550 C   0  0  0  0  0  2  0  0  0  0  0  0
  -21.6880    1.2420  -40.1010 N   0  0  0  0  0  0  0  0  0  0  0  0
  -21.6650   -0.1280  -40.4020 C   0  0  0  0  0  2  0  0  0  0  0  0
  -21.7170   -0.9440  -39.1290 C   0  0  0  0  0  2  0  0  0  0  0  0
  -20.2980    2.1480  -40.1570 S   0  0  0  0  0  0  0  0  0  0  0  0
  -20.6380    3.5260  -40.7160 O   0  0  0  0  0  0  0  0  0  0  0  0
  -19.2250    1.5100  -41.0010 O   0  0  0  0  0  0  0  0  0  0  0  0
  -19.6670    2.4400  -38.5520 C   0  0  0  0  0  0  0  0  0  0  0  0
  -19.0790    3.5840  -38.1030 N   0  0  0  0  0  0  0  0  0  0  0  0
  -18.7160    3.4460  -36.8270 C   0  0  0  0  0  3  0  0  0  0  0  0
  -19.0510    2.2220  -36.3960 N   0  0  0  0  0  0  0  0  0  0  0  0
  -19.6360    1.6070  -37.4600 C   0  0  0  0  0  3  0  0  0  0  0  0
  -18.8950    1.8320  -35.4520 H   0  0  0  0  0  0  0  0  0  0  0  0
  -20.7630   -2.7410  -30.2870 C   0  0  0  0  0  0  0  0  0  0  0  0
  -20.2470   -1.7080  -29.5350 C   0  0  0  0  0  3  0  0  0  0  0  0
  -19.7830   -1.9130  -28.2430 C   0  0  0  0  0  3  0  0  0  0  0  0
  -19.8380   -3.1740  -27.6880 C   0  0  0  0  0  0  0  0  0  0  0  0
  -20.3530   -4.2280  -28.4240 C   0  0  0  0  0  3  0  0  0  0  0  0
  -19.2630   -3.4450  -26.0750 Cl  0  0  0  0  0  0  0  0  0  0  0  0
  -20.7990   -3.9760  -29.7010 C   0  0  0  0  0  3  0  0  0  0  0  0
  1  2  2  0  0  0  0
  1 10  1  0  0  0  0
  2  3  1  0  0  0  0
  3  4  2  0  0  0  0
  3  5  1  0  0  0  0
  5  6  1  0  0  0  0
  6  7  2  0  0  0  0
  7 27  1  0  0  0  0
  8  7  1  0  0  0  0
  9  5  1  0  0  0  0
  9  8  1  0  0  0  0
 10  9  2  0  0  0  0
 11  1  1  0  0  0  0
 12 11  1  0  0  0  0
 13 12  1  0  0  0  0
 14 13  1  0  0  0  0
 15 14  1  0  0  0  0
 16 15  1  0  0  0  0
 16 17  1  0  0  0  0
 17 12  1  0  0  0  0
 18 15  1  0  0  0  0
 18 21  1  0  0  0  0
 19 18  2  0  0  0  0
 20 18  2  0  0  0  0
 21 22  1  0  0  0  0
 21 25  2  0  0  0  0
 22 23  2  0  0  0  0
 23 24  1  0  0  0  0
 24 26  1  0  0  0  0
 25 24  1  0  0  0  0
 27 33  2  0  0  0  0
 27 28  1  0  0  0  0
 28 29  2  0  0  0  0
 29 30  1  0  0  0  0
 30 32  1  0  0  0  0
 31 30  2  0  0  0  0
 33 31  1  0  0  0  0
M  END
>  <Pose>
1

>  <Score>
-9.064

$$$$
