MODEL 1
REMARK VINA RESULT:    -8.491      0.000      0.000
REMARK INTER + INTRA:         -13.042
REMARK INTER:                 -11.965
REMARK INTRA:                  -1.077
REMARK UNBOUND:                -1.077
REMARK  7 active torsions:
REMARK  status: ('A' for Active; 'I' for Inactive)
REMARK    1  A    between atoms: S_1  and  N_4 
REMARK    2  A    between atoms: S_1  and  C_27 
REMARK    3  A    between atoms: N_7  and  C_10 
REMARK    4  A    between atoms: C_10  and  C_11 
REMARK       I    between atoms: C_11  and  N_13 
REMARK    5  A    between atoms: N_13  and  C_14 
REMARK    6  A    between atoms: C_14  and  C_15 
REMARK    7  A    between atoms: C_15  and  N_21 
ROOT
ATOM      1  C   UNK d   1     -20.277   2.058 -33.938  0.00  0.00     0.374 C 
ENDROOT
BRANCH   1   2
ATOM      2  N   UNK d   1     -19.748   0.731 -34.057  0.00  0.00     0.100 N 
ATOM      3  C   UNK d   1     -18.500   0.541 -33.409  0.00  0.00     0.293 C 
ATOM      4  C   UNK d   1     -18.478  -0.501 -32.324  0.00  0.00     0.165 C 
ATOM      5  N   UNK d   1     -19.591  -0.390 -31.517  0.00  0.00    -0.303 N 
ATOM      6  C   UNK d   1     -20.832  -0.312 -32.157  0.00  0.00     0.165 C 
ATOM      7  C   UNK d   1     -20.694  -0.268 -33.676  0.00  0.00     0.293 C 
BRANCH   5   8
ATOM      8  S   UNK d   1     -19.520  -0.342 -29.857  0.00  0.00     0.260 S 
ATOM      9  O   UNK d   1     -18.178   0.088 -29.318  0.00  0.00    -0.200 OA
ATOM     10  O   UNK d   1     -20.527   0.590 -29.220  0.00  0.00    -0.200 OA
BRANCH   8  11
ATOM     11  C   UNK d   1     -19.805  -1.951 -29.199  0.00  0.00     0.079 A 
ATOM     12  C   UNK d   1     -20.106  -3.008 -30.014  0.00  0.00     0.027 A 
ATOM     13  C   UNK d   1     -20.329  -4.261 -29.507  0.00  0.00     0.025 A 
ATOM     14  C   UNK d   1     -20.247  -4.454 -28.145  0.00  0.00     0.034 A 
ATOM     15  C   UNK d   1     -19.944  -3.388 -27.320  0.00  0.00     0.025 A 
ATOM     16 Cl   UNK d   1     -20.538  -6.071 -27.528  0.00  0.00    -0.084 Cl
ATOM     17  C   UNK d   1     -19.722  -2.138 -27.838  0.00  0.00     0.027 A 
ENDBRANCH   8  11
ENDBRANCH   5   8
ENDBRANCH   1   2
BRANCH   1  18
ATOM     18  C   UNK d   1     -21.374   2.296 -34.935  0.00  0.00     0.246 C 
ATOM     19  O   UNK d   1     -22.481   2.662 -34.482  0.00  0.00    -0.272 OA
ATOM     20  N   UNK d   1     -21.161   2.113 -36.325  0.00  0.00    -0.357 N 
ATOM     21  H   UNK d   1     -20.202   1.805 -36.640  0.00  0.00     0.162 HD
BRANCH  20  22
ATOM     22  C   UNK d   1     -22.265   2.362 -37.204  0.00  0.00     0.164 C 
BRANCH  22  23
ATOM     23  C   UNK d   1     -22.415   1.448 -38.359  0.00  0.00     0.175 C 
ATOM     24  C   UNK d   1     -21.065   1.212 -38.991  0.00  0.00     0.043 C 
ATOM     25  C   UNK d   1     -20.768   2.212 -40.113  0.00  0.00     0.003 C 
ATOM     26  C   UNK d   1     -21.696   1.971 -41.287  0.00  0.00     0.000 C 
ATOM     27  C   UNK d   1     -23.013   1.465 -40.726  0.00  0.00     0.003 C 
ATOM     28  C   UNK d   1     -23.226   2.210 -39.425  0.00  0.00     0.043 C 
BRANCH  23  29
ATOM     29  N   UNK d   1     -23.084   0.222 -38.155  0.00  0.00     0.103 N 
ATOM     30  C   UNK d   1     -22.357  -0.984 -38.337  0.00  0.00     0.299 C 
ATOM     31  C   UNK d   1     -23.412  -2.095 -38.487  0.00  0.00     0.198 C 
ATOM     32  O   UNK d   1     -24.148  -2.206 -37.331  0.00  0.00    -0.388 OA
ATOM     33  C   UNK d   1     -23.814  -1.300 -36.357  0.00  0.00     0.198 C 
ATOM     34  C   UNK d   1     -23.782   0.133 -36.891  0.00  0.00     0.299 C 
ENDBRANCH  23  29
ENDBRANCH  22  23
ENDBRANCH  20  22
ENDBRANCH   1  18
TORSDOF 7
ENDMDL
