MODEL 1
REMARK VINA RESULT:    -9.428      0.000      0.000
REMARK INTER + INTRA:         -12.590
REMARK INTER:                 -11.632
REMARK INTRA:                  -0.957
REMARK UNBOUND:                -0.957
REMARK  4 active torsions:
REMARK  status: ('A' for Active; 'I' for Inactive)
REMARK    1  A    between atoms: N_10  and  N_11 
REMARK       I    between atoms: N_11  and  C_12 
REMARK    2  A    between atoms: C_12  and  C_14 
REMARK    3  A    between atoms: C_14  and  N_15 
REMARK       I    between atoms: N_15  and  C_16 
REMARK    4  A    between atoms: C_16  and  C_18 
ROOT
ATOM      1  N   UNK d   1     -20.827   1.687 -35.245  0.00  0.00    -0.245 N 
ATOM      2  C   UNK d   1     -19.668   1.981 -35.998  0.00  0.00     0.255 C 
ATOM      3  O   UNK d   1     -18.534   1.753 -35.529  0.00  0.00    -0.270 OA
ATOM      4  H   UNK d   1     -21.803   1.851 -35.572  0.00  0.00     0.192 HD
ENDROOT
BRANCH   2   5
ATOM      5  C   UNK d   1     -19.735   2.571 -37.372  0.00  0.00     0.227 C 
BRANCH   5   6
ATOM      6  N   UNK d   1     -20.816   2.020 -38.142  0.00  0.00    -0.350 N 
ATOM      7  C   UNK d   1     -20.636   1.459 -39.435  0.00  0.00     0.249 C 
ATOM      8  O   UNK d   1     -19.483   1.446 -39.921  0.00  0.00    -0.271 OA
ATOM      9  H   UNK d   1     -21.796   2.009 -37.773  0.00  0.00     0.163 HD
BRANCH   7  10
ATOM     10  C   UNK d   1     -21.750   0.885 -40.248  0.00  0.00     0.244 C 
ATOM     11  O   UNK d   1     -22.874   0.606 -39.469  0.00  0.00    -0.331 OA
ATOM     12  C   UNK d   1     -23.328  -0.673 -39.155  0.00  0.00     0.103 A 
ATOM     13  C   UNK d   1     -22.880  -1.702 -39.940  0.00  0.00     0.102 A 
ATOM     14  C   UNK d   1     -24.181  -0.927 -38.122  0.00  0.00     0.040 A 
ATOM     15  C   UNK d   1     -23.319  -2.994 -39.650  0.00  0.00     0.039 A 
ATOM     16  O   UNK d   1     -22.024  -1.442 -40.975  0.00  0.00    -0.345 OA
ATOM     17  C   UNK d   1     -24.180  -3.266 -38.611  0.00  0.00     0.003 A 
ATOM     18  C   UNK d   1     -24.611  -2.203 -37.841  0.00  0.00     0.003 A 
ATOM     19  C   UNK d   1     -21.306  -0.247 -41.108  0.00  0.00     0.218 C 
ENDBRANCH   7  10
ENDBRANCH   5   6
ENDBRANCH   2   5
BRANCH   1  20
ATOM     20  N   UNK d   1     -20.659   1.140 -33.969  0.00  0.00    -0.166 NA
ATOM     21  C   UNK d   1     -20.894  -0.091 -33.706  0.00  0.00     0.157 A 
ATOM     22  C   UNK d   1     -20.778  -0.823 -32.454  0.00  0.00     0.029 A 
ATOM     23  C   UNK d   1     -21.362  -1.069 -34.694  0.00  0.00     0.277 A 
ATOM     24  C   UNK d   1     -21.136  -2.150 -32.617  0.00  0.00     0.065 A 
ATOM     25  C   UNK d   1     -20.392  -0.442 -31.187  0.00  0.00     0.035 A 
ATOM     26  C   UNK d   1     -21.112  -3.052 -31.573  0.00  0.00     0.040 A 
ATOM     27  N   UNK d   1     -21.491  -2.288 -33.989  0.00  0.00    -0.320 N 
ATOM     28 Br   UNK d   1     -21.614  -4.883 -31.815  0.00  0.00    -0.049 Br
ATOM     29  C   UNK d   1     -20.717  -2.638 -30.302  0.00  0.00     0.040 A 
ATOM     30  C   UNK d   1     -20.354  -1.313 -30.121  0.00  0.00     0.013 A 
ATOM     31 Br   UNK d   1     -19.809  -0.720 -28.388  0.00  0.00    -0.051 Br
ATOM     32  H   UNK d   1     -21.805  -3.176 -34.416  0.00  0.00     0.169 HD
ATOM     33  O   UNK d   1     -21.580  -0.796 -35.905  0.00  0.00    -0.266 OA
ENDBRANCH   1  20
TORSDOF 4
ENDMDL
