/Users/jonathanwahrer/Desktop/Msc/3_Semester/Drug_Design_Praktikum/waehrer_HTS_screening/HTS_experiment/out/docking_results/vina_output/5l4q/2330_docked.pdbqt
 OpenBabel03212219253D

 28 31  0  0  0  0  0  0  0  0999 V2000
  -19.7740   -1.0530  -31.9310 C   0  0  0  0  0  0  0  0  0  0  0  0
  -18.6310   -1.0340  -32.4440 O   0  0  0  0  0  0  0  0  0  0  0  0
  -20.7540   -0.1840  -32.4130 N   0  0  0  0  0  0  0  0  0  0  0  0
  -21.7060   -0.2900  -31.9090 H   0  0  0  0  0  0  0  0  0  0  0  0
  -20.0040   -2.0100  -30.8330 C   0  0  0  0  0  0  0  0  0  0  0  0
  -20.6900   -3.1910  -31.0260 C   0  0  0  0  0  0  0  0  0  0  0  0
  -21.2910   -3.5270  -32.6430 Cl  0  0  0  0  0  0  0  0  0  0  0  0
  -20.9070   -4.0950  -29.9890 C   0  0  0  0  0  3  0  0  0  0  0  0
  -20.4240   -3.7960  -28.7420 C   0  0  0  0  0  3  0  0  0  0  0  0
  -19.7210   -2.6120  -28.4950 C   0  0  0  0  0  0  0  0  0  0  0  0
  -19.5410   -1.7650  -29.5580 C   0  0  0  0  0  3  0  0  0  0  0  0
  -19.2240   -2.3330  -27.1550 C   0  0  0  0  0  0  0  0  0  0  0  0
  -18.4610   -1.3240  -26.7250 N   0  0  0  0  0  0  0  0  0  0  0  0
  -18.2490   -1.4690  -25.4070 N   0  0  0  0  0  0  0  0  0  0  0  0
  -18.8740   -2.5620  -25.0060 N   0  0  0  0  0  0  0  0  0  0  0  0
  -17.6900   -0.8390  -24.7860 H   0  0  0  0  0  0  0  0  0  0  0  0
  -19.4720   -3.0910  -26.0760 N   0  0  0  0  0  0  0  0  0  0  0  0
  -20.7140    0.7890  -33.4260 C   0  0  0  0  0  2  0  0  0  0  0  0
  -20.7320    0.4100  -34.8450 C   0  0  0  0  0  2  0  0  0  0  0  0
  -21.8110   -0.4320  -35.3540 C   0  0  0  0  0  0  0  0  0  0  0  0
  -22.1950   -0.5920  -36.6250 N   0  0  0  0  0  0  0  0  0  0  0  0
  -23.1810   -1.4750  -36.6540 C   0  0  0  0  0  0  0  0  0  0  0  0
  -21.7550   -0.0300  -37.7680 C   0  0  0  0  0  3  0  0  0  0  0  0
  -23.4130   -1.8680  -35.3950 N   0  0  0  0  0  0  0  0  0  0  0  0
  -23.7970   -1.8590  -37.8260 C   0  0  0  0  0  3  0  0  0  0  0  0
  -22.5820   -1.2350  -34.6110 N   0  0  0  0  0  0  0  0  0  0  0  0
  -23.3460   -1.2820  -38.9990 C   0  0  0  0  0  3  0  0  0  0  0  0
  -22.3270   -0.3690  -38.9580 C   0  0  0  0  0  3  0  0  0  0  0  0
  1  5  1  0  0  0  0
  2  1  2  0  0  0  0
  3  1  1  0  0  0  0
  3  4  1  0  0  0  0
  5 11  1  0  0  0  0
  6  5  2  0  0  0  0
  6  8  1  0  0  0  0
  7  6  1  0  0  0  0
  8  9  2  0  0  0  0
  9 10  1  0  0  0  0
 10 12  1  0  0  0  0
 11 10  2  0  0  0  0
 12 13  2  0  0  0  0
 12 17  1  0  0  0  0
 13 14  1  0  0  0  0
 14 15  1  0  0  0  0
 14 16  1  0  0  0  0
 17 15  2  0  0  0  0
 18  3  1  0  0  0  0
 19 18  1  0  0  0  0
 20 19  1  0  0  0  0
 20 26  2  0  0  0  0
 21 20  1  0  0  0  0
 22 21  1  0  0  0  0
 22 24  2  0  0  0  0
 23 21  1  0  0  0  0
 24 26  1  0  0  0  0
 25 22  1  0  0  0  0
 27 28  1  0  0  0  0
 27 25  2  0  0  0  0
 28 23  2  0  0  0  0
M  END
>  <Pose>
1

>  <Score>
-8.990

$$$$
