MODEL 1
REMARK VINA RESULT:    -8.990      0.000      0.000
REMARK INTER + INTRA:         -12.490
REMARK INTER:                 -11.618
REMARK INTRA:                  -0.871
REMARK UNBOUND:                -0.871
REMARK  5 active torsions:
REMARK  status: ('A' for Active; 'I' for Inactive)
REMARK    1  A    between atoms: C_3  and  C_13 
REMARK    2  A    between atoms: C_5  and  C_8 
REMARK       I    between atoms: C_13  and  N_15 
REMARK    3  A    between atoms: N_15  and  C_16 
REMARK    4  A    between atoms: C_16  and  C_17 
REMARK    5  A    between atoms: C_17  and  C_18 
ROOT
ATOM      1  C   UNK d   1     -19.774  -1.053 -31.931  0.00  0.00     0.253 C 
ATOM      2  O   UNK d   1     -18.631  -1.034 -32.444  0.00  0.00    -0.268 OA
ATOM      3  N   UNK d   1     -20.754  -0.184 -32.413  0.00  0.00    -0.356 N 
ATOM      4  H   UNK d   1     -21.706  -0.290 -31.909  0.00  0.00     0.162 HD
ENDROOT
BRANCH   1   5
ATOM      5  C   UNK d   1     -20.004  -2.010 -30.833  0.00  0.00     0.054 A 
ATOM      6  C   UNK d   1     -20.690  -3.191 -31.026  0.00  0.00     0.049 A 
ATOM      7 Cl   UNK d   1     -21.291  -3.527 -32.643  0.00  0.00    -0.083 Cl
ATOM      8  C   UNK d   1     -20.907  -4.095 -29.989  0.00  0.00     0.026 A 
ATOM      9  C   UNK d   1     -20.424  -3.796 -28.742  0.00  0.00     0.017 A 
ATOM     10  C   UNK d   1     -19.721  -2.612 -28.495  0.00  0.00     0.016 A 
ATOM     11  C   UNK d   1     -19.541  -1.765 -29.558  0.00  0.00     0.034 A 
BRANCH  10  12
ATOM     12  C   UNK d   1     -19.224  -2.333 -27.155  0.00  0.00     0.197 A 
ATOM     13  N   UNK d   1     -18.461  -1.324 -26.725  0.00  0.00    -0.139 NA
ATOM     14  N   UNK d   1     -18.249  -1.469 -25.407  0.00  0.00    -0.200 N 
ATOM     15  N   UNK d   1     -18.874  -2.562 -25.006  0.00  0.00     0.022 NA
ATOM     16  H   UNK d   1     -17.690  -0.839 -24.786  0.00  0.00     0.208 HD
ATOM     17  N   UNK d   1     -19.472  -3.091 -26.076  0.00  0.00    -0.136 NA
ENDBRANCH  10  12
ENDBRANCH   1   5
BRANCH   3  18
ATOM     18  C   UNK d   1     -20.714   0.789 -33.426  0.00  0.00     0.130 C 
BRANCH  18  19
ATOM     19  C   UNK d   1     -20.732   0.410 -34.845  0.00  0.00     0.100 C 
BRANCH  19  20
ATOM     20  C   UNK d   1     -21.811  -0.432 -35.354  0.00  0.00     0.136 A 
ATOM     21  N   UNK d   1     -22.195  -0.592 -36.625  0.00  0.00    -0.292 N 
ATOM     22  C   UNK d   1     -23.181  -1.475 -36.654  0.00  0.00     0.157 A 
ATOM     23  C   UNK d   1     -21.755  -0.030 -37.768  0.00  0.00     0.100 A 
ATOM     24  N   UNK d   1     -23.413  -1.868 -35.395  0.00  0.00    -0.130 NA
ATOM     25  C   UNK d   1     -23.797  -1.859 -37.826  0.00  0.00     0.053 A 
ATOM     26  N   UNK d   1     -22.582  -1.235 -34.611  0.00  0.00    -0.134 NA
ATOM     27  C   UNK d   1     -23.346  -1.282 -38.999  0.00  0.00     0.005 A 
ATOM     28  C   UNK d   1     -22.327  -0.369 -38.958  0.00  0.00     0.018 A 
ENDBRANCH  19  20
ENDBRANCH  18  19
ENDBRANCH   3  18
TORSDOF 5
ENDMDL
