/Users/jonathanwahrer/Desktop/Msc/3_Semester/Drug_Design_Praktikum/waehrer_HTS_screening/HTS_experiment/out/docking_results/vina_output/5l4q/2335_docked.pdbqt
 OpenBabel03212219263D

 35 38  0  0  1  0  0  0  0  0999 V2000
  -22.1400    0.4350  -34.3600 N   0  0  0  0  0  0  0  0  0  0  0  0
  -21.2830   -0.2920  -33.5100 C   0  0  0  0  0  2  0  0  0  0  0  0
  -21.2700   -1.7800  -33.7910 C   0  0  2  0  0  3  0  0  0  0  0  0
  -22.5240   -2.2960  -34.3850 C   0  0  0  0  0  2  0  0  0  0  0  0
  -23.7270   -1.4320  -34.2840 C   0  0  0  0  0  3  0  0  0  0  0  0
  -23.4800    0.0490  -34.4270 C   0  0  0  0  0  3  0  0  0  0  0  0
  -21.5330    1.6650  -35.2980 S   0  0  0  0  0  0  0  0  0  0  0  0
  -20.0850    1.9260  -34.8850 O   0  0  0  0  0  0  0  0  0  0  0  0
  -22.2470    2.9570  -34.9210 O   0  0  0  0  0  0  0  0  0  0  0  0
  -21.6400    1.4680  -37.0080 C   0  0  0  0  0  0  0  0  0  0  0  0
  -21.9720    0.2360  -37.5490 C   0  0  0  0  0  3  0  0  0  0  0  0
  -22.0830    0.0290  -38.9030 C   0  0  0  0  0  0  0  0  0  0  0  0
  -21.8520    1.1030  -39.7710 C   0  0  0  0  0  0  0  0  0  0  0  0
  -22.4060   -1.0720  -39.7400 N   0  0  0  0  0  0  0  0  0  0  0  0
  -21.5280    2.3050  -39.2320 C   0  0  0  0  0  3  0  0  0  0  0  0
  -22.0220    0.6720  -41.1850 C   0  0  0  0  0  2  0  0  0  0  0  0
  -21.4160    2.5110  -37.8670 C   0  0  0  0  0  0  0  0  0  0  0  0
  -20.9430    4.2660  -37.2170 Br  0  0  0  0  0  0  0  0  0  0  0  0
  -21.8360   -0.8270  -41.0700 C   0  0  0  0  0  2  0  0  0  0  0  0
  -23.1360   -2.2150  -39.4190 C   0  0  0  0  0  0  0  0  0  0  0  0
  -23.3720   -3.0900  -40.3220 O   0  0  0  0  0  0  0  0  0  0  0  0
  -23.6690   -2.4990  -38.0890 C   0  0  0  0  0  2  0  0  0  0  0  0
  -25.1840   -2.6900  -38.1090 C   0  0  0  0  0  1  0  0  0  0  0  0
  -20.9300   -2.5470  -32.5650 C   0  0  0  0  0  0  0  0  0  0  0  0
  -20.9380   -3.8010  -32.6350 O   0  0  0  0  0  0  0  0  0  0  0  0
  -20.6020   -1.8590  -31.3380 N   0  0  0  0  0  0  0  0  0  0  0  0
  -20.6350   -0.8370  -31.3870 H   0  0  0  0  0  0  0  0  0  0  0  0
  -20.2860   -2.6550  -30.2080 C   0  0  0  0  0  2  0  0  0  0  0  0
  -19.1990   -2.2180  -29.3030 C   0  0  0  0  0  2  0  0  0  0  0  0
  -19.5070   -1.8840  -27.9620 N   0  0  0  0  0  0  0  0  0  0  0  0
  -18.5800   -1.1470  -27.2340 C   0  0  0  0  0  2  0  0  0  0  0  0
  -17.9390   -1.8380  -26.0660 C   0  0  0  0  0  2  0  0  0  0  0  0
  -18.8310   -2.6320  -25.3600 O   0  0  0  0  0  0  0  0  0  0  0  0
  -19.2490   -3.6320  -26.2370 C   0  0  0  0  0  2  0  0  0  0  0  0
  -20.1460   -2.9720  -27.2590 C   0  0  0  0  0  2  0  0  0  0  0  0
  1  2  1  0  0  0  0
  3  2  1  0  0  0  0
  3 24  1  1  0  0  0
  4  5  1  0  0  0  0
  4  3  1  0  0  0  0
  6  1  1  0  0  0  0
  6  5  2  0  0  0  0
  7  9  2  0  0  0  0
  7  8  2  0  0  0  0
  7  1  1  0  0  0  0
 10  7  1  0  0  0  0
 11 10  1  0  0  0  0
 12 11  2  0  0  0  0
 13 15  2  0  0  0  0
 13 12  1  0  0  0  0
 14 20  1  0  0  0  0
 14 12  1  0  0  0  0
 15 17  1  0  0  0  0
 16 19  1  0  0  0  0
 16 13  1  0  0  0  0
 17 18  1  0  0  0  0
 17 10  2  0  0  0  0
 19 14  1  0  0  0  0
 20 22  1  0  0  0  0
 21 20  2  0  0  0  0
 23 22  1  0  0  0  0
 24 26  1  0  0  0  0
 25 24  2  0  0  0  0
 26 28  1  0  0  0  0
 27 26  1  0  0  0  0
 28 29  1  0  0  0  0
 29 30  1  0  0  0  0
 30 35  1  0  0  0  0
 30 31  1  0  0  0  0
 31 32  1  0  0  0  0
 32 33  1  0  0  0  0
 34 33  1  0  0  0  0
 35 34  1  0  0  0  0
M  END
>  <Pose>
1

>  <Score>
-9.054

$$$$
