MODEL 1
REMARK VINA RESULT:    -9.054      0.000      0.000
REMARK INTER + INTRA:         -13.521
REMARK INTER:                 -12.759
REMARK INTRA:                  -0.762
REMARK UNBOUND:                -0.762
REMARK  7 active torsions:
REMARK  status: ('A' for Active; 'I' for Inactive)
REMARK    1  A    between atoms: S_1  and  N_4 
REMARK    2  A    between atoms: S_1  and  C_21 
REMARK    3  A    between atoms: C_6  and  C_10 
REMARK       I    between atoms: C_10  and  N_12 
REMARK    4  A    between atoms: N_12  and  C_13 
REMARK    5  A    between atoms: C_13  and  C_14 
REMARK    6  A    between atoms: C_14  and  N_15 
REMARK       I    between atoms: N_30  and  C_31 
REMARK    7  A    between atoms: C_31  and  C_33 
ROOT
ATOM      1  N   UNK d   1     -22.140   0.435 -34.360  0.00  0.00    -0.306 N 
ATOM      2  C   UNK d   1     -21.283  -0.292 -33.510  0.00  0.00     0.149 C 
ATOM      3  C   UNK d   1     -21.270  -1.780 -33.791  0.00  0.00     0.096 C 
ATOM      4  C   UNK d   1     -22.524  -2.296 -34.385  0.00  0.00     0.017 C 
ATOM      5  C   UNK d   1     -23.727  -1.432 -34.284  0.00  0.00     0.021 C 
ATOM      6  C   UNK d   1     -23.480   0.049 -34.427  0.00  0.00     0.135 C 
ENDROOT
BRANCH   1   7
ATOM      7  S   UNK d   1     -21.533   1.665 -35.298  0.00  0.00     0.262 S 
ATOM      8  O   UNK d   1     -20.085   1.926 -34.885  0.00  0.00    -0.200 OA
ATOM      9  O   UNK d   1     -22.247   2.957 -34.921  0.00  0.00    -0.200 OA
BRANCH   7  10
ATOM     10  C   UNK d   1     -21.640   1.468 -37.008  0.00  0.00     0.099 A 
ATOM     11  C   UNK d   1     -21.972   0.236 -37.549  0.00  0.00     0.057 A 
ATOM     12  C   UNK d   1     -22.083   0.029 -38.903  0.00  0.00     0.045 A 
ATOM     13  C   UNK d   1     -21.852   1.103 -39.771  0.00  0.00    -0.028 A 
ATOM     14  N   UNK d   1     -22.406  -1.072 -39.740  0.00  0.00    -0.317 N 
ATOM     15  C   UNK d   1     -21.528   2.305 -39.232  0.00  0.00     0.030 A 
ATOM     16  C   UNK d   1     -22.022   0.672 -41.185  0.00  0.00     0.061 C 
ATOM     17  C   UNK d   1     -21.416   2.511 -37.867  0.00  0.00     0.035 A 
ATOM     18 Br   UNK d   1     -20.943   4.266 -37.217  0.00  0.00    -0.049 Br
ATOM     19  C   UNK d   1     -21.836  -0.827 -41.070  0.00  0.00     0.137 C 
ATOM     20  C   UNK d   1     -23.136  -2.215 -39.419  0.00  0.00     0.224 C 
ATOM     21  O   UNK d   1     -23.372  -3.090 -40.322  0.00  0.00    -0.273 OA
BRANCH  20  22
ATOM     22  C   UNK d   1     -23.669  -2.499 -38.089  0.00  0.00     0.099 C 
ATOM     23  C   UNK d   1     -25.184  -2.690 -38.109  0.00  0.00     0.014 C 
ENDBRANCH  20  22
ENDBRANCH   7  10
ENDBRANCH   1   7
BRANCH   3  24
ATOM     24  C   UNK d   1     -20.930  -2.547 -32.565  0.00  0.00     0.223 C 
ATOM     25  O   UNK d   1     -20.938  -3.801 -32.635  0.00  0.00    -0.273 OA
ATOM     26  N   UNK d   1     -20.602  -1.859 -31.338  0.00  0.00    -0.359 N 
ATOM     27  H   UNK d   1     -20.635  -0.837 -31.387  0.00  0.00     0.162 HD
BRANCH  26  28
ATOM     28  C   UNK d   1     -20.286  -2.655 -30.208  0.00  0.00     0.142 C 
BRANCH  28  29
ATOM     29  C   UNK d   1     -19.199  -2.218 -29.303  0.00  0.00     0.136 C 
BRANCH  29  30
ATOM     30  N   UNK d   1     -19.507  -1.884 -27.962  0.00  0.00    -0.407 N 
ATOM     31  C   UNK d   1     -18.580  -1.147 -27.234  0.00  0.00     0.143 C 
ATOM     32  C   UNK d   1     -17.939  -1.838 -26.066  0.00  0.00     0.187 C 
ATOM     33  O   UNK d   1     -18.831  -2.632 -25.360  0.00  0.00    -0.388 OA
ATOM     34  C   UNK d   1     -19.249  -3.632 -26.237  0.00  0.00     0.187 C 
ATOM     35  C   UNK d   1     -20.146  -2.972 -27.259  0.00  0.00     0.143 C 
ENDBRANCH  29  30
ENDBRANCH  28  29
ENDBRANCH  26  28
ENDBRANCH   3  24
TORSDOF 7
ENDMDL
