MODEL 1
REMARK VINA RESULT:    -9.110      0.000      0.000
REMARK INTER + INTRA:         -10.976
REMARK INTER:                 -10.708
REMARK INTRA:                  -0.268
REMARK UNBOUND:                -0.268
REMARK  3 active torsions:
REMARK  status: ('A' for Active; 'I' for Inactive)
REMARK    1  A    between atoms: C_5  and  N_8 
REMARK    2  A    between atoms: C_10  and  C_14 
REMARK       I    between atoms: C_14  and  N_16 
REMARK    3  A    between atoms: N_19  and  C_22 
ROOT
ATOM      1  C   UNK d   1     -19.149  -1.135 -30.185  0.00  0.00     0.226 C 
ATOM      2  O   UNK d   1     -18.095  -0.396 -30.187  0.00  0.00    -0.273 OA
ATOM      3  N   UNK d   1     -19.589  -1.587 -31.434  0.00  0.00    -0.349 N 
ATOM      4  C   UNK d   1     -18.874  -1.209 -32.643  0.00  0.00     0.146 C 
ATOM      5  C   UNK d   1     -19.811  -0.508 -33.622  0.00  0.00     0.161 C 
ATOM      6  N   UNK d   1     -21.117  -1.091 -33.516  0.00  0.00    -0.213 N 
ATOM      7  C   UNK d   1     -21.231  -2.444 -33.063  0.00  0.00     0.161 C 
ATOM      8  C   UNK d   1     -20.745  -2.435 -31.601  0.00  0.00     0.146 C 
ENDROOT
BRANCH   1   9
ATOM      9  C   UNK d   1     -19.760  -1.412 -28.879  0.00  0.00     0.105 C 
ATOM     10  C   UNK d   1     -19.972  -0.206 -28.008  0.00  0.00     0.146 C 
ATOM     11  N   UNK d   1     -19.072  -0.355 -26.871  0.00  0.00    -0.317 N 
ATOM     12  C   UNK d   1     -18.861  -1.778 -26.738  0.00  0.00     0.225 C 
ATOM     13  C   UNK d   1     -19.070  -2.440 -28.046  0.00  0.00     0.119 C 
ATOM     14  O   UNK d   1     -18.544  -2.285 -25.613  0.00  0.00    -0.273 OA
BRANCH  11  15
ATOM     15  C   UNK d   1     -18.510   0.666 -26.052  0.00  0.00     0.037 A 
ATOM     16  C   UNK d   1     -18.225   0.466 -24.719  0.00  0.00     0.031 A 
ATOM     17  C   UNK d   1     -17.683   1.456 -23.920  0.00  0.00     0.026 A 
ATOM     18  C   UNK d   1     -17.408   2.691 -24.445  0.00  0.00     0.034 A 
ATOM     19 Cl   UNK d   1     -16.717   3.965 -23.441  0.00  0.00    -0.084 Cl
ATOM     20  C   UNK d   1     -17.678   2.924 -25.765  0.00  0.00     0.026 A 
ATOM     21  C   UNK d   1     -18.228   1.913 -26.567  0.00  0.00     0.031 A 
ENDBRANCH  11  15
ENDBRANCH   1   9
BRANCH   6  22
ATOM     22  C   UNK d   1     -22.271  -0.347 -33.842  0.00  0.00     0.704 A 
ATOM     23  N   UNK d   1     -23.118  -0.575 -34.883  0.00  0.00    -0.195 N 
ATOM     24  C   UNK d   1     -24.098   0.338 -34.855  0.00  0.00     0.128 A 
ATOM     25  C   UNK d   1     -22.977  -1.647 -35.877  0.00  0.00     0.175 C 
ATOM     26  C   UNK d   1     -23.880   1.169 -33.781  0.00  0.00     0.154 A 
ATOM     27  N   UNK d   1     -22.778   0.725 -33.203  0.00  0.00    -0.075 NA
ENDBRANCH   6  22
TORSDOF 3
ENDMDL
