MODEL 1
REMARK VINA RESULT:    -9.689      0.000      0.000
REMARK INTER + INTRA:          -9.475
REMARK INTER:                 -10.255
REMARK INTRA:                   0.780
REMARK UNBOUND:                 0.780
REMARK  1 active torsions:
REMARK  status: ('A' for Active; 'I' for Inactive)
REMARK    1  A    between atoms: C_5  and  N_8 
ROOT
ATOM      1  N   UNK d   1     -20.298  -0.945 -32.138  0.00  0.00    -0.231 N 
ATOM      2  C   UNK d   1     -19.279   0.048 -31.954  0.00  0.00     0.357 A 
ATOM      3  O   UNK d   1     -18.489  -0.065 -30.974  0.00  0.00    -0.244 OA
ATOM      4  N   UNK d   1     -19.232   1.100 -32.902  0.00  0.00    -0.169 NA
ATOM      5  C   UNK d   1     -20.015   1.233 -33.879  0.00  0.00     0.202 A 
ATOM      6  C   UNK d   1     -21.152   0.312 -34.225  0.00  0.00     0.140 A 
ATOM      7  C   UNK d   1     -22.386   1.146 -34.029  0.00  0.00     0.269 C 
ATOM      8  N   UNK d   1     -23.545   0.770 -34.742  0.00  0.00    -0.043 N 
ATOM      9  C   UNK d   1     -23.347   0.346 -36.077  0.00  0.00     0.140 A 
ATOM     10  C   UNK d   1     -22.123  -0.082 -36.481  0.00  0.00    -0.021 A 
ATOM     11  C   UNK d   1     -21.968  -0.493 -37.802  0.00  0.00     0.016 A 
ATOM     12  C   UNK d   1     -23.044  -0.459 -38.666  0.00  0.00    -0.061 A 
ATOM     13  C   UNK d   1     -24.293  -0.021 -38.252  0.00  0.00     0.009 A 
ATOM     14  C   UNK d   1     -24.435   0.387 -36.927  0.00  0.00     0.038 A 
ATOM     15  C   UNK d   1     -22.906  -0.884 -40.095  0.00  0.00     0.048 C 
ATOM     16  C   UNK d   1     -20.928  -0.150 -35.613  0.00  0.00     0.070 C 
ATOM     17  C   UNK d   1     -24.427  -0.163 -34.057  0.00  0.00     0.276 C 
ATOM     18  C   UNK d   1     -21.165  -0.805 -33.249  0.00  0.00     0.251 A 
ATOM     19  O   UNK d   1     -22.012  -1.762 -33.370  0.00  0.00    -0.271 OA
ATOM     20  O   UNK d   1     -19.868   2.319 -34.763  0.00  0.00    -0.173 OA
ATOM     21  H   UNK d   1     -24.142   1.653 -34.837  0.00  0.00     0.286 HD
ENDROOT
BRANCH   1  22
ATOM     22  C   UNK d   1     -20.380  -1.974 -31.173  0.00  0.00     0.047 A 
ATOM     23  C   UNK d   1     -20.279  -1.706 -29.806  0.00  0.00     0.032 A 
ATOM     24  C   UNK d   1     -20.361  -2.685 -28.852  0.00  0.00     0.026 A 
ATOM     25  C   UNK d   1     -20.552  -4.024 -29.195  0.00  0.00     0.034 A 
ATOM     26 Cl   UNK d   1     -20.664  -5.260 -27.956  0.00  0.00    -0.084 Cl
ATOM     27  C   UNK d   1     -20.651  -4.291 -30.547  0.00  0.00     0.026 A 
ATOM     28  C   UNK d   1     -20.568  -3.306 -31.502  0.00  0.00     0.032 A 
ENDBRANCH   1  22
TORSDOF 1
ENDMDL
