MODEL 1
REMARK VINA RESULT:    -7.392      0.000      0.000
REMARK INTER + INTRA:          -8.632
REMARK INTER:                  -8.256
REMARK INTRA:                  -0.376
REMARK UNBOUND:                -0.376
REMARK  3 active torsions:
REMARK  status: ('A' for Active; 'I' for Inactive)
REMARK    1  A    between atoms: C_5  and  N_8 
REMARK    2  A    between atoms: C_13  and  O_21 
REMARK    3  A    between atoms: C_14  and  O_20 
ROOT
ATOM      1  N   UNK d   1     -20.717  -1.210 -33.109  0.00  0.00    -0.252 N 
ATOM      2  C   UNK d   1     -21.732  -1.772 -33.957  0.00  0.00     0.236 C 
ATOM      3  O   UNK d   1     -22.489  -2.709 -33.600  0.00  0.00    -0.272 OA
ATOM      4  C   UNK d   1     -21.746  -1.095 -35.278  0.00  0.00     0.099 C 
ATOM      5  C   UNK d   1     -23.011  -0.351 -35.559  0.00  0.00     0.031 C 
ATOM      6  C   UNK d   1     -23.561   0.124 -34.231  0.00  0.00     0.152 C 
ATOM      7  C   UNK d   1     -22.483   1.114 -33.793  0.00  0.00     0.152 C 
ATOM      8  C   UNK d   1     -21.516   1.217 -34.950  0.00  0.00     0.031 C 
ATOM      9  C   UNK d   1     -20.675  -0.007 -35.130  0.00  0.00     0.099 C 
ATOM     10  C   UNK d   1     -19.896  -0.393 -33.928  0.00  0.00     0.236 C 
ATOM     11  O   UNK d   1     -18.712  -0.038 -33.708  0.00  0.00    -0.272 OA
ATOM     12  C   UNK d   1     -22.519   1.000 -36.106  0.00  0.00     0.016 C 
ENDROOT
BRANCH   1  13
ATOM     13  C   UNK d   1     -20.523  -1.394 -31.713  0.00  0.00     0.045 A 
ATOM     14  C   UNK d   1     -20.494  -0.293 -30.848  0.00  0.00     0.032 A 
ATOM     15  C   UNK d   1     -20.298  -0.465 -29.498  0.00  0.00     0.026 A 
ATOM     16  C   UNK d   1     -20.125  -1.721 -28.949  0.00  0.00     0.034 A 
ATOM     17 Cl   UNK d   1     -19.871  -1.911 -27.215  0.00  0.00    -0.084 Cl
ATOM     18  C   UNK d   1     -20.149  -2.828 -29.785  0.00  0.00     0.026 A 
ATOM     19  C   UNK d   1     -20.347  -2.627 -31.131  0.00  0.00     0.032 A 
ENDBRANCH   1  13
BRANCH   6  20
ATOM     20  O   UNK d   1     -24.710   0.843 -34.482  0.00  0.00    -0.393 OA
ATOM     21  H   UNK d   1     -25.551   0.365 -34.296  0.00  0.00     0.210 HD
ENDBRANCH   6  20
BRANCH   7  22
ATOM     22  O   UNK d   1     -23.017   2.390 -33.624  0.00  0.00    -0.393 OA
ATOM     23  H   UNK d   1     -22.706   2.947 -34.399  0.00  0.00     0.210 HD
ENDBRANCH   7  22
TORSDOF 3
ENDMDL
