/Users/jonathanwahrer/Desktop/Msc/3_Semester/Drug_Design_Praktikum/waehrer_HTS_screening/HTS_experiment/out/docking_results/vina_output/5l4q/2357_docked.pdbqt
 OpenBabel03212219273D

 36 39  0  0  1  0  0  0  0  0999 V2000
  -19.9870   -1.4720  -31.8850 C   0  0  2  0  0  3  0  0  0  0  0  0
  -20.9000   -1.2850  -30.9530 C   0  0  0  0  0  2  0  0  0  0  0  0
  -20.3440   -0.4510  -29.8570 C   0  0  2  0  0  3  0  0  0  0  0  0
  -19.2120    0.1750  -30.4810 N   0  0  0  0  0  0  0  0  0  0  0  0
  -18.8300   -0.7710  -31.4430 N   0  0  0  0  0  0  0  0  0  0  0  0
  -18.4640    0.4540  -29.8480 H   0  0  0  0  0  0  0  0  0  0  0  0
  -17.8540   -0.9210  -31.7690 H   0  0  0  0  0  0  0  0  0  0  0  0
  -20.1200   -2.2520  -33.1640 C   0  0  1  0  0  3  0  0  0  0  0  0
  -21.2770   -3.1720  -33.0890 C   0  0  0  0  0  0  0  0  0  0  0  0
  -22.5600   -2.7210  -33.4740 N   0  0  0  0  0  0  0  0  0  0  0  0
  -21.1080   -4.3380  -32.6840 O   0  0  0  0  0  0  0  0  0  0  0  0
  -22.7100   -1.5670  -34.2490 C   0  0  0  0  0  0  0  0  0  0  0  0
  -23.4400   -3.2430  -33.1910 H   0  0  0  0  0  0  0  0  0  0  0  0
  -21.5780   -0.8180  -34.6670 N   0  0  0  0  0  0  0  0  0  0  0  0
  -23.8600   -1.1360  -34.6130 O   0  0  0  0  0  0  0  0  0  0  0  0
  -20.2960   -1.2830  -34.2720 C   0  0  0  0  0  0  0  0  0  0  0  0
  -19.2870   -0.8690  -34.8690 O   0  0  0  0  0  0  0  0  0  0  0  0
  -21.7510    0.3530  -35.4540 C   0  0  0  0  0  0  0  0  0  0  0  0
  -21.7540    1.5920  -34.8660 C   0  0  0  0  0  3  0  0  0  0  0  0
  -21.9170    2.7480  -35.6030 C   0  0  0  0  0  3  0  0  0  0  0  0
  -22.0820    2.6800  -36.9640 C   0  0  0  0  0  0  0  0  0  0  0  0
  -22.2930    4.1470  -37.9280 Cl  0  0  0  0  0  0  0  0  0  0  0  0
  -22.0830    1.4480  -37.5730 C   0  0  0  0  0  3  0  0  0  0  0  0
  -21.9150    0.2860  -36.8090 C   0  0  0  0  0  3  0  0  0  0  0  0
  -20.0200   -1.3170  -28.7300 C   0  0  0  0  0  0  0  0  0  0  0  0
  -20.3830   -2.6450  -28.7950 C   0  0  0  0  0  3  0  0  0  0  0  0
  -20.1180   -3.5450  -27.7830 C   0  0  0  0  0  0  0  0  0  0  0  0
  -19.4520   -3.0690  -26.6460 C   0  0  0  0  0  0  0  0  0  0  0  0
  -19.0690   -1.7500  -26.5340 C   0  0  0  0  0  0  0  0  0  0  0  0
  -19.3670   -0.9080  -27.5870 C   0  0  0  0  0  3  0  0  0  0  0  0
  -20.4790   -4.8850  -27.8390 O   0  0  0  0  0  0  0  0  0  0  0  0
  -20.0550   -5.6120  -28.9740 C   0  0  0  0  0  1  0  0  0  0  0  0
  -19.1650   -3.9270  -25.6090 O   0  0  0  0  0  0  0  0  0  0  0  0
  -19.8730   -4.1370  -24.9180 H   0  0  0  0  0  0  0  0  0  0  0  0
  -18.4240   -1.3380  -25.4060 O   0  0  0  0  0  0  0  0  0  0  0  0
  -18.0800   -0.0250  -25.0730 C   0  0  0  0  0  1  0  0  0  0  0  0
  1  5  1  0  0  0  0
  1  2  1  6  0  0  0
  2  3  1  0  0  0  0
  3 25  1  1  0  0  0
  4  3  1  0  0  0  0
  4  6  1  0  0  0  0
  5  4  1  0  0  0  0
  7  5  1  0  0  0  0
  8 16  1  6  0  0  0
  8  9  1  0  0  0  0
  8  1  1  0  0  0  0
  9 11  2  0  0  0  0
 10 13  1  0  0  0  0
 10  9  1  0  0  0  0
 12 10  1  0  0  0  0
 14 16  1  0  0  0  0
 14 12  1  0  0  0  0
 15 12  2  0  0  0  0
 17 16  2  0  0  0  0
 18 19  1  0  0  0  0
 18 14  1  0  0  0  0
 20 19  2  0  0  0  0
 21 20  1  0  0  0  0
 22 21  1  0  0  0  0
 23 21  2  0  0  0  0
 23 24  1  0  0  0  0
 24 18  2  0  0  0  0
 25 30  1  0  0  0  0
 26 25  2  0  0  0  0
 26 27  1  0  0  0  0
 27 28  2  0  0  0  0
 28 29  1  0  0  0  0
 28 33  1  0  0  0  0
 29 35  1  0  0  0  0
 30 29  2  0  0  0  0
 31 27  1  0  0  0  0
 32 31  1  0  0  0  0
 33 34  1  0  0  0  0
 35 36  1  0  0  0  0
M  END
>  <Pose>
1

>  <Score>
-9.276

$$$$
