MODEL 1
REMARK VINA RESULT:    -9.276      0.000      0.000
REMARK INTER + INTRA:         -13.234
REMARK INTER:                 -12.258
REMARK INTRA:                  -0.976
REMARK UNBOUND:                -0.976
REMARK  6 active torsions:
REMARK  status: ('A' for Active; 'I' for Inactive)
REMARK    1  A    between atoms: C_5  and  N_8 
REMARK    2  A    between atoms: C_14  and  C_17 
REMARK    3  A    between atoms: C_19  and  C_22 
REMARK    4  A    between atoms: C_24  and  O_31 
REMARK    5  A    between atoms: C_25  and  O_30 
REMARK    6  A    between atoms: C_26  and  O_28 
ROOT
ATOM      1  C   UNK d   1     -19.987  -1.472 -31.885  0.00  0.00     0.041 C 
ATOM      2  C   UNK d   1     -20.900  -1.285 -30.953  0.00  0.00     0.026 C 
ATOM      3  C   UNK d   1     -20.344  -0.451 -29.857  0.00  0.00     0.134 C 
ATOM      4  N   UNK d   1     -19.212   0.175 -30.481  0.00  0.00    -0.228 NA
ATOM      5  N   UNK d   1     -18.830  -0.771 -31.443  0.00  0.00    -0.323 N 
ATOM      6  H   UNK d   1     -18.464   0.454 -29.848  0.00  0.00     0.147 HD
ATOM      7  H   UNK d   1     -17.854  -0.921 -31.769  0.00  0.00     0.180 HD
ENDROOT
BRANCH   1   8
ATOM      8  C   UNK d   1     -20.120  -2.252 -33.164  0.00  0.00     0.221 C 
ATOM      9  C   UNK d   1     -21.277  -3.172 -33.089  0.00  0.00     0.244 C 
ATOM     10  N   UNK d   1     -22.560  -2.721 -33.474  0.00  0.00    -0.277 N 
ATOM     11  O   UNK d   1     -21.108  -4.338 -32.684  0.00  0.00    -0.272 OA
ATOM     12  C   UNK d   1     -22.710  -1.567 -34.249  0.00  0.00     0.336 C 
ATOM     13  H   UNK d   1     -23.440  -3.243 -33.191  0.00  0.00     0.173 HD
ATOM     14  N   UNK d   1     -21.578  -0.818 -34.667  0.00  0.00    -0.233 N 
ATOM     15  O   UNK d   1     -23.860  -1.136 -34.613  0.00  0.00    -0.246 OA
ATOM     16  C   UNK d   1     -20.296  -1.283 -34.272  0.00  0.00     0.251 C 
ATOM     17  O   UNK d   1     -19.287  -0.869 -34.869  0.00  0.00    -0.271 OA
BRANCH  14  18
ATOM     18  C   UNK d   1     -21.751   0.353 -35.454  0.00  0.00     0.047 A 
ATOM     19  C   UNK d   1     -21.754   1.592 -34.866  0.00  0.00     0.032 A 
ATOM     20  C   UNK d   1     -21.917   2.748 -35.603  0.00  0.00     0.026 A 
ATOM     21  C   UNK d   1     -22.082   2.680 -36.964  0.00  0.00     0.034 A 
ATOM     22 Cl   UNK d   1     -22.293   4.147 -37.928  0.00  0.00    -0.084 Cl
ATOM     23  C   UNK d   1     -22.083   1.448 -37.573  0.00  0.00     0.026 A 
ATOM     24  C   UNK d   1     -21.915   0.286 -36.809  0.00  0.00     0.032 A 
ENDBRANCH  14  18
ENDBRANCH   1   8
BRANCH   3  25
ATOM     25  C   UNK d   1     -20.020  -1.317 -28.730  0.00  0.00    -0.030 A 
ATOM     26  C   UNK d   1     -20.383  -2.645 -28.795  0.00  0.00     0.049 A 
ATOM     27  C   UNK d   1     -20.118  -3.545 -27.783  0.00  0.00     0.104 A 
ATOM     28  C   UNK d   1     -19.452  -3.069 -26.646  0.00  0.00     0.133 A 
ATOM     29  C   UNK d   1     -19.069  -1.750 -26.534  0.00  0.00     0.104 A 
ATOM     30  C   UNK d   1     -19.367  -0.908 -27.587  0.00  0.00     0.049 A 
BRANCH  27  31
ATOM     31  O   UNK d   1     -20.479  -4.885 -27.839  0.00  0.00    -0.353 OA
ATOM     32  C   UNK d   1     -20.055  -5.612 -28.974  0.00  0.00     0.210 C 
ENDBRANCH  27  31
BRANCH  28  33
ATOM     33  O   UNK d   1     -19.165  -3.927 -25.609  0.00  0.00    -0.356 OA
ATOM     34  H   UNK d   1     -19.873  -4.137 -24.918  0.00  0.00     0.218 HD
ENDBRANCH  28  33
BRANCH  29  35
ATOM     35  O   UNK d   1     -18.424  -1.338 -25.406  0.00  0.00    -0.353 OA
ATOM     36  C   UNK d   1     -18.080  -0.025 -25.073  0.00  0.00     0.210 C 
ENDBRANCH  29  35
ENDBRANCH   3  25
TORSDOF 6
ENDMDL
