MODEL 1
REMARK VINA RESULT:    -8.638      0.000      0.000
REMARK INTER + INTRA:         -11.719
REMARK INTER:                 -10.910
REMARK INTRA:                  -0.809
REMARK UNBOUND:                -0.809
REMARK  5 active torsions:
REMARK  status: ('A' for Active; 'I' for Inactive)
REMARK    1  A    between atoms: C_5  and  N_8 
REMARK    2  A    between atoms: C_14  and  C_17 
REMARK    3  A    between atoms: C_19  and  C_22 
REMARK    4  A    between atoms: C_24  and  O_30 
REMARK    5  A    between atoms: C_25  and  O_28 
ROOT
ATOM      1  N   UNK d   1     -22.157   0.265 -35.861  0.00  0.00    -0.233 N 
ATOM      2  C   UNK d   1     -23.368  -0.232 -35.310  0.00  0.00     0.336 C 
ATOM      3  O   UNK d   1     -24.453   0.326 -35.649  0.00  0.00    -0.246 OA
ATOM      4  N   UNK d   1     -23.379  -1.320 -34.408  0.00  0.00    -0.277 N 
ATOM      5  C   UNK d   1     -22.171  -1.948 -34.025  0.00  0.00     0.244 C 
ATOM      6  O   UNK d   1     -22.171  -3.040 -33.356  0.00  0.00    -0.272 OA
ATOM      7  C   UNK d   1     -20.869  -1.382 -34.376  0.00  0.00     0.221 C 
ATOM      8  C   UNK d   1     -20.964  -0.390 -35.454  0.00  0.00     0.251 C 
ATOM      9  O   UNK d   1     -19.908  -0.066 -36.100  0.00  0.00    -0.271 OA
ATOM     10  H   UNK d   1     -24.288  -1.673 -34.010  0.00  0.00     0.173 HD
ENDROOT
BRANCH   7  11
ATOM     11  C   UNK d   1     -20.200  -0.832 -33.160  0.00  0.00     0.041 C 
ATOM     12  C   UNK d   1     -20.736  -0.163 -32.175  0.00  0.00     0.026 C 
ATOM     13  C   UNK d   1     -19.649   0.154 -31.217  0.00  0.00     0.134 C 
ATOM     14  N   UNK d   1     -18.439  -0.020 -31.992  0.00  0.00    -0.228 NA
ATOM     15  N   UNK d   1     -18.805  -0.992 -32.930  0.00  0.00    -0.323 N 
ATOM     16  H   UNK d   1     -18.149   0.873 -32.455  0.00  0.00     0.147 HD
ATOM     17  H   UNK d   1     -18.130  -1.683 -33.350  0.00  0.00     0.180 HD
BRANCH  13  18
ATOM     18  C   UNK d   1     -19.667  -0.794 -30.069  0.00  0.00    -0.032 A 
ATOM     19  C   UNK d   1     -20.401  -1.958 -30.088  0.00  0.00     0.048 A 
ATOM     20  C   UNK d   1     -20.426  -2.845 -29.028  0.00  0.00     0.099 A 
ATOM     21  C   UNK d   1     -19.696  -2.579 -27.892  0.00  0.00     0.101 A 
ATOM     22  C   UNK d   1     -18.956  -1.423 -27.853  0.00  0.00     0.040 A 
ATOM     23  C   UNK d   1     -18.938  -0.546 -28.915  0.00  0.00     0.012 A 
BRANCH  20  24
ATOM     24  O   UNK d   1     -21.183  -3.998 -29.106  0.00  0.00    -0.358 OA
ATOM     25  H   UNK d   1     -21.534  -4.447 -28.284  0.00  0.00     0.217 HD
ENDBRANCH  20  24
BRANCH  21  26
ATOM     26  O   UNK d   1     -19.706  -3.450 -26.821  0.00  0.00    -0.353 OA
ATOM     27  C   UNK d   1     -19.347  -2.984 -25.540  0.00  0.00     0.210 C 
ENDBRANCH  21  26
ENDBRANCH  13  18
ENDBRANCH   7  11
BRANCH   1  28
ATOM     28  C   UNK d   1     -22.115   1.355 -36.773  0.00  0.00     0.047 A 
ATOM     29  C   UNK d   1     -22.306   1.182 -38.139  0.00  0.00     0.032 A 
ATOM     30  C   UNK d   1     -22.268   2.223 -39.017  0.00  0.00     0.026 A 
ATOM     31  C   UNK d   1     -22.031   3.507 -38.549  0.00  0.00     0.034 A 
ATOM     32 Cl   UNK d   1     -21.974   4.873 -39.647  0.00  0.00    -0.084 Cl
ATOM     33  C   UNK d   1     -21.836   3.715 -37.193  0.00  0.00     0.026 A 
ATOM     34  C   UNK d   1     -21.880   2.631 -36.313  0.00  0.00     0.032 A 
ENDBRANCH   1  28
TORSDOF 5
ENDMDL
