MODEL 1
REMARK VINA RESULT:   -10.111      0.000      0.000
REMARK INTER + INTRA:         -12.477
REMARK INTER:                 -12.180
REMARK INTRA:                  -0.298
REMARK UNBOUND:                -0.298
REMARK  4 active torsions:
REMARK  status: ('A' for Active; 'I' for Inactive)
REMARK    1  A    between atoms: C_5  and  N_8 
REMARK    2  A    between atoms: C_14  and  C_17 
REMARK    3  A    between atoms: C_19  and  C_22 
REMARK    4  A    between atoms: C_24  and  O_28 
ROOT
ATOM      1  N   UNK d   1     -21.204  -2.262 -32.539  0.00  0.00    -0.233 N 
ATOM      2  C   UNK d   1     -21.699  -3.563 -32.892  0.00  0.00     0.336 C 
ATOM      3  O   UNK d   1     -22.217  -3.788 -34.029  0.00  0.00    -0.246 OA
ATOM      4  N   UNK d   1     -21.581  -4.580 -31.908  0.00  0.00    -0.277 N 
ATOM      5  C   UNK d   1     -20.988  -4.295 -30.620  0.00  0.00     0.244 C 
ATOM      6  O   UNK d   1     -20.509  -5.255 -30.004  0.00  0.00    -0.272 OA
ATOM      7  C   UNK d   1     -20.983  -2.933 -30.125  0.00  0.00     0.221 C 
ATOM      8  C   UNK d   1     -20.628  -2.032 -31.262  0.00  0.00     0.251 C 
ATOM      9  O   UNK d   1     -19.836  -1.060 -31.164  0.00  0.00    -0.271 OA
ATOM     10  H   UNK d   1     -21.932  -5.525 -32.143  0.00  0.00     0.173 HD
ENDROOT
BRANCH   7  11
ATOM     11  C   UNK d   1     -20.230  -2.651 -28.925  0.00  0.00     0.041 C 
ATOM     12  C   UNK d   1     -19.168  -1.895 -28.768  0.00  0.00     0.026 C 
ATOM     13  C   UNK d   1     -18.716  -1.885 -27.355  0.00  0.00     0.134 C 
ATOM     14  N   UNK d   1     -19.815  -2.520 -26.666  0.00  0.00    -0.228 NA
ATOM     15  N   UNK d   1     -20.550  -3.204 -27.631  0.00  0.00    -0.323 N 
ATOM     16  H   UNK d   1     -20.387  -1.850 -26.109  0.00  0.00     0.147 HD
ATOM     17  H   UNK d   1     -21.205  -3.980 -27.395  0.00  0.00     0.180 HD
BRANCH  13  18
ATOM     18  C   UNK d   1     -18.563  -0.533 -26.807  0.00  0.00    -0.033 A 
ATOM     19  C   UNK d   1     -18.769   0.544 -27.655  0.00  0.00     0.045 A 
ATOM     20  C   UNK d   1     -18.635   1.825 -27.173  0.00  0.00     0.066 A 
ATOM     21  C   UNK d   1     -18.300   2.071 -25.862  0.00  0.00     0.036 A 
ATOM     22  C   UNK d   1     -18.092   1.014 -25.007  0.00  0.00     0.003 A 
ATOM     23  C   UNK d   1     -18.228  -0.283 -25.501  0.00  0.00     0.009 A 
BRANCH  20  24
ATOM     24  O   UNK d   1     -18.841   2.922 -28.020  0.00  0.00    -0.361 OA
ATOM     25  H   UNK d   1     -19.780   3.236 -28.193  0.00  0.00     0.217 HD
ENDBRANCH  20  24
ENDBRANCH  13  18
ENDBRANCH   7  11
BRANCH   1  26
ATOM     26  C   UNK d   1     -21.322  -1.222 -33.536  0.00  0.00     0.047 A 
ATOM     27  C   UNK d   1     -22.420  -0.386 -33.584  0.00  0.00     0.032 A 
ATOM     28  C   UNK d   1     -22.564   0.615 -34.526  0.00  0.00     0.026 A 
ATOM     29  C   UNK d   1     -21.568   0.801 -35.474  0.00  0.00     0.034 A 
ATOM     30 Cl   UNK d   1     -21.777   2.068 -36.648  0.00  0.00    -0.084 Cl
ATOM     31  C   UNK d   1     -20.451  -0.030 -35.447  0.00  0.00     0.026 A 
ATOM     32  C   UNK d   1     -20.342  -1.021 -34.488  0.00  0.00     0.032 A 
ENDBRANCH   1  26
TORSDOF 4
ENDMDL
