MODEL 1
REMARK VINA RESULT:    -8.923      0.000      0.000
REMARK INTER + INTRA:         -11.186
REMARK INTER:                 -10.488
REMARK INTRA:                  -0.698
REMARK UNBOUND:                -0.698
REMARK  3 active torsions:
REMARK  status: ('A' for Active; 'I' for Inactive)
REMARK    1  A    between atoms: C_5  and  N_8 
REMARK    2  A    between atoms: C_14  and  C_17 
REMARK    3  A    between atoms: C_19  and  C_22 
ROOT
ATOM      1  N   UNK d   1     -20.661   0.280 -33.470  0.00  0.00    -0.233 N 
ATOM      2  C   UNK d   1     -19.496   1.077 -33.577  0.00  0.00     0.336 C 
ATOM      3  O   UNK d   1     -18.447   0.748 -32.969  0.00  0.00    -0.246 OA
ATOM      4  N   UNK d   1     -19.537   2.262 -34.391  0.00  0.00    -0.277 N 
ATOM      5  C   UNK d   1     -20.722   2.636 -35.080  0.00  0.00     0.244 C 
ATOM      6  O   UNK d   1     -20.849   3.814 -35.497  0.00  0.00    -0.272 OA
ATOM      7  C   UNK d   1     -21.781   1.636 -35.293  0.00  0.00     0.221 C 
ATOM      8  C   UNK d   1     -21.826   0.683 -34.170  0.00  0.00     0.251 C 
ATOM      9  O   UNK d   1     -22.948   0.192 -33.802  0.00  0.00    -0.271 OA
ATOM     10  H   UNK d   1     -18.702   2.877 -34.498  0.00  0.00     0.173 HD
ENDROOT
BRANCH   7  11
ATOM     11  C   UNK d   1     -21.570   0.900 -36.585  0.00  0.00     0.041 C 
ATOM     12  C   UNK d   1     -22.247   1.003 -37.698  0.00  0.00     0.026 C 
ATOM     13  C   UNK d   1     -21.680   0.084 -38.697  0.00  0.00     0.135 C 
ATOM     14  N   UNK d   1     -20.404  -0.281 -38.149  0.00  0.00    -0.228 NA
ATOM     15  N   UNK d   1     -20.538  -0.055 -36.770  0.00  0.00    -0.323 N 
ATOM     16  H   UNK d   1     -19.633   0.261 -38.550  0.00  0.00     0.147 HD
ATOM     17  H   UNK d   1     -19.943  -0.545 -36.064  0.00  0.00     0.180 HD
BRANCH  13  18
ATOM     18  C   UNK d   1     -22.572  -1.102 -38.753  0.00  0.00    -0.018 A 
ATOM     19  C   UNK d   1     -22.283  -2.147 -39.597  0.00  0.00     0.125 A 
ATOM     20  N   UNK d   1     -23.096  -3.238 -39.653  0.00  0.00    -0.273 NA
ATOM     21  C   UNK d   1     -24.204  -3.351 -38.903  0.00  0.00     0.116 A 
ATOM     22  C   UNK d   1     -24.524  -2.322 -38.046  0.00  0.00     0.020 A 
ATOM     23  C   UNK d   1     -23.696  -1.192 -37.976  0.00  0.00     0.012 A 
ENDBRANCH  13  18
ENDBRANCH   7  11
BRANCH   1  24
ATOM     24  C   UNK d   1     -20.666  -0.918 -32.658  0.00  0.00     0.047 A 
ATOM     25  C   UNK d   1     -20.643  -0.867 -31.281  0.00  0.00     0.032 A 
ATOM     26  C   UNK d   1     -20.647  -2.027 -30.514  0.00  0.00     0.026 A 
ATOM     27  C   UNK d   1     -20.675  -3.271 -31.106  0.00  0.00     0.034 A 
ATOM     28 Cl   UNK d   1     -20.682  -4.738 -30.142  0.00  0.00    -0.084 Cl
ATOM     29  C   UNK d   1     -20.697  -3.317 -32.484  0.00  0.00     0.026 A 
ATOM     30  C   UNK d   1     -20.693  -2.163 -33.246  0.00  0.00     0.032 A 
ENDBRANCH   1  24
TORSDOF 3
ENDMDL
