/Users/jonathanwahrer/Desktop/Msc/3_Semester/Drug_Design_Praktikum/waehrer_HTS_screening/HTS_experiment/out/docking_results/vina_output/5l4q/2361_docked.pdbqt
 OpenBabel03212219273D

 30 33  0  0  1  0  0  0  0  0999 V2000
  -20.6610    0.2800  -33.4700 N   0  0  0  0  0  0  0  0  0  0  0  0
  -19.4960    1.0770  -33.5770 C   0  0  0  0  0  0  0  0  0  0  0  0
  -18.4470    0.7480  -32.9690 O   0  0  0  0  0  0  0  0  0  0  0  0
  -19.5370    2.2620  -34.3910 N   0  0  0  0  0  0  0  0  0  0  0  0
  -20.7220    2.6360  -35.0800 C   0  0  0  0  0  0  0  0  0  0  0  0
  -20.8490    3.8140  -35.4970 O   0  0  0  0  0  0  0  0  0  0  0  0
  -21.7810    1.6360  -35.2930 C   0  0  2  0  0  3  0  0  0  0  0  0
  -21.8260    0.6830  -34.1700 C   0  0  0  0  0  0  0  0  0  0  0  0
  -22.9480    0.1920  -33.8020 O   0  0  0  0  0  0  0  0  0  0  0  0
  -18.7020    2.8770  -34.4980 H   0  0  0  0  0  0  0  0  0  0  0  0
  -21.5700    0.9000  -36.5850 C   0  0  1  0  0  3  0  0  0  0  0  0
  -22.2470    1.0030  -37.6980 C   0  0  0  0  0  2  0  0  0  0  0  0
  -21.6800    0.0840  -38.6970 C   0  0  1  0  0  3  0  0  0  0  0  0
  -20.4040   -0.2810  -38.1490 N   0  0  0  0  0  0  0  0  0  0  0  0
  -20.5380   -0.0550  -36.7700 N   0  0  0  0  0  0  0  0  0  0  0  0
  -19.6330    0.2610  -38.5500 H   0  0  0  0  0  0  0  0  0  0  0  0
  -19.9430   -0.5450  -36.0640 H   0  0  0  0  0  0  0  0  0  0  0  0
  -22.5720   -1.1020  -38.7530 C   0  0  0  0  0  0  0  0  0  0  0  0
  -22.2830   -2.1470  -39.5970 C   0  0  0  0  0  3  0  0  0  0  0  0
  -23.0960   -3.2380  -39.6530 N   0  0  0  0  0  0  0  0  0  0  0  0
  -24.2040   -3.3510  -38.9030 C   0  0  0  0  0  3  0  0  0  0  0  0
  -24.5240   -2.3220  -38.0460 C   0  0  0  0  0  3  0  0  0  0  0  0
  -23.6960   -1.1920  -37.9760 C   0  0  0  0  0  3  0  0  0  0  0  0
  -20.6660   -0.9180  -32.6580 C   0  0  0  0  0  0  0  0  0  0  0  0
  -20.6430   -0.8670  -31.2810 C   0  0  0  0  0  3  0  0  0  0  0  0
  -20.6470   -2.0270  -30.5140 C   0  0  0  0  0  3  0  0  0  0  0  0
  -20.6750   -3.2710  -31.1060 C   0  0  0  0  0  0  0  0  0  0  0  0
  -20.6820   -4.7380  -30.1420 Cl  0  0  0  0  0  0  0  0  0  0  0  0
  -20.6970   -3.3170  -32.4840 C   0  0  0  0  0  3  0  0  0  0  0  0
  -20.6930   -2.1630  -33.2460 C   0  0  0  0  0  3  0  0  0  0  0  0
  1 24  1  0  0  0  0
  2  1  1  0  0  0  0
  2  3  2  0  0  0  0
  4  2  1  0  0  0  0
  5  4  1  0  0  0  0
  6  5  2  0  0  0  0
  7  5  1  1  0  0  0
  7  8  1  0  0  0  0
  8  9  2  0  0  0  0
  8  1  1  0  0  0  0
 10  4  1  0  0  0  0
 11 12  1  6  0  0  0
 11  7  1  0  0  0  0
 13 18  1  1  0  0  0
 13 14  1  0  0  0  0
 13 12  1  0  0  0  0
 14 15  1  0  0  0  0
 15 11  1  0  0  0  0
 15 17  1  0  0  0  0
 16 14  1  0  0  0  0
 18 23  1  0  0  0  0
 19 18  2  0  0  0  0
 20 19  1  0  0  0  0
 20 21  2  0  0  0  0
 21 22  1  0  0  0  0
 22 23  2  0  0  0  0
 24 25  1  0  0  0  0
 25 26  2  0  0  0  0
 27 26  1  0  0  0  0
 27 28  1  0  0  0  0
 29 27  2  0  0  0  0
 30 24  2  0  0  0  0
 30 29  1  0  0  0  0
M  END
>  <Pose>
1

>  <Score>
-8.923

$$$$
