MODEL 1
REMARK VINA RESULT:    -8.224      0.000      0.000
REMARK INTER + INTRA:         -11.500
REMARK INTER:                 -10.868
REMARK INTRA:                  -0.632
REMARK UNBOUND:                -0.632
REMARK  6 active torsions:
REMARK  status: ('A' for Active; 'I' for Inactive)
REMARK    1  A    between atoms: C_5  and  N_8 
REMARK    2  A    between atoms: C_9  and  O_19 
REMARK    3  A    between atoms: C_9  and  C_20 
REMARK       I    between atoms: C_20  and  N_22 
REMARK    4  A    between atoms: N_22  and  C_23 
REMARK    5  A    between atoms: C_23  and  C_24 
REMARK    6  A    between atoms: C_24  and  N_25 
ROOT
ATOM      1  N   UNK d   1     -20.303   0.243 -33.608  0.00  0.00    -0.254 N 
ATOM      2  C   UNK d   1     -20.874  -1.001 -33.982  0.00  0.00     0.256 A 
ATOM      3  C   UNK d   1     -20.944  -1.984 -32.910  0.00  0.00     0.034 A 
ATOM      4  C   UNK d   1     -20.416  -1.766 -31.674  0.00  0.00     0.048 A 
ATOM      5  C   UNK d   1     -20.500  -2.771 -30.692  0.00  0.00     0.030 A 
ATOM      6  C   UNK d   1     -21.099  -3.984 -30.919  0.00  0.00     0.002 A 
ATOM      7  C   UNK d   1     -21.631  -4.188 -32.181  0.00  0.00     0.001 A 
ATOM      8  C   UNK d   1     -21.553  -3.223 -33.133  0.00  0.00     0.015 A 
ATOM      9  N   UNK d   1     -19.788  -0.522 -31.320  0.00  0.00    -0.308 N 
ATOM     10  C   UNK d   1     -19.756   0.461 -32.335  0.00  0.00     0.330 A 
ATOM     11  O   UNK d   1     -19.215   1.591 -32.101  0.00  0.00    -0.246 OA
ATOM     12  H   UNK d   1     -19.395  -0.394 -30.371  0.00  0.00     0.170 HD
ENDROOT
BRANCH   2  13
ATOM     13  O   UNK d   1     -19.967  -1.525 -34.969  0.00  0.00    -0.359 OA
ATOM     14  H   UNK d   1     -19.139  -0.977 -34.980  0.00  0.00     0.213 HD
ENDBRANCH   2  13
BRANCH   2  15
ATOM     15  C   UNK d   1     -22.169  -0.840 -34.691  0.00  0.00     0.279 C 
ATOM     16  O   UNK d   1     -23.164  -0.445 -34.081  0.00  0.00    -0.268 OA
ATOM     17  N   UNK d   1     -22.213  -1.151 -36.063  0.00  0.00    -0.355 N 
ATOM     18  H   UNK d   1     -21.364  -1.491 -36.595  0.00  0.00     0.162 HD
BRANCH  17  19
ATOM     19  C   UNK d   1     -23.434  -1.028 -36.860  0.00  0.00     0.142 C 
BRANCH  19  20
ATOM     20  C   UNK d   1     -23.318  -1.676 -38.186  0.00  0.00     0.136 C 
BRANCH  20  21
ATOM     21  N   UNK d   1     -22.988  -0.856 -39.286  0.00  0.00    -0.407 N 
ATOM     22  C   UNK d   1     -23.312   0.510 -39.235  0.00  0.00     0.143 C 
ATOM     23  C   UNK d   1     -22.617   1.220 -40.400  0.00  0.00     0.187 C 
ATOM     24  O   UNK d   1     -22.553   0.372 -41.519  0.00  0.00    -0.388 OA
ATOM     25  C   UNK d   1     -21.638  -0.659 -41.321  0.00  0.00     0.187 C 
ATOM     26  C   UNK d   1     -21.717  -1.093 -39.882  0.00  0.00     0.143 C 
ENDBRANCH  20  21
ENDBRANCH  19  20
ENDBRANCH  17  19
ENDBRANCH   2  15
BRANCH   1  27
ATOM     27  C   UNK d   1     -20.283   1.349 -34.576  0.00  0.00     0.043 A 
ATOM     28  C   UNK d   1     -19.318   1.437 -35.544  0.00  0.00     0.031 A 
ATOM     29  C   UNK d   1     -19.311   2.489 -36.454  0.00  0.00     0.026 A 
ATOM     30  C   UNK d   1     -20.289   3.455 -36.378  0.00  0.00     0.034 A 
ATOM     31 Cl   UNK d   1     -20.273   4.788 -37.538  0.00  0.00    -0.084 Cl
ATOM     32  C   UNK d   1     -21.272   3.390 -35.413  0.00  0.00     0.026 A 
ATOM     33  C   UNK d   1     -21.249   2.330 -34.525  0.00  0.00     0.031 A 
ENDBRANCH   1  27
TORSDOF 6
ENDMDL
