/Users/jonathanwahrer/Desktop/Msc/3_Semester/Drug_Design_Praktikum/waehrer_HTS_screening/HTS_experiment/out/docking_results/vina_output/5l4q/2363_docked.pdbqt
 OpenBabel03212219283D

 33 36  0  0  1  0  0  0  0  0999 V2000
  -20.3030    0.2430  -33.6080 N   0  0  0  0  0  0  0  0  0  0  0  0
  -20.8740   -1.0010  -33.9820 C   0  0  2  0  0  0  0  0  0  0  0  0
  -20.9440   -1.9840  -32.9100 C   0  0  0  0  0  0  0  0  0  0  0  0
  -20.4160   -1.7660  -31.6740 C   0  0  0  0  0  0  0  0  0  0  0  0
  -20.5000   -2.7710  -30.6920 C   0  0  0  0  0  3  0  0  0  0  0  0
  -21.0990   -3.9840  -30.9190 C   0  0  0  0  0  3  0  0  0  0  0  0
  -21.6310   -4.1880  -32.1810 C   0  0  0  0  0  3  0  0  0  0  0  0
  -21.5530   -3.2230  -33.1330 C   0  0  0  0  0  3  0  0  0  0  0  0
  -19.7880   -0.5220  -31.3200 N   0  0  0  0  0  0  0  0  0  0  0  0
  -19.7560    0.4610  -32.3350 C   0  0  0  0  0  0  0  0  0  0  0  0
  -19.2150    1.5910  -32.1010 O   0  0  0  0  0  0  0  0  0  0  0  0
  -19.3950   -0.3940  -30.3710 H   0  0  0  0  0  0  0  0  0  0  0  0
  -19.9670   -1.5250  -34.9690 O   0  0  0  0  0  0  0  0  0  0  0  0
  -19.1390   -0.9770  -34.9800 H   0  0  0  0  0  0  0  0  0  0  0  0
  -22.1690   -0.8400  -34.6910 C   0  0  0  0  0  0  0  0  0  0  0  0
  -23.1640   -0.4450  -34.0810 O   0  0  0  0  0  0  0  0  0  0  0  0
  -22.2130   -1.1510  -36.0630 N   0  0  0  0  0  0  0  0  0  0  0  0
  -21.3640   -1.4910  -36.5950 H   0  0  0  0  0  0  0  0  0  0  0  0
  -23.4340   -1.0280  -36.8600 C   0  0  0  0  0  2  0  0  0  0  0  0
  -23.3180   -1.6760  -38.1860 C   0  0  0  0  0  2  0  0  0  0  0  0
  -22.9880   -0.8560  -39.2860 N   0  0  0  0  0  0  0  0  0  0  0  0
  -23.3120    0.5100  -39.2350 C   0  0  0  0  0  2  0  0  0  0  0  0
  -22.6170    1.2200  -40.4000 C   0  0  0  0  0  2  0  0  0  0  0  0
  -22.5530    0.3720  -41.5190 O   0  0  0  0  0  0  0  0  0  0  0  0
  -21.6380   -0.6590  -41.3210 C   0  0  0  0  0  2  0  0  0  0  0  0
  -21.7170   -1.0930  -39.8820 C   0  0  0  0  0  2  0  0  0  0  0  0
  -20.2830    1.3490  -34.5760 C   0  0  0  0  0  0  0  0  0  0  0  0
  -19.3180    1.4370  -35.5440 C   0  0  0  0  0  3  0  0  0  0  0  0
  -19.3110    2.4890  -36.4540 C   0  0  0  0  0  3  0  0  0  0  0  0
  -20.2890    3.4550  -36.3780 C   0  0  0  0  0  0  0  0  0  0  0  0
  -20.2730    4.7880  -37.5380 Cl  0  0  0  0  0  0  0  0  0  0  0  0
  -21.2720    3.3900  -35.4130 C   0  0  0  0  0  3  0  0  0  0  0  0
  -21.2490    2.3300  -34.5250 C   0  0  0  0  0  3  0  0  0  0  0  0
  1 10  1  0  0  0  0
  2 13  1  6  0  0  0
  2  1  1  0  0  0  0
  2  3  1  0  0  0  0
  3  4  1  0  0  0  0
  4  9  1  0  0  0  0
  4  5  2  0  0  0  0
  6  5  1  0  0  0  0
  7  6  2  0  0  0  0
  8  3  2  0  0  0  0
  8  7  1  0  0  0  0
  9 12  1  0  0  0  0
 10 11  2  0  0  0  0
 10  9  1  0  0  0  0
 14 13  1  0  0  0  0
 15 16  2  0  0  0  0
 15  2  1  0  0  0  0
 17 15  1  0  0  0  0
 18 17  1  0  0  0  0
 19 17  1  0  0  0  0
 20 19  1  0  0  0  0
 21 22  1  0  0  0  0
 21 20  1  0  0  0  0
 23 22  1  0  0  0  0
 24 25  1  0  0  0  0
 24 23  1  0  0  0  0
 25 26  1  0  0  0  0
 26 21  1  0  0  0  0
 27 33  1  0  0  0  0
 27  1  1  0  0  0  0
 28 27  2  0  0  0  0
 29 30  2  0  0  0  0
 29 28  1  0  0  0  0
 30 32  1  0  0  0  0
 31 30  1  0  0  0  0
 32 33  2  0  0  0  0
M  END
>  <Pose>
1

>  <Score>
-8.224

$$$$
