/Users/jonathanwahrer/Desktop/Msc/3_Semester/Drug_Design_Praktikum/waehrer_HTS_screening/HTS_experiment/out/docking_results/vina_output/5l4q/2364_docked.pdbqt
 OpenBabel03212219283D

 33 37  0  0  1  0  0  0  0  0999 V2000
  -22.4240    0.3250  -34.8030 N   0  0  0  0  0  0  0  0  0  0  0  0
  -21.9630    1.6660  -34.6980 C   0  0  0  0  0  0  0  0  0  0  0  0
  -22.6180    2.5970  -35.2690 O   0  0  0  0  0  0  0  0  0  0  0  0
  -20.7570    2.0490  -33.9580 C   0  0  1  0  0  3  0  0  0  0  0  0
  -19.9370    0.9610  -33.5400 N   0  0  1  0  0  0  0  0  0  0  0  0
  -20.6090   -0.2540  -33.2130 C   0  0  2  0  0  0  0  0  0  0  0  0
  -21.0820   -0.3850  -31.7860 C   0  0  0  0  0  2  0  0  0  0  0  0
  -20.1090   -1.4040  -31.5610 N   0  0  0  0  0  0  0  0  0  0  0  0
  -19.5860   -1.3230  -32.8670 C   0  0  0  0  0  2  0  0  0  0  0  0
  -21.6030   -0.6860  -34.2300 C   0  0  0  0  0  0  0  0  0  0  0  0
  -21.7420   -1.8810  -34.5950 O   0  0  0  0  0  0  0  0  0  0  0  0
  -18.9640    0.7110  -34.5640 C   0  0  0  0  0  2  0  0  0  0  0  0
  -19.1500    1.7390  -35.6440 C   0  0  1  0  0  3  0  0  0  0  0  0
  -19.8770    2.8450  -34.9330 C   0  0  0  0  0  2  0  0  0  0  0  0
  -19.2630   -1.3210  -30.4270 C   0  0  0  0  0  2  0  0  0  0  0  0
  -19.5180   -2.2930  -29.3580 C   0  0  0  0  0  0  0  0  0  0  0  0
  -19.2380   -1.9690  -28.0530 C   0  0  0  0  0  3  0  0  0  0  0  0
  -19.4700   -2.8760  -27.0150 C   0  0  0  0  0  0  0  0  0  0  0  0
  -19.9900   -4.1140  -27.3130 C   0  0  0  0  0  3  0  0  0  0  0  0
  -20.2810   -4.4640  -28.6100 C   0  0  0  0  0  3  0  0  0  0  0  0
  -20.0370   -3.5370  -29.6210 C   0  0  0  0  0  3  0  0  0  0  0  0
  -19.1890   -2.5540  -25.7020 O   0  0  0  0  0  0  0  0  0  0  0  0
  -18.5130   -1.3400  -25.4340 C   0  0  0  0  0  1  0  0  0  0  0  0
  -23.6730   -0.0160  -35.4620 C   0  0  0  0  0  2  0  0  0  0  0  0
  -23.3940   -0.5400  -36.8440 C   0  0  0  0  0  0  0  0  0  0  0  0
  -23.9790   -1.7020  -37.2910 C   0  0  0  0  0  3  0  0  0  0  0  0
  -23.7390   -2.2050  -38.5540 C   0  0  0  0  0  0  0  0  0  0  0  0
  -24.5020   -3.6860  -39.0880 Cl  0  0  0  0  0  0  0  0  0  0  0  0
  -22.8920   -1.5390  -39.4070 C   0  0  0  0  0  3  0  0  0  0  0  0
  -22.3170   -0.3790  -38.9410 C   0  0  0  0  0  3  0  0  0  0  0  0
  -22.5450    0.1270  -37.7000 C   0  0  0  0  0  3  0  0  0  0  0  0
  -17.9510    2.1610  -36.2020 O   0  0  0  0  0  0  0  0  0  0  0  0
  -17.9230    3.1460  -36.1270 H   0  0  0  0  0  0  0  0  0  0  0  0
  1  2  1  0  0  0  0
  1 10  1  0  0  0  0
  2  4  1  0  0  0  0
  3  2  2  0  0  0  0
  4 14  1  6  0  0  0
  4  5  1  0  0  0  0
  5 12  1  6  0  0  0
  5  6  1  0  0  0  0
  6  9  1  6  0  0  0
  6  7  1  0  0  0  0
  7  8  1  0  0  0  0
  8 15  1  0  0  0  0
  9  8  1  0  0  0  0
 10  6  1  0  0  0  0
 11 10  2  0  0  0  0
 13 32  1  1  0  0  0
 13 14  1  0  0  0  0
 13 12  1  0  0  0  0
 15 16  1  0  0  0  0
 16 17  1  0  0  0  0
 17 18  2  0  0  0  0
 18 22  1  0  0  0  0
 19 18  1  0  0  0  0
 20 19  2  0  0  0  0
 21 16  2  0  0  0  0
 21 20  1  0  0  0  0
 22 23  1  0  0  0  0
 24  1  1  0  0  0  0
 25 24  1  0  0  0  0
 26 25  1  0  0  0  0
 27 26  2  0  0  0  0
 28 27  1  0  0  0  0
 29 30  2  0  0  0  0
 29 27  1  0  0  0  0
 30 31  1  0  0  0  0
 31 25  2  0  0  0  0
 32 33  1  0  0  0  0
M  END
>  <Pose>
1

>  <Score>
-9.120

$$$$
