MODEL 1
REMARK VINA RESULT:    -8.826      0.000      0.000
REMARK INTER + INTRA:         -12.789
REMARK INTER:                 -11.921
REMARK INTRA:                  -0.868
REMARK UNBOUND:                -0.868
REMARK  6 active torsions:
REMARK  status: ('A' for Active; 'I' for Inactive)
REMARK    1  A    between atoms: N_4  and  C_7 
REMARK    2  A    between atoms: C_7  and  C_8 
REMARK    3  A    between atoms: C_8  and  C_10 
REMARK       I    between atoms: C_10  and  N_12 
REMARK    4  A    between atoms: N_12  and  N_13 
REMARK       I    between atoms: N_13  and  C_14 
REMARK    5  A    between atoms: C_14  and  C_16 
REMARK    6  A    between atoms: C_18  and  N_26 
ROOT
ATOM      1  N   UNK d   1     -19.978  -0.737 -35.339  0.00  0.00    -0.267 N 
ATOM      2  C   UNK d   1     -20.615   0.444 -35.748  0.00  0.00     0.245 C 
ATOM      3  O   UNK d   1     -20.695   1.401 -34.919  0.00  0.00    -0.271 OA
ATOM      4  H   UNK d   1     -19.902  -1.537 -36.013  0.00  0.00     0.190 HD
ENDROOT
BRANCH   2   5
ATOM      5  C   UNK d   1     -21.206   0.654 -37.090  0.00  0.00     0.045 C 
ATOM      6  C   UNK d   1     -21.867  -0.615 -37.588  0.00  0.00     0.054 C 
ATOM      7  C   UNK d   1     -22.458  -0.411 -38.954  0.00  0.00     0.078 C 
ATOM      8  C   UNK d   1     -23.549   0.652 -38.817  0.00  0.00     0.039 C 
ATOM      9  C   UNK d   1     -21.461   0.082 -39.956  0.00  0.00     0.039 C 
ATOM     10  C   UNK d   1     -22.947   1.925 -38.312  0.00  0.00    -0.010 C 
ATOM     11  C   UNK d   1     -22.288   1.705 -36.971  0.00  0.00     0.024 C 
ATOM     12  C   UNK d   1     -21.916   2.411 -39.305  0.00  0.00     0.009 C 
ATOM     13  C   UNK d   1     -20.847   1.350 -39.419  0.00  0.00    -0.010 C 
ATOM     14  C   UNK d   1     -20.176   1.135 -38.089  0.00  0.00     0.024 C 
BRANCH   7  15
ATOM     15  N   UNK d   1     -23.068  -1.665 -39.351  0.00  0.00    -0.159 N 
ATOM     16  N   UNK d   1     -22.993  -2.322 -40.495  0.00  0.00    -0.046 NA
ATOM     17  N   UNK d   1     -23.684  -3.422 -40.471  0.00  0.00    -0.122 NA
ATOM     18  C   UNK d   1     -24.249  -3.521 -39.281  0.00  0.00     0.282 A 
ATOM     19  N   UNK d   1     -23.863  -2.421 -38.576  0.00  0.00    -0.144 NA
ENDBRANCH   7  15
ENDBRANCH   2   5
BRANCH   1  20
ATOM     20  N   UNK d   1     -19.448  -0.867 -34.075  0.00  0.00    -0.267 N 
ATOM     21  C   UNK d   1     -20.075  -1.543 -33.002  0.00  0.00     0.241 C 
ATOM     22  O   UNK d   1     -21.198  -2.090 -33.147  0.00  0.00    -0.271 OA
ATOM     23  H   UNK d   1     -18.503  -0.433 -33.875  0.00  0.00     0.190 HD
BRANCH  21  24
ATOM     24  C   UNK d   1     -19.449  -1.650 -31.653  0.00  0.00     0.095 C 
ATOM     25  C   UNK d   1     -18.232  -0.798 -31.521  0.00  0.00     0.022 C 
BRANCH  24  26
ATOM     26  C   UNK d   1     -20.481  -1.320 -30.599  0.00  0.00     0.164 C 
BRANCH  26  27
ATOM     27  N   UNK d   1     -20.310  -2.094 -29.393  0.00  0.00    -0.279 N 
ATOM     28  C   UNK d   1     -19.797  -1.687 -28.204  0.00  0.00     0.133 A 
ATOM     29  C   UNK d   1     -19.812  -2.739 -27.309  0.00  0.00     0.047 A 
ATOM     30 Br   UNK d   1     -19.229  -2.787 -25.496  0.00  0.00    -0.048 Br
ATOM     31  C   UNK d   1     -20.364  -3.806 -28.022  0.00  0.00     0.159 A 
ATOM     32  N   UNK d   1     -20.638  -3.350 -29.258  0.00  0.00    -0.184 NA
ENDBRANCH  26  27
ENDBRANCH  24  26
ENDBRANCH  21  24
ENDBRANCH   1  20
TORSDOF 6
ENDMDL
