MODEL 1
REMARK VINA RESULT:    -8.903      0.000      0.000
REMARK INTER + INTRA:         -12.351
REMARK INTER:                 -11.506
REMARK INTRA:                  -0.845
REMARK UNBOUND:                -0.845
REMARK  5 active torsions:
REMARK  status: ('A' for Active; 'I' for Inactive)
REMARK    1  A    between atoms: C_5  and  C_8 
REMARK    2  A    between atoms: C_8  and  C_10 
REMARK    3  A    between atoms: C_10  and  N_11 
REMARK    4  A    between atoms: C_14  and  C_16 
REMARK    5  A    between atoms: C_19  and  O_22 
ROOT
ATOM      1  N   UNK d   1     -19.226  -1.407 -31.103  0.00  0.00    -0.337 N 
ATOM      2  C   UNK d   1     -20.114  -2.237 -30.585  0.00  0.00     0.086 A 
ATOM      3  N   UNK d   1     -20.117  -2.160 -29.227  0.00  0.00    -0.335 N 
ATOM      4  C   UNK d   1     -19.215  -1.271 -28.874  0.00  0.00     0.061 A 
ATOM      5  C   UNK d   1     -18.650  -0.790 -30.074  0.00  0.00     0.123 A 
ATOM      6  C   UNK d   1     -21.010  -2.908 -28.387  0.00  0.00     0.130 C 
ATOM      7  C   UNK d   1     -20.573  -4.370 -28.314  0.00  0.00     0.020 C 
ATOM      8  C   UNK d   1     -20.032  -4.684 -29.713  0.00  0.00     0.002 C 
ATOM      9  C   UNK d   1     -21.150  -4.482 -30.698  0.00  0.00     0.007 C 
ATOM     10  C   UNK d   1     -20.960  -3.141 -31.424  0.00  0.00     0.077 C 
ENDROOT
BRANCH   1  11
ATOM     11  C   UNK d   1     -18.854  -1.134 -32.495  0.00  0.00     0.213 C 
BRANCH  11  12
ATOM     12  C   UNK d   1     -19.561   0.090 -32.929  0.00  0.00     0.177 C 
ATOM     13  O   UNK d   1     -19.107   1.205 -32.507  0.00  0.00    -0.291 OA
BRANCH  12  14
ATOM     14  C   UNK d   1     -20.722   0.089 -33.792  0.00  0.00     0.011 A 
ATOM     15  C   UNK d   1     -21.401   1.295 -34.007  0.00  0.00     0.017 A 
ATOM     16  C   UNK d   1     -22.511   1.357 -34.812  0.00  0.00     0.025 A 
ATOM     17  C   UNK d   1     -23.007   0.242 -35.441  0.00  0.00     0.034 A 
ATOM     18 Cl   UNK d   1     -24.413   0.252 -36.474  0.00  0.00    -0.084 Cl
ATOM     19  C   UNK d   1     -22.329  -0.946 -35.221  0.00  0.00     0.025 A 
ATOM     20  C   UNK d   1     -21.215  -1.019 -34.416  0.00  0.00     0.017 A 
ENDBRANCH  12  14
ENDBRANCH  11  12
ENDBRANCH   1  11
BRANCH   4  21
ATOM     21  C   UNK d   1     -18.820  -0.783 -27.549  0.00  0.00    -0.008 A 
ATOM     22  C   UNK d   1     -18.508  -1.549 -26.473  0.00  0.00     0.016 A 
ATOM     23  C   UNK d   1     -18.207  -1.021 -25.218  0.00  0.00     0.037 A 
ATOM     24  C   UNK d   1     -18.212   0.332 -25.017  0.00  0.00     0.068 A 
ATOM     25  C   UNK d   1     -18.522   1.136 -26.087  0.00  0.00     0.037 A 
ATOM     26  C   UNK d   1     -18.818   0.598 -27.321  0.00  0.00     0.016 A 
BRANCH  24  27
ATOM     27  O   UNK d   1     -17.913   0.891 -23.762  0.00  0.00    -0.356 OA
ATOM     28  C   UNK d   1     -17.659   2.258 -23.583  0.00  0.00     0.210 C 
ENDBRANCH  24  27
ENDBRANCH   4  21
TORSDOF 5
ENDMDL
