MODEL 1
REMARK VINA RESULT:    -9.374      0.000      0.000
REMARK INTER + INTRA:         -12.996
REMARK INTER:                 -11.841
REMARK INTRA:                  -1.156
REMARK UNBOUND:                -1.156
REMARK  5 active torsions:
REMARK  status: ('A' for Active; 'I' for Inactive)
REMARK    1  A    between atoms: C_5  and  C_8 
REMARK    2  A    between atoms: C_8  and  O_33 
REMARK       I    between atoms: N_11  and  C_14 
REMARK    3  A    between atoms: C_14  and  C_16 
REMARK    4  A    between atoms: C_16  and  N_17 
REMARK       I    between atoms: N_17  and  C_18 
REMARK    5  A    between atoms: C_20  and  C_21 
ROOT
ATOM      1  C   UNK d   1     -22.670  -0.971 -35.222  0.00  0.00     0.172 C 
ATOM      2  C   UNK d   1     -23.337  -1.560 -36.346  0.00  0.00     0.042 C 
ENDROOT
BRANCH   1   3
ATOM      3  C   UNK d   1     -23.055   0.446 -34.819  0.00  0.00     0.242 C 
ATOM      4  N   UNK d   1     -22.176   1.523 -35.085  0.00  0.00    -0.350 N 
ATOM      5  C   UNK d   1     -22.210   2.817 -34.485  0.00  0.00     0.129 C 
ATOM      6  C   UNK d   1     -21.326   1.441 -36.289  0.00  0.00     0.129 C 
ATOM      7  C   UNK d   1     -20.873   3.493 -34.311  0.00  0.00     0.062 C 
ATOM      8  C   UNK d   1     -19.701   2.844 -34.917  0.00  0.00     0.088 C 
ATOM      9  C   UNK d   1     -19.970   1.897 -36.061  0.00  0.00     0.062 C 
ATOM     10  O   UNK d   1     -24.137   0.629 -34.266  0.00  0.00    -0.271 OA
BRANCH   8  11
ATOM     11  C   UNK d   1     -18.684   3.789 -35.435  0.00  0.00    -0.024 A 
ATOM     12  C   UNK d   1     -18.325   4.827 -34.588  0.00  0.00     0.012 A 
ATOM     13  C   UNK d   1     -17.352   5.771 -34.948  0.00  0.00     0.024 A 
ATOM     14  C   UNK d   1     -16.725   5.678 -36.169  0.00  0.00     0.034 A 
ATOM     15 Cl   UNK d   1     -15.474   6.856 -36.634  0.00  0.00    -0.084 Cl
ATOM     16  C   UNK d   1     -17.082   4.641 -37.013  0.00  0.00     0.024 A 
ATOM     17  C   UNK d   1     -18.052   3.722 -36.634  0.00  0.00     0.012 A 
ENDBRANCH   8  11
BRANCH   8  18
ATOM     18  O   UNK d   1     -19.064   2.090 -33.886  0.00  0.00    -0.385 OA
ATOM     19  H   UNK d   1     -18.618   2.669 -33.245  0.00  0.00     0.211 HD
ENDBRANCH   8  18
ENDBRANCH   1   3
BRANCH   1  20
ATOM     20  N   UNK d   1     -22.315  -1.728 -34.045  0.00  0.00    -0.356 N 
ATOM     21  C   UNK d   1     -21.057  -1.736 -33.446  0.00  0.00     0.177 C 
ATOM     22  O   UNK d   1     -20.190  -0.963 -34.192  0.00  0.00    -0.172 OA
ATOM     23  C   UNK d   1     -20.420  -2.254 -32.329  0.00  0.00     0.090 C 
ATOM     24  H   UNK d   1     -23.142  -2.338 -33.729  0.00  0.00     0.162 HD
BRANCH  23  25
ATOM     25  C   UNK d   1     -20.479  -2.879 -31.190  0.00  0.00     0.063 A 
ATOM     26  N   UNK d   1     -20.670  -4.335 -31.182  0.00  0.00    -0.297 N 
ATOM     27  N   UNK d   1     -20.653  -5.095 -30.029  0.00  0.00    -0.265 N 
ATOM     28  H   UNK d   1     -20.821  -4.779 -32.128  0.00  0.00     0.187 HD
ATOM     29  C   UNK d   1     -20.453  -4.534 -28.778  0.00  0.00     0.271 A 
ATOM     30  H   UNK d   1     -20.798  -6.140 -30.099  0.00  0.00     0.190 HD
ATOM     31  O   UNK d   1     -20.437  -5.185 -27.704  0.00  0.00    -0.266 OA
ATOM     32  C   UNK d   1     -20.251  -3.068 -28.685  0.00  0.00     0.046 A 
ATOM     33  C   UNK d   1     -20.272  -2.349 -29.856  0.00  0.00     0.008 A 
ATOM     34  C   UNK d   1     -19.977  -2.524 -27.453  0.00  0.00     0.018 A 
ATOM     35  C   UNK d   1     -19.976  -0.988 -29.729  0.00  0.00     0.015 A 
ATOM     36  C   UNK d   1     -19.697  -0.424 -28.492  0.00  0.00     0.001 A 
ATOM     37  C   UNK d   1     -19.697  -1.178 -27.348  0.00  0.00     0.001 A 
ENDBRANCH  23  25
ENDBRANCH   1  20
TORSDOF 5
ENDMDL
