MODEL 1
REMARK VINA RESULT:    -7.743      0.000      0.000
REMARK INTER + INTRA:         -11.803
REMARK INTER:                 -10.460
REMARK INTRA:                  -1.344
REMARK UNBOUND:                -1.344
REMARK  6 active torsions:
REMARK  status: ('A' for Active; 'I' for Inactive)
REMARK    1  A    between atoms: C_3  and  N_15 
REMARK    2  A    between atoms: N_6  and  C_9 
REMARK       I    between atoms: N_18  and  C_21 
REMARK    3  A    between atoms: C_21  and  C_23 
REMARK    4  A    between atoms: C_23  and  C_24 
REMARK    5  A    between atoms: C_24  and  C_25 
REMARK    6  A    between atoms: C_25  and  N_26 
ROOT
ATOM      1  N   UNK d   1     -18.981   2.785 -34.814  0.00  0.00    -0.375 N 
ATOM      2  C   UNK d   1     -18.148   2.637 -36.003  0.00  0.00     0.143 C 
ATOM      3  C   UNK d   1     -18.804   3.224 -37.232  0.00  0.00     0.145 C 
ATOM      4  N   UNK d   1     -19.845   4.122 -36.793  0.00  0.00    -0.349 N 
ATOM      5  C   UNK d   1     -19.496   5.005 -35.695  0.00  0.00     0.145 C 
ATOM      6  C   UNK d   1     -19.417   4.137 -34.440  0.00  0.00     0.143 C 
ATOM      7  C   UNK d   1     -21.135   4.179 -37.360  0.00  0.00     0.219 C 
ATOM      8  O   UNK d   1     -21.964   4.996 -36.904  0.00  0.00    -0.273 OA
ENDROOT
BRANCH   1   9
ATOM      9  C   UNK d   1     -19.377   1.649 -34.083  0.00  0.00     0.077 A 
ATOM     10  C   UNK d   1     -20.692   1.294 -33.870  0.00  0.00     0.131 A 
ATOM     11 Cl   UNK d   1     -21.937   2.349 -34.490  0.00  0.00    -0.076 Cl
ATOM     12  C   UNK d   1     -21.015   0.132 -33.164  0.00  0.00     0.292 A 
ATOM     13  N   UNK d   1     -20.087  -0.691 -32.660  0.00  0.00    -0.197 N 
ATOM     14  O   UNK d   1     -22.236  -0.125 -33.010  0.00  0.00    -0.264 OA
ATOM     15  N   UNK d   1     -18.834  -0.346 -32.867  0.00  0.00    -0.174 NA
ATOM     16  C   UNK d   1     -18.445   0.755 -33.537  0.00  0.00     0.170 A 
BRANCH  13  17
ATOM     17  C   UNK d   1     -20.410  -1.876 -31.939  0.00  0.00     0.062 A 
ATOM     18  C   UNK d   1     -20.400  -1.921 -30.553  0.00  0.00     0.032 A 
ATOM     19  C   UNK d   1     -20.710  -3.061 -29.839  0.00  0.00     0.002 A 
ATOM     20  C   UNK d   1     -21.044  -4.199 -30.543  0.00  0.00     0.000 A 
ATOM     21  C   UNK d   1     -21.064  -4.189 -31.925  0.00  0.00     0.002 A 
ATOM     22  C   UNK d   1     -20.744  -3.018 -32.621  0.00  0.00     0.032 A 
ENDBRANCH  13  17
ENDBRANCH   1   9
BRANCH   7  23
ATOM     23  C   UNK d   1     -21.571   3.313 -38.483  0.00  0.00     0.104 C 
BRANCH  23  24
ATOM     24  C   UNK d   1     -22.460   2.196 -37.986  0.00  0.00     0.029 C 
BRANCH  24  25
ATOM     25  C   UNK d   1     -21.722   0.899 -37.838  0.00  0.00     0.137 C 
BRANCH  25  26
ATOM     26  N   UNK d   1     -22.568  -0.271 -37.927  0.00  0.00    -0.269 N 
ATOM     27  C   UNK d   1     -22.555  -1.235 -38.964  0.00  0.00     0.327 A 
ATOM     28  O   UNK d   1     -21.797  -1.234 -39.992  0.00  0.00    -0.247 OA
ATOM     29  N   UNK d   1     -23.509  -2.249 -38.735  0.00  0.00    -0.329 N 
ATOM     30  C   UNK d   1     -24.202  -1.949 -37.502  0.00  0.00     0.230 A 
ATOM     31  C   UNK d   1     -23.763  -3.399 -39.579  0.00  0.00     0.155 C 
ATOM     32  C   UNK d   1     -23.578  -0.701 -37.008  0.00  0.00     0.245 A 
ATOM     33  O   UNK d   1     -23.879  -0.104 -35.952  0.00  0.00    -0.271 OA
ENDBRANCH  25  26
ENDBRANCH  24  25
ENDBRANCH  23  24
ENDBRANCH   7  23
TORSDOF 6
ENDMDL
