/Users/jonathanwahrer/Desktop/Msc/3_Semester/Drug_Design_Praktikum/waehrer_HTS_screening/HTS_experiment/out/docking_results/vina_output/5l4q/2377_docked.pdbqt
 OpenBabel03212219293D

 33 36  0  0  0  0  0  0  0  0999 V2000
  -18.9810    2.7850  -34.8140 N   0  0  0  0  0  0  0  0  0  0  0  0
  -18.1480    2.6370  -36.0030 C   0  0  0  0  0  2  0  0  0  0  0  0
  -18.8040    3.2240  -37.2320 C   0  0  0  0  0  2  0  0  0  0  0  0
  -19.8450    4.1220  -36.7930 N   0  0  0  0  0  0  0  0  0  0  0  0
  -19.4960    5.0050  -35.6950 C   0  0  0  0  0  2  0  0  0  0  0  0
  -19.4170    4.1370  -34.4400 C   0  0  0  0  0  2  0  0  0  0  0  0
  -21.1350    4.1790  -37.3600 C   0  0  0  0  0  0  0  0  0  0  0  0
  -21.9640    4.9960  -36.9040 O   0  0  0  0  0  0  0  0  0  0  0  0
  -19.3770    1.6490  -34.0830 C   0  0  0  0  0  0  0  0  0  0  0  0
  -20.6920    1.2940  -33.8700 C   0  0  0  0  0  0  0  0  0  0  0  0
  -21.9370    2.3490  -34.4900 Cl  0  0  0  0  0  0  0  0  0  0  0  0
  -21.0150    0.1320  -33.1640 C   0  0  0  0  0  0  0  0  0  0  0  0
  -20.0870   -0.6910  -32.6600 N   0  0  0  0  0  0  0  0  0  0  0  0
  -22.2360   -0.1250  -33.0100 O   0  0  0  0  0  0  0  0  0  0  0  0
  -18.8340   -0.3460  -32.8670 N   0  0  0  0  0  0  0  0  0  0  0  0
  -18.4450    0.7550  -33.5370 C   0  0  0  0  0  3  0  0  0  0  0  0
  -20.4100   -1.8760  -31.9390 C   0  0  0  0  0  0  0  0  0  0  0  0
  -20.4000   -1.9210  -30.5530 C   0  0  0  0  0  3  0  0  0  0  0  0
  -20.7100   -3.0610  -29.8390 C   0  0  0  0  0  3  0  0  0  0  0  0
  -21.0440   -4.1990  -30.5430 C   0  0  0  0  0  3  0  0  0  0  0  0
  -21.0640   -4.1890  -31.9250 C   0  0  0  0  0  3  0  0  0  0  0  0
  -20.7440   -3.0180  -32.6210 C   0  0  0  0  0  3  0  0  0  0  0  0
  -21.5710    3.3130  -38.4830 C   0  0  0  0  0  2  0  0  0  0  0  0
  -22.4600    2.1960  -37.9860 C   0  0  0  0  0  2  0  0  0  0  0  0
  -21.7220    0.8990  -37.8380 C   0  0  0  0  0  2  0  0  0  0  0  0
  -22.5680   -0.2710  -37.9270 N   0  0  0  0  0  0  0  0  0  0  0  0
  -22.5550   -1.2350  -38.9640 C   0  0  0  0  0  0  0  0  0  0  0  0
  -21.7970   -1.2340  -39.9920 O   0  0  0  0  0  0  0  0  0  0  0  0
  -23.5090   -2.2490  -38.7350 N   0  0  0  0  0  0  0  0  0  0  0  0
  -24.2020   -1.9490  -37.5020 C   0  0  0  0  0  2  0  0  0  0  0  0
  -23.7630   -3.3990  -39.5790 C   0  0  0  0  0  1  0  0  0  0  0  0
  -23.5780   -0.7010  -37.0080 C   0  0  0  0  0  0  0  0  0  0  0  0
  -23.8790   -0.1040  -35.9520 O   0  0  0  0  0  0  0  0  0  0  0  0
  1  6  1  0  0  0  0
  1  9  1  0  0  0  0
  2  1  1  0  0  0  0
  3  4  1  0  0  0  0
  3  2  1  0  0  0  0
  4  5  1  0  0  0  0
  5  6  1  0  0  0  0
  7  8  2  0  0  0  0
  7  4  1  0  0  0  0
  9 10  2  0  0  0  0
  9 16  1  0  0  0  0
 10 12  1  0  0  0  0
 11 10  1  0  0  0  0
 12 14  2  0  0  0  0
 12 13  1  0  0  0  0
 13 17  1  0  0  0  0
 15 13  1  0  0  0  0
 16 15  2  0  0  0  0
 17 18  1  0  0  0  0
 18 19  2  0  0  0  0
 20 19  1  0  0  0  0
 21 20  2  0  0  0  0
 22 17  2  0  0  0  0
 22 21  1  0  0  0  0
 23 24  1  0  0  0  0
 23  7  1  0  0  0  0
 24 25  1  0  0  0  0
 26 25  1  0  0  0  0
 26 32  1  0  0  0  0
 27 29  1  0  0  0  0
 27 26  1  0  0  0  0
 28 27  2  0  0  0  0
 29 30  1  0  0  0  0
 30 32  1  0  0  0  0
 31 29  1  0  0  0  0
 32 33  2  0  0  0  0
M  END
>  <Pose>
1

>  <Score>
-7.743

$$$$
