MODEL 1
REMARK VINA RESULT:    -8.909      0.000      0.000
REMARK INTER + INTRA:          -9.877
REMARK INTER:                 -10.471
REMARK INTRA:                   0.594
REMARK UNBOUND:                 0.594
REMARK  3 active torsions:
REMARK  status: ('A' for Active; 'I' for Inactive)
REMARK    1  A    between atoms: C_3  and  N_15 
REMARK    2  A    between atoms: N_6  and  C_9 
REMARK       I    between atoms: N_18  and  C_21 
REMARK    3  A    between atoms: C_21  and  C_23 
ROOT
ATOM      1 Cl   UNK d   1     -20.025  -3.993 -29.772  0.00  0.00    -0.076 Cl
ATOM      2  C   UNK d   1     -19.809  -2.246 -29.720  0.00  0.00     0.131 A 
ATOM      3  C   UNK d   1     -20.039  -1.539 -30.876  0.00  0.00     0.077 A 
ATOM      4  C   UNK d   1     -19.859  -0.167 -30.801  0.00  0.00     0.170 A 
ATOM      5  N   UNK d   1     -19.481   0.402 -29.643  0.00  0.00    -0.174 NA
ATOM      6  N   UNK d   1     -19.257  -0.267 -28.524  0.00  0.00    -0.197 N 
ATOM      7  C   UNK d   1     -19.422  -1.601 -28.562  0.00  0.00     0.292 A 
ATOM      8  O   UNK d   1     -19.227  -2.306 -27.531  0.00  0.00    -0.264 OA
ENDROOT
BRANCH   3   9
ATOM      9  N   UNK d   1     -20.433  -2.218 -32.049  0.00  0.00    -0.375 N 
ATOM     10  C   UNK d   1     -19.630  -2.175 -33.265  0.00  0.00     0.143 C 
ATOM     11  C   UNK d   1     -20.479  -1.375 -34.272  0.00  0.00     0.145 C 
ATOM     12  N   UNK d   1     -21.791  -1.934 -34.370  0.00  0.00    -0.347 N 
ATOM     13  C   UNK d   1     -22.051  -3.174 -33.609  0.00  0.00     0.145 C 
ATOM     14  C   UNK d   1     -22.832  -1.365 -35.149  0.00  0.00     0.248 C 
ATOM     15  C   UNK d   1     -21.646  -3.006 -32.158  0.00  0.00     0.143 C 
ATOM     16  O   UNK d   1     -23.981  -1.897 -35.205  0.00  0.00    -0.270 OA
BRANCH  14  17
ATOM     17  C   UNK d   1     -22.657  -0.134 -35.939  0.00  0.00     0.213 C 
ATOM     18  O   UNK d   1     -22.098  -0.402 -37.151  0.00  0.00    -0.376 OA
ATOM     19  C   UNK d   1     -22.585   0.518 -38.070  0.00  0.00     0.168 C 
ATOM     20  C   UNK d   1     -24.058   0.561 -37.691  0.00  0.00     0.029 C 
ATOM     21  C   UNK d   1     -23.965   0.585 -36.180  0.00  0.00     0.043 C 
ENDBRANCH  14  17
ENDBRANCH   3   9
BRANCH   6  22
ATOM     22  C   UNK d   1     -18.855   0.399 -27.318  0.00  0.00     0.062 A 
ATOM     23  C   UNK d   1     -18.829   1.777 -27.260  0.00  0.00     0.032 A 
ATOM     24  C   UNK d   1     -18.440   2.439 -26.092  0.00  0.00     0.002 A 
ATOM     25  C   UNK d   1     -18.075   1.724 -24.980  0.00  0.00     0.000 A 
ATOM     26  C   UNK d   1     -18.095   0.353 -25.023  0.00  0.00     0.002 A 
ATOM     27  C   UNK d   1     -18.480  -0.282 -26.178  0.00  0.00     0.032 A 
ENDBRANCH   6  22
TORSDOF 3
ENDMDL
