/Users/jonathanwahrer/Desktop/Msc/3_Semester/Drug_Design_Praktikum/waehrer_HTS_screening/HTS_experiment/out/docking_results/vina_output/5l4q/2386_docked.pdbqt
 OpenBabel03212219303D

 30 33  0  0  0  0  0  0  0  0999 V2000
  -25.9710   -4.5110  -38.6220 Cl  0  0  0  0  0  0  0  0  0  0  0  0
  -24.7520   -3.2450  -38.7240 C   0  0  0  0  0  0  0  0  0  0  0  0
  -24.8550   -2.1900  -37.8200 C   0  0  0  0  0  3  0  0  0  0  0  0
  -23.9090   -1.1910  -37.8880 C   0  0  0  0  0  0  0  0  0  0  0  0
  -22.8930   -1.2510  -38.8320 C   0  0  0  0  0  0  0  0  0  0  0  0
  -22.7980   -2.3060  -39.7310 C   0  0  0  0  0  3  0  0  0  0  0  0
  -23.7490   -3.3090  -39.6630 C   0  0  0  0  0  3  0  0  0  0  0  0
  -21.9070   -0.2870  -38.9630 O   0  0  0  0  0  0  0  0  0  0  0  0
  -21.9410    1.0810  -38.6640 C   0  0  0  0  0  0  0  0  0  0  0  0
  -22.2170    1.4350  -37.2490 C   0  0  0  0  0  2  0  0  0  0  0  0
  -22.9090    0.4620  -36.4660 N   0  0  0  0  0  0  0  0  0  0  0  0
  -24.1820   -0.1610  -36.8500 C   0  0  0  0  0  2  0  0  0  0  0  0
  -22.3510    0.0600  -35.2210 C   0  0  0  0  0  0  0  0  0  0  0  0
  -21.2730    0.5990  -34.8830 O   0  0  0  0  0  0  0  0  0  0  0  0
  -20.5850    1.6890  -39.0690 C   0  0  0  0  0  2  0  0  0  0  0  0
  -20.3230    1.2380  -40.4810 C   0  0  0  0  0  2  0  0  0  0  0  0
  -21.3950    0.5590  -41.0320 O   0  0  0  0  0  0  0  0  0  0  0  0
  -22.5630    1.3000  -41.0150 C   0  0  0  0  0  2  0  0  0  0  0  0
  -22.9310    1.7620  -39.6220 C   0  0  0  0  0  2  0  0  0  0  0  0
  -22.9880   -0.9260  -34.3620 C   0  0  0  0  0  2  0  0  0  0  0  0
  -22.3870   -2.2700  -34.2750 C   0  0  0  0  0  2  0  0  0  0  0  0
  -21.0540   -2.4400  -33.6750 C   0  0  0  0  0  2  0  0  0  0  0  0
  -20.9180   -2.7090  -32.2920 N   0  0  0  0  0  0  0  0  0  0  0  0
  -21.0380   -3.9830  -31.6840 C   0  0  0  0  0  0  0  0  0  0  0  0
  -21.2730   -5.1000  -32.2320 O   0  0  0  0  0  0  0  0  0  0  0  0
  -20.8400   -3.8010  -30.2930 N   0  0  0  0  0  0  0  0  0  0  0  0
  -20.2310   -2.4910  -30.0740 C   0  0  0  0  0  2  0  0  0  0  0  0
  -21.0740   -4.4600  -29.5250 H   0  0  0  0  0  0  0  0  0  0  0  0
  -20.6510   -1.7540  -31.2840 C   0  0  0  0  0  0  0  0  0  0  0  0
  -20.7470   -0.4770  -31.3740 O   0  0  0  0  0  0  0  0  0  0  0  0
  2  1  1  0  0  0  0
  2  3  1  0  0  0  0
  4  3  2  0  0  0  0
  4 12  1  0  0  0  0
  5  4  1  0  0  0  0
  6  7  1  0  0  0  0
  6  5  2  0  0  0  0
  7  2  2  0  0  0  0
  8  5  1  0  0  0  0
  8  9  1  0  0  0  0
  9 10  1  0  0  0  0
 10 11  1  0  0  0  0
 11 13  1  0  0  0  0
 12 11  1  0  0  0  0
 13 14  2  0  0  0  0
 13 20  1  0  0  0  0
 15  9  1  0  0  0  0
 16 15  1  0  0  0  0
 17 18  1  0  0  0  0
 17 16  1  0  0  0  0
 18 19  1  0  0  0  0
 19  9  1  0  0  0  0
 20 21  1  0  0  0  0
 21 22  1  0  0  0  0
 22 23  1  0  0  0  0
 23 24  1  0  0  0  0
 23 29  1  0  0  0  0
 24 26  1  0  0  0  0
 25 24  2  0  0  0  0
 26 27  1  0  0  0  0
 26 28  1  0  0  0  0
 29 27  1  0  0  0  0
 30 29  2  0  0  0  0
M  END
>  <Pose>
1

>  <Score>
-8.692

$$$$
