MODEL 1
REMARK VINA RESULT:    -8.692      0.000      0.000
REMARK INTER + INTRA:         -11.361
REMARK INTER:                 -10.725
REMARK INTRA:                  -0.636
REMARK UNBOUND:                -0.636
REMARK  4 active torsions:
REMARK  status: ('A' for Active; 'I' for Inactive)
REMARK       I    between atoms: N_11  and  C_13 
REMARK    1  A    between atoms: C_13  and  C_15 
REMARK    2  A    between atoms: C_15  and  C_16 
REMARK    3  A    between atoms: C_16  and  C_17 
REMARK    4  A    between atoms: C_17  and  N_18 
ROOT
ATOM      1 Cl   UNK d   1     -25.971  -4.511 -38.622  0.00  0.00    -0.084 Cl
ATOM      2  C   UNK d   1     -24.752  -3.245 -38.724  0.00  0.00     0.034 A 
ATOM      3  C   UNK d   1     -24.855  -2.190 -37.820  0.00  0.00     0.035 A 
ATOM      4  C   UNK d   1     -23.909  -1.191 -37.888  0.00  0.00    -0.005 A 
ATOM      5  C   UNK d   1     -22.893  -1.251 -38.832  0.00  0.00     0.078 A 
ATOM      6  C   UNK d   1     -22.798  -2.306 -39.731  0.00  0.00     0.039 A 
ATOM      7  C   UNK d   1     -23.749  -3.309 -39.663  0.00  0.00     0.026 A 
ATOM      8  O   UNK d   1     -21.907  -0.287 -38.963  0.00  0.00    -0.338 OA
ATOM      9  C   UNK d   1     -21.941   1.081 -38.664  0.00  0.00     0.088 C 
ATOM     10  C   UNK d   1     -22.217   1.435 -37.249  0.00  0.00     0.164 C 
ATOM     11  N   UNK d   1     -22.909   0.462 -36.466  0.00  0.00    -0.345 N 
ATOM     12  C   UNK d   1     -24.182  -0.161 -36.850  0.00  0.00     0.167 C 
ATOM     13  C   UNK d   1     -22.351   0.060 -35.221  0.00  0.00     0.220 C 
ATOM     14  O   UNK d   1     -21.273   0.599 -34.883  0.00  0.00    -0.273 OA
ATOM     15  C   UNK d   1     -20.585   1.689 -39.069  0.00  0.00     0.066 C 
ATOM     16  C   UNK d   1     -20.323   1.238 -40.481  0.00  0.00     0.170 C 
ATOM     17  O   UNK d   1     -21.395   0.559 -41.032  0.00  0.00    -0.391 OA
ATOM     18  C   UNK d   1     -22.563   1.300 -41.015  0.00  0.00     0.170 C 
ATOM     19  C   UNK d   1     -22.931   1.762 -39.622  0.00  0.00     0.066 C 
ENDROOT
BRANCH  13  20
ATOM     20  C   UNK d   1     -22.988  -0.926 -34.362  0.00  0.00     0.104 C 
BRANCH  20  21
ATOM     21  C   UNK d   1     -22.387  -2.270 -34.275  0.00  0.00     0.029 C 
BRANCH  21  22
ATOM     22  C   UNK d   1     -21.054  -2.440 -33.675  0.00  0.00     0.137 C 
BRANCH  22  23
ATOM     23  N   UNK d   1     -20.918  -2.709 -32.292  0.00  0.00    -0.269 N 
ATOM     24  C   UNK d   1     -21.038  -3.983 -31.684  0.00  0.00     0.325 C 
ATOM     25  O   UNK d   1     -21.273  -5.100 -32.232  0.00  0.00    -0.247 OA
ATOM     26  N   UNK d   1     -20.840  -3.801 -30.293  0.00  0.00    -0.334 N 
ATOM     27  C   UNK d   1     -20.231  -2.491 -30.074  0.00  0.00     0.227 C 
ATOM     28  H   UNK d   1     -21.074  -4.460 -29.525  0.00  0.00     0.164 HD
ATOM     29  C   UNK d   1     -20.651  -1.754 -31.284  0.00  0.00     0.245 C 
ATOM     30  O   UNK d   1     -20.747  -0.477 -31.374  0.00  0.00    -0.271 OA
ENDBRANCH  22  23
ENDBRANCH  21  22
ENDBRANCH  20  21
ENDBRANCH  13  20
TORSDOF 4
ENDMDL
