/Users/jonathanwahrer/Desktop/Msc/3_Semester/Drug_Design_Praktikum/waehrer_HTS_screening/HTS_experiment/out/docking_results/vina_output/5l4q/2403_docked.pdbqt
 OpenBabel03212219303D

 26 29  0  0  0  0  0  0  0  0999 V2000
  -20.0740   -1.3550  -30.3770 N   0  0  0  0  0  0  0  0  0  0  0  0
  -19.7890   -1.7710  -29.1340 C   0  0  0  0  0  0  0  0  0  0  0  0
  -20.1460   -3.1040  -28.9630 C   0  0  0  0  0  0  0  0  0  0  0  0
  -20.6620   -3.4850  -30.1560 N   0  0  0  0  0  0  0  0  0  0  0  0
  -20.6220   -2.4490  -30.9970 C   0  0  0  0  0  3  0  0  0  0  0  0
  -19.9750   -3.7790  -27.8080 N   0  0  0  0  0  0  0  0  0  0  0  0
  -19.4280   -3.0900  -26.7900 C   0  0  0  0  0  0  0  0  0  0  0  0
  -19.2600   -3.7050  -25.7020 O   0  0  0  0  0  0  0  0  0  0  0  0
  -19.0660   -1.8020  -26.9020 N   0  0  0  0  0  0  0  0  0  0  0  0
  -19.2360   -1.1250  -28.0560 C   0  0  0  0  0  0  0  0  0  0  0  0
  -18.9090    0.0720  -28.1790 O   0  0  0  0  0  0  0  0  0  0  0  0
  -18.4760   -1.0620  -25.8000 C   0  0  0  0  0  1  0  0  0  0  0  0
  -20.3680   -5.1710  -27.6950 C   0  0  0  0  0  1  0  0  0  0  0  0
  -19.8600   -0.0680  -31.0070 C   0  0  0  0  0  2  0  0  0  0  0  0
  -20.3880   -0.0270  -32.4120 C   0  0  0  0  0  0  0  0  0  0  0  0
  -21.7130    0.1030  -32.6030 N   0  0  0  0  0  0  0  0  0  0  0  0
  -22.2420    0.1530  -33.8610 C   0  0  0  0  0  0  0  0  0  0  0  0
  -21.4520    0.0740  -34.9430 N   0  0  0  0  0  0  0  0  0  0  0  0
  -23.6130    0.2880  -34.0020 C   0  0  0  0  0  3  0  0  0  0  0  0
  -21.9740    0.1240  -36.1860 C   0  0  0  0  0  3  0  0  0  0  0  0
  -20.1000   -0.0580  -34.8150 C   0  0  0  0  0  0  0  0  0  0  0  0
  -23.3280    0.2570  -36.3350 C   0  0  0  0  0  0  0  0  0  0  0  0
  -24.0350    0.3250  -38.1030 Br  0  0  0  0  0  0  0  0  0  0  0  0
  -24.1750    0.3410  -35.2530 C   0  0  0  0  0  3  0  0  0  0  0  0
  -19.5990   -0.1060  -33.5330 C   0  0  0  0  0  3  0  0  0  0  0  0
  -19.4070   -0.1270  -35.8410 O   0  0  0  0  0  0  0  0  0  0  0  0
  1  2  1  0  0  0  0
  2  3  2  0  0  0  0
  2 10  1  0  0  0  0
  3  6  1  0  0  0  0
  4  3  1  0  0  0  0
  5  1  1  0  0  0  0
  5  4  2  0  0  0  0
  6 13  1  0  0  0  0
  6  7  1  0  0  0  0
  7  8  2  0  0  0  0
  9  7  1  0  0  0  0
  9 12  1  0  0  0  0
 10  9  1  0  0  0  0
 11 10  2  0  0  0  0
 14  1  1  0  0  0  0
 15 14  1  0  0  0  0
 16 15  1  0  0  0  0
 17 16  2  0  0  0  0
 18 21  1  0  0  0  0
 18 17  1  0  0  0  0
 19 17  1  0  0  0  0
 20 18  1  0  0  0  0
 21 25  1  0  0  0  0
 22 20  2  0  0  0  0
 22 24  1  0  0  0  0
 23 22  1  0  0  0  0
 24 19  2  0  0  0  0
 25 15  2  0  0  0  0
 26 21  2  0  0  0  0
M  END
>  <Pose>
1

>  <Score>
-8.736

$$$$
