MODEL 1
REMARK VINA RESULT:    -8.736      0.000      0.000
REMARK INTER + INTRA:          -9.936
REMARK INTER:                  -9.758
REMARK INTRA:                  -0.179
REMARK UNBOUND:                -0.179
REMARK  2 active torsions:
REMARK  status: ('A' for Active; 'I' for Inactive)
REMARK    1  A    between atoms: C_7  and  C_11 
REMARK    2  A    between atoms: C_11  and  N_12 
ROOT
ATOM      1  N   UNK d   1     -20.074  -1.355 -30.377  0.00  0.00    -0.328 N 
ATOM      2  C   UNK d   1     -19.789  -1.771 -29.134  0.00  0.00     0.151 A 
ATOM      3  C   UNK d   1     -20.146  -3.104 -28.963  0.00  0.00     0.167 A 
ATOM      4  N   UNK d   1     -20.662  -3.485 -30.156  0.00  0.00    -0.223 NA
ATOM      5  C   UNK d   1     -20.622  -2.449 -30.997  0.00  0.00     0.213 A 
ATOM      6  N   UNK d   1     -19.975  -3.779 -27.808  0.00  0.00    -0.286 N 
ATOM      7  C   UNK d   1     -19.428  -3.090 -26.790  0.00  0.00     0.332 A 
ATOM      8  O   UNK d   1     -19.260  -3.705 -25.702  0.00  0.00    -0.246 OA
ATOM      9  N   UNK d   1     -19.066  -1.802 -26.902  0.00  0.00    -0.269 N 
ATOM     10  C   UNK d   1     -19.236  -1.125 -28.056  0.00  0.00     0.282 A 
ATOM     11  O   UNK d   1     -18.909   0.072 -28.179  0.00  0.00    -0.265 OA
ATOM     12  C   UNK d   1     -18.476  -1.062 -25.800  0.00  0.00     0.164 C 
ATOM     13  C   UNK d   1     -20.368  -5.171 -27.695  0.00  0.00     0.163 C 
ENDROOT
BRANCH   1  14
ATOM     14  C   UNK d   1     -19.860  -0.068 -31.007  0.00  0.00     0.189 C 
BRANCH  14  15
ATOM     15  C   UNK d   1     -20.388  -0.027 -32.412  0.00  0.00     0.060 A 
ATOM     16  N   UNK d   1     -21.713   0.103 -32.603  0.00  0.00    -0.233 NA
ATOM     17  C   UNK d   1     -22.242   0.153 -33.861  0.00  0.00     0.137 A 
ATOM     18  N   UNK d   1     -21.452   0.074 -34.943  0.00  0.00    -0.272 N 
ATOM     19  C   UNK d   1     -23.613   0.288 -34.002  0.00  0.00     0.052 A 
ATOM     20  C   UNK d   1     -21.974   0.124 -36.186  0.00  0.00     0.121 A 
ATOM     21  C   UNK d   1     -20.100  -0.058 -34.815  0.00  0.00     0.255 A 
ATOM     22  C   UNK d   1     -23.328   0.257 -36.335  0.00  0.00     0.027 A 
ATOM     23 Br   UNK d   1     -24.035   0.325 -38.103  0.00  0.00    -0.050 Br
ATOM     24  C   UNK d   1     -24.175   0.341 -35.253  0.00  0.00     0.024 A 
ATOM     25  C   UNK d   1     -19.599  -0.106 -33.533  0.00  0.00     0.103 A 
ATOM     26  O   UNK d   1     -19.407  -0.127 -35.841  0.00  0.00    -0.268 OA
ENDBRANCH  14  15
ENDBRANCH   1  14
TORSDOF 2
ENDMDL
