MODEL 1
REMARK VINA RESULT:   -10.388      0.000      0.000
REMARK INTER + INTRA:         -13.519
REMARK INTER:                 -12.817
REMARK INTRA:                  -0.702
REMARK UNBOUND:                -0.702
REMARK  4 active torsions:
REMARK  status: ('A' for Active; 'I' for Inactive)
REMARK    1  A    between atoms: S_1  and  N_4 
REMARK    2  A    between atoms: S_1  and  C_26 
REMARK       I    between atoms: N_7  and  C_10 
REMARK    3  A    between atoms: C_10  and  C_12 
REMARK    4  A    between atoms: C_12  and  C_13 
ROOT
ATOM      1  N   UNK d   1     -21.996  -1.655 -34.191  0.00  0.00    -0.304 N 
ATOM      2  C   UNK d   1     -22.452  -2.922 -33.840  0.00  0.00     0.155 C 
ATOM      3  C   UNK d   1     -21.427  -3.579 -32.905  0.00  0.00     0.146 C 
ATOM      4  N   UNK d   1     -20.923  -2.583 -31.958  0.00  0.00    -0.349 N 
ATOM      5  C   UNK d   1     -20.305  -1.407 -32.537  0.00  0.00     0.146 C 
ATOM      6  C   UNK d   1     -20.615  -1.454 -34.041  0.00  0.00     0.155 C 
ATOM      7  C   UNK d   1     -21.069  -2.785 -30.557  0.00  0.00     0.222 C 
ATOM      8  O   UNK d   1     -21.641  -3.834 -30.181  0.00  0.00    -0.273 OA
ENDROOT
BRANCH   7   9
ATOM      9  C   UNK d   1     -20.567  -1.796 -29.602  0.00  0.00     0.138 C 
BRANCH   9  10
ATOM     10  C   UNK d   1     -19.123  -2.018 -29.179  0.00  0.00     0.186 C 
ATOM     11  N   UNK d   1     -18.988  -2.523 -27.838  0.00  0.00    -0.343 N 
ATOM     12  C   UNK d   1     -18.488  -1.943 -26.642  0.00  0.00     0.254 C 
ATOM     13  H   UNK d   1     -19.314  -3.525 -27.660  0.00  0.00     0.163 HD
ATOM     14  O   UNK d   1     -18.101  -2.679 -25.696  0.00  0.00    -0.268 OA
ATOM     15  C   UNK d   1     -18.352  -0.501 -26.341  0.00  0.00     0.058 A 
ATOM     16  C   UNK d   1     -18.216   0.539 -27.267  0.00  0.00     0.050 A 
ATOM     17  C   UNK d   1     -18.378  -0.203 -25.002  0.00  0.00     0.019 A 
ATOM     18  C   UNK d   1     -18.109   1.826 -26.822  0.00  0.00     0.030 A 
ATOM     19  N   UNK d   1     -18.176   0.397 -28.679  0.00  0.00    -0.324 N 
ATOM     20  C   UNK d   1     -18.132   2.159 -25.466  0.00  0.00     0.002 A 
ATOM     21  C   UNK d   1     -18.270   1.100 -24.567  0.00  0.00     0.001 A 
ATOM     22  C   UNK d   1     -18.339  -0.795 -29.454  0.00  0.00     0.245 C 
ATOM     23  H   UNK d   1     -18.013   1.261 -29.194  0.00  0.00     0.169 HD
ATOM     24  O   UNK d   1     -17.684  -0.752 -30.554  0.00  0.00    -0.271 OA
ENDBRANCH   9  10
ENDBRANCH   7   9
BRANCH   1  25
ATOM     25  S   UNK d   1     -22.938  -0.574 -35.022  0.00  0.00     0.260 S 
ATOM     26  O   UNK d   1     -24.389  -0.788 -34.633  0.00  0.00    -0.200 OA
ATOM     27  O   UNK d   1     -22.644   0.877 -34.702  0.00  0.00    -0.200 OA
BRANCH  25  28
ATOM     28  C   UNK d   1     -22.863  -0.758 -36.778  0.00  0.00     0.079 A 
ATOM     29  C   UNK d   1     -23.505  -1.790 -37.422  0.00  0.00     0.027 A 
ATOM     30  C   UNK d   1     -23.413  -1.895 -38.793  0.00  0.00     0.025 A 
ATOM     31  C   UNK d   1     -22.700  -1.006 -39.575  0.00  0.00     0.034 A 
ATOM     32  C   UNK d   1     -22.053   0.036 -38.922  0.00  0.00     0.025 A 
ATOM     33 Cl   UNK d   1     -22.581  -1.129 -41.299  0.00  0.00    -0.084 Cl
ATOM     34  C   UNK d   1     -22.147   0.136 -37.552  0.00  0.00     0.027 A 
ENDBRANCH  25  28
ENDBRANCH   1  25
TORSDOF 4
ENDMDL
