/Users/jonathanwahrer/Desktop/Msc/3_Semester/Drug_Design_Praktikum/waehrer_HTS_screening/HTS_experiment/out/docking_results/vina_output/5l4q/2416_docked.pdbqt
 OpenBabel03212219313D

 34 37  0  0  1  0  0  0  0  0999 V2000
  -21.9960   -1.6550  -34.1910 N   0  0  0  0  0  0  0  0  0  0  0  0
  -22.4520   -2.9220  -33.8400 C   0  0  0  0  0  2  0  0  0  0  0  0
  -21.4270   -3.5790  -32.9050 C   0  0  0  0  0  2  0  0  0  0  0  0
  -20.9230   -2.5830  -31.9580 N   0  0  0  0  0  0  0  0  0  0  0  0
  -20.3050   -1.4070  -32.5370 C   0  0  0  0  0  2  0  0  0  0  0  0
  -20.6150   -1.4540  -34.0410 C   0  0  0  0  0  2  0  0  0  0  0  0
  -21.0690   -2.7850  -30.5570 C   0  0  0  0  0  0  0  0  0  0  0  0
  -21.6410   -3.8340  -30.1810 O   0  0  0  0  0  0  0  0  0  0  0  0
  -20.5670   -1.7960  -29.6020 C   0  0  0  0  0  2  0  0  0  0  0  0
  -19.1230   -2.0180  -29.1790 C   0  0  2  0  0  3  0  0  0  0  0  0
  -18.9880   -2.5230  -27.8380 N   0  0  0  0  0  0  0  0  0  0  0  0
  -18.4880   -1.9430  -26.6420 C   0  0  0  0  0  0  0  0  0  0  0  0
  -19.3140   -3.5250  -27.6600 H   0  0  0  0  0  0  0  0  0  0  0  0
  -18.1010   -2.6790  -25.6960 O   0  0  0  0  0  0  0  0  0  0  0  0
  -18.3520   -0.5010  -26.3410 C   0  0  0  0  0  0  0  0  0  0  0  0
  -18.2160    0.5390  -27.2670 C   0  0  0  0  0  0  0  0  0  0  0  0
  -18.3780   -0.2030  -25.0020 C   0  0  0  0  0  3  0  0  0  0  0  0
  -18.1090    1.8260  -26.8220 C   0  0  0  0  0  3  0  0  0  0  0  0
  -18.1760    0.3970  -28.6790 N   0  0  0  0  0  0  0  0  0  0  0  0
  -18.1320    2.1590  -25.4660 C   0  0  0  0  0  3  0  0  0  0  0  0
  -18.2700    1.1000  -24.5670 C   0  0  0  0  0  3  0  0  0  0  0  0
  -18.3390   -0.7950  -29.4540 C   0  0  0  0  0  0  0  0  0  0  0  0
  -18.0130    1.2610  -29.1940 H   0  0  0  0  0  0  0  0  0  0  0  0
  -17.6840   -0.7520  -30.5540 O   0  0  0  0  0  0  0  0  0  0  0  0
  -22.9380   -0.5740  -35.0220 S   0  0  0  0  0  0  0  0  0  0  0  0
  -24.3890   -0.7880  -34.6330 O   0  0  0  0  0  0  0  0  0  0  0  0
  -22.6440    0.8770  -34.7020 O   0  0  0  0  0  0  0  0  0  0  0  0
  -22.8630   -0.7580  -36.7780 C   0  0  0  0  0  0  0  0  0  0  0  0
  -23.5050   -1.7900  -37.4220 C   0  0  0  0  0  3  0  0  0  0  0  0
  -23.4130   -1.8950  -38.7930 C   0  0  0  0  0  3  0  0  0  0  0  0
  -22.7000   -1.0060  -39.5750 C   0  0  0  0  0  0  0  0  0  0  0  0
  -22.0530    0.0360  -38.9220 C   0  0  0  0  0  3  0  0  0  0  0  0
  -22.5810   -1.1290  -41.2990 Cl  0  0  0  0  0  0  0  0  0  0  0  0
  -22.1470    0.1360  -37.5520 C   0  0  0  0  0  3  0  0  0  0  0  0
  1  6  1  0  0  0  0
  1  2  1  0  0  0  0
  2  3  1  0  0  0  0
  3  4  1  0  0  0  0
  4  7  1  0  0  0  0
  5  4  1  0  0  0  0
  6  5  1  0  0  0  0
  7  8  2  0  0  0  0
  7  9  1  0  0  0  0
 10  9  1  1  0  0  0
 10 11  1  0  0  0  0
 11 13  1  0  0  0  0
 11 12  1  0  0  0  0
 12 15  1  0  0  0  0
 12 14  2  0  0  0  0
 15 17  1  0  0  0  0
 16 18  1  0  0  0  0
 16 15  2  0  0  0  0
 17 21  2  0  0  0  0
 18 20  2  0  0  0  0
 19 16  1  0  0  0  0
 20 21  1  0  0  0  0
 22 10  1  0  0  0  0
 22 19  1  0  0  0  0
 23 19  1  0  0  0  0
 24 22  2  0  0  0  0
 25 27  2  0  0  0  0
 25 26  2  0  0  0  0
 25  1  1  0  0  0  0
 28 25  1  0  0  0  0
 29 28  1  0  0  0  0
 30 29  2  0  0  0  0
 31 32  2  0  0  0  0
 31 30  1  0  0  0  0
 32 34  1  0  0  0  0
 33 31  1  0  0  0  0
 34 28  2  0  0  0  0
M  END
>  <Pose>
1

>  <Score>
-10.388

$$$$
