MODEL 1
REMARK VINA RESULT:    -7.991      0.000      0.000
REMARK INTER + INTRA:         -11.519
REMARK INTER:                 -10.561
REMARK INTRA:                  -0.958
REMARK UNBOUND:                -0.958
REMARK  6 active torsions:
REMARK  status: ('A' for Active; 'I' for Inactive)
REMARK    1  A    between atoms: C_7  and  C_8 
REMARK    2  A    between atoms: C_8  and  N_9 
REMARK    3  A    between atoms: C_11  and  C_16 
REMARK    4  A    between atoms: C_12  and  C_14 
REMARK    5  A    between atoms: C_14  and  O_15 
REMARK    6  A    between atoms: C_16  and  N_17 
ROOT
ATOM      1  N   UNK d   1     -19.934   0.118 -30.803  0.00  0.00     0.095 N 
ATOM      2  C   UNK d   1     -20.782  -0.157 -31.986  0.00  0.00     0.279 C 
ATOM      3  C   UNK d   1     -20.270  -1.441 -32.457  0.00  0.00     0.050 C 
ATOM      4  C   UNK d   1     -18.781  -1.141 -32.529  0.00  0.00     0.045 C 
ATOM      5  C   UNK d   1     -18.689  -0.448 -31.104  0.00  0.00     0.280 C 
ENDROOT
BRANCH   1   6
ATOM      6  C   UNK d   1     -20.681  -0.391 -29.643  0.00  0.00     0.334 C 
BRANCH   6   7
ATOM      7  C   UNK d   1     -19.926  -0.652 -28.443  0.00  0.00     0.097 A 
ATOM      8  C   UNK d   1     -19.766  -1.806 -27.710  0.00  0.00     0.042 A 
ATOM      9  C   UNK d   1     -20.097  -3.109 -27.996  0.00  0.00     0.048 A 
ATOM     10  C   UNK d   1     -19.073  -1.570 -26.544  0.00  0.00     0.066 A 
ATOM     11 Cl   UNK d   1     -21.091  -3.403 -29.419  0.00  0.00    -0.083 Cl
ATOM     12  C   UNK d   1     -19.746  -4.146 -27.175  0.00  0.00     0.025 A 
ATOM     13  C   UNK d   1     -19.044  -3.885 -26.003  0.00  0.00     0.004 A 
ATOM     14  C   UNK d   1     -18.704  -2.565 -25.692  0.00  0.00     0.032 A 
ATOM     15  N   UNK d   1     -18.819  -0.243 -26.554  0.00  0.00    -0.273 N 
ATOM     16  N   UNK d   1     -19.300   0.288 -27.646  0.00  0.00    -0.174 NA
ATOM     17  C   UNK d   1     -18.203   0.487 -25.432  0.00  0.00     0.180 C 
ENDBRANCH   6   7
ENDBRANCH   1   6
BRANCH   3  18
ATOM     18  C   UNK d   1     -20.778  -1.900 -33.801  0.00  0.00     0.279 C 
BRANCH  18  19
ATOM     19  N   UNK d   1     -21.829  -1.023 -34.211  0.00  0.00     0.093 N 
ATOM     20  C   UNK d   1     -21.582  -0.403 -35.495  0.00  0.00     0.298 C 
ATOM     21  C   UNK d   1     -22.651  -0.692 -36.523  0.00  0.00     0.198 C 
ATOM     22  O   UNK d   1     -23.927  -0.392 -36.104  0.00  0.00    -0.388 OA
ATOM     23  C   UNK d   1     -24.125  -0.647 -34.750  0.00  0.00     0.198 C 
ATOM     24  C   UNK d   1     -23.124  -1.659 -34.284  0.00  0.00     0.298 C 
ENDBRANCH  18  19
ENDBRANCH   3  18
BRANCH   4  25
ATOM     25  C   UNK d   1     -18.491  -0.021 -33.485  0.00  0.00     0.170 C 
BRANCH  25  26
ATOM     26  O   UNK d   1     -17.398   0.740 -32.993  0.00  0.00    -0.400 OA
ATOM     27  H   UNK d   1     -16.926   0.124 -32.311  0.00  0.00     0.209 HD
ENDBRANCH  25  26
ENDBRANCH   4  25
TORSDOF 6
ENDMDL
