MODEL 1
REMARK VINA RESULT:    -8.406      0.000      0.000
REMARK INTER + INTRA:         -13.321
REMARK INTER:                 -11.354
REMARK INTRA:                  -1.966
REMARK UNBOUND:                -1.966
REMARK  6 active torsions:
REMARK  status: ('A' for Active; 'I' for Inactive)
REMARK    1  A    between atoms: C_5  and  C_8 
REMARK    2  A    between atoms: N_15  and  C_16 
REMARK    3  A    between atoms: C_16  and  C_17 
REMARK    4  A    between atoms: C_17  and  C_18 
REMARK    5  A    between atoms: C_18  and  N_19 
REMARK    6  A    between atoms: N_19  and  C_20 
ROOT
ATOM      1  C   UNK d   1     -20.428  -0.090 -33.011  0.00  0.00     0.078 A 
ATOM      2  C   UNK d   1     -19.986   0.331 -31.746  0.00  0.00     0.146 A 
ATOM      3  N   UNK d   1     -20.090  -0.716 -30.938  0.00  0.00    -0.153 N 
ATOM      4  C   UNK d   1     -19.863  -1.040 -29.628  0.00  0.00     0.083 A 
ATOM      5  C   UNK d   1     -20.227  -2.358 -29.513  0.00  0.00     0.077 A 
ATOM      6  N   UNK d   1     -20.640  -2.759 -30.705  0.00  0.00    -0.189 N 
ATOM      7  C   UNK d   1     -20.560  -1.741 -31.609  0.00  0.00     0.692 A 
ATOM      8  N   UNK d   1     -20.779  -1.377 -32.907  0.00  0.00    -0.180 N 
ATOM      9  C   UNK d   1     -20.129  -3.036 -28.295  0.00  0.00     0.032 A 
ATOM     10  C   UNK d   1     -19.657  -2.375 -27.182  0.00  0.00     0.002 A 
ATOM     11  C   UNK d   1     -19.299  -1.054 -27.324  0.00  0.00     0.002 A 
ATOM     12  C   UNK d   1     -19.394  -0.371 -28.531  0.00  0.00     0.033 A 
ATOM     13  H   UNK d   1     -20.984  -3.721 -30.888  0.00  0.00     0.184 HD
ENDROOT
BRANCH   8  14
ATOM     14  C   UNK d   1     -21.307  -2.304 -33.861  0.00  0.00     0.149 C 
BRANCH  14  15
ATOM     15  C   UNK d   1     -22.770  -2.321 -34.053  0.00  0.00     0.048 C 
BRANCH  15  16
ATOM     16  C   UNK d   1     -23.369  -1.430 -35.080  0.00  0.00     0.234 C 
BRANCH  16  17
ATOM     17  N   UNK d   1     -22.641  -1.476 -36.329  0.00  0.00    -0.071 N 
ATOM     18  H   UNK d   1     -21.634  -1.349 -36.273  0.00  0.00     0.277 HD
ATOM     19  H   UNK d   1     -22.747  -2.498 -36.678  0.00  0.00     0.277 HD
BRANCH  17  20
ATOM     20  C   UNK d   1     -23.234  -0.677 -37.360  0.00  0.00     0.185 C 
ATOM     21  C   UNK d   1     -24.148   0.412 -36.875  0.00  0.00     0.033 C 
ATOM     22  C   UNK d   1     -25.026   0.798 -38.075  0.00  0.00     0.002 C 
ATOM     23  C   UNK d   1     -24.146   1.329 -39.153  0.00  0.00     0.000 C 
ATOM     24  C   UNK d   1     -23.007   0.408 -39.520  0.00  0.00     0.002 C 
ATOM     25  C   UNK d   1     -22.218   0.002 -38.270  0.00  0.00     0.033 C 
ENDBRANCH  17  20
ENDBRANCH  16  17
ENDBRANCH  15  16
ENDBRANCH  14  15
ENDBRANCH   8  14
BRANCH   1  26
ATOM     26  C   UNK d   1     -20.475   0.790 -34.158  0.00  0.00    -0.007 A 
ATOM     27  C   UNK d   1     -21.524   1.682 -34.265  0.00  0.00     0.015 A 
ATOM     28  C   UNK d   1     -21.632   2.551 -35.312  0.00  0.00     0.020 A 
ATOM     29  C   UNK d   1     -20.706   2.580 -36.309  0.00  0.00     0.011 A 
ATOM     30 Br   UNK d   1     -20.853   3.804 -37.789  0.00  0.00    -0.051 Br
ATOM     31  C   UNK d   1     -19.652   1.713 -36.241  0.00  0.00     0.020 A 
ATOM     32  C   UNK d   1     -19.553   0.818 -35.149  0.00  0.00     0.015 A 
ENDBRANCH   1  26
TORSDOF 6
ENDMDL
