MODEL 1
REMARK VINA RESULT:    -8.195      0.000      0.000
REMARK INTER + INTRA:          -9.984
REMARK INTER:                  -9.153
REMARK INTRA:                  -0.831
REMARK UNBOUND:                -0.831
REMARK  2 active torsions:
REMARK  status: ('A' for Active; 'I' for Inactive)
REMARK    1  A    between atoms: C_4  and  C_8 
REMARK       I    between atoms: C_8  and  N_10 
REMARK    2  A    between atoms: N_13  and  C_16 
ROOT
ATOM      1  C   UNK d   1     -21.695   0.837 -34.069  0.00  0.00     0.204 C 
ATOM      2  O   UNK d   1     -22.907   1.273 -33.780  0.00  0.00    -0.170 OA
ATOM      3  N   UNK d   1     -21.029   1.471 -35.105  0.00  0.00    -0.355 N 
ATOM      4  C   UNK d   1     -21.745   2.550 -35.829  0.00  0.00     0.145 C 
ATOM      5  C   UNK d   1     -21.847   2.092 -37.259  0.00  0.00     0.144 C 
ATOM      6  N   UNK d   1     -21.137   0.887 -37.554  0.00  0.00    -0.362 N 
ATOM      7  C   UNK d   1     -19.903   0.483 -36.897  0.00  0.00     0.144 C 
ATOM      8  C   UNK d   1     -19.720   1.258 -35.601  0.00  0.00     0.145 C 
ENDROOT
BRANCH   1   9
ATOM      9  C   UNK d   1     -21.291  -0.252 -33.218  0.00  0.00     0.089 A 
ATOM     10  N   UNK d   1     -20.688  -0.259 -32.028  0.00  0.00    -0.342 N 
ATOM     11  C   UNK d   1     -20.504  -1.524 -31.560  0.00  0.00     0.126 A 
ATOM     12  H   UNK d   1     -20.350   0.538 -31.452  0.00  0.00     0.167 HD
ATOM     13 Cl   UNK d   1     -19.764  -2.029 -30.056  0.00  0.00    -0.063 Cl
ATOM     14  C   UNK d   1     -21.008  -2.399 -32.483  0.00  0.00     0.074 A 
ATOM     15  C   UNK d   1     -21.491  -1.610 -33.501  0.00  0.00     0.061 A 
ATOM     16 Cl   UNK d   1     -21.025  -4.146 -32.370  0.00  0.00    -0.081 Cl
ENDBRANCH   1   9
BRANCH   6  17
ATOM     17  C   UNK d   1     -21.636  -0.003 -38.544  0.00  0.00     0.142 A 
ATOM     18  N   UNK d   1     -21.227   0.081 -39.824  0.00  0.00    -0.224 NA
ATOM     19  C   UNK d   1     -21.693  -0.757 -40.780  0.00  0.00     0.237 A 
ATOM     20  N   UNK d   1     -22.590  -1.709 -40.471  0.00  0.00    -0.222 NA
ATOM     21  C   UNK d   1     -23.047  -1.859 -39.218  0.00  0.00     0.162 A 
ATOM     22  N   UNK d   1     -23.923  -2.713 -38.658  0.00  0.00    -0.256 N 
ATOM     23  C   UNK d   1     -22.555  -0.985 -38.242  0.00  0.00     0.076 A 
ATOM     24  N   UNK d   1     -23.998  -2.408 -37.378  0.00  0.00    -0.182 NA
ATOM     25  C   UNK d   1     -24.670  -3.788 -39.313  0.00  0.00     0.182 C 
ATOM     26  C   UNK d   1     -23.184  -1.367 -37.086  0.00  0.00     0.158 A 
ENDBRANCH   6  17
TORSDOF 2
ENDMDL
