MODEL 1
REMARK VINA RESULT:    -8.464      0.000      0.000
REMARK INTER + INTRA:         -12.521
REMARK INTER:                 -10.938
REMARK INTRA:                  -1.583
REMARK UNBOUND:                -1.583
REMARK  5 active torsions:
REMARK  status: ('A' for Active; 'I' for Inactive)
REMARK    1  A    between atoms: C_5  and  C_8 
REMARK    2  A    between atoms: N_15  and  C_16 
REMARK    3  A    between atoms: C_16  and  C_17 
REMARK    4  A    between atoms: C_17  and  C_18 
REMARK    5  A    between atoms: C_18  and  N_19 
ROOT
ATOM      1  C   UNK d   1     -20.659  -0.258 -32.578  0.00  0.00     0.078 A 
ATOM      2  C   UNK d   1     -20.376  -0.073 -31.213  0.00  0.00     0.146 A 
ATOM      3  N   UNK d   1     -20.371  -1.257 -30.606  0.00  0.00    -0.153 N 
ATOM      4  C   UNK d   1     -20.198  -1.847 -29.395  0.00  0.00     0.083 A 
ATOM      5  C   UNK d   1     -20.366  -3.177 -29.582  0.00  0.00     0.077 A 
ATOM      6  N   UNK d   1     -20.632  -3.362 -30.884  0.00  0.00    -0.189 N 
ATOM      7  C   UNK d   1     -20.638  -2.178 -31.535  0.00  0.00     0.692 A 
ATOM      8  N   UNK d   1     -20.818  -1.578 -32.757  0.00  0.00    -0.180 N 
ATOM      9  C   UNK d   1     -20.250  -4.058 -28.522  0.00  0.00     0.032 A 
ATOM     10  C   UNK d   1     -19.962  -3.597 -27.247  0.00  0.00     0.002 A 
ATOM     11  C   UNK d   1     -19.790  -2.232 -27.055  0.00  0.00     0.002 A 
ATOM     12  C   UNK d   1     -19.912  -1.385 -28.134  0.00  0.00     0.033 A 
ATOM     13  H   UNK d   1     -20.822  -4.292 -31.342  0.00  0.00     0.184 HD
ENDROOT
BRANCH   8  14
ATOM     14  C   UNK d   1     -21.140  -2.287 -33.950  0.00  0.00     0.149 C 
BRANCH  14  15
ATOM     15  C   UNK d   1     -22.608  -2.378 -34.277  0.00  0.00     0.048 C 
BRANCH  15  16
ATOM     16  C   UNK d   1     -23.136  -1.416 -35.245  0.00  0.00     0.236 C 
BRANCH  16  17
ATOM     17  N   UNK d   1     -22.609  -1.386 -36.577  0.00  0.00    -0.071 N 
ATOM     18  C   UNK d   1     -23.555  -1.880 -37.561  0.00  0.00     0.235 C 
ATOM     19  C   UNK d   1     -24.480  -0.889 -38.130  0.00  0.00     0.028 C 
ATOM     20  C   UNK d   1     -24.185   0.538 -37.853  0.00  0.00     0.003 C 
ATOM     21  C   UNK d   1     -22.720   0.780 -37.772  0.00  0.00     0.028 C 
ATOM     22  C   UNK d   1     -21.953  -0.180 -36.943  0.00  0.00     0.235 C 
ATOM     23  H   UNK d   1     -21.880  -2.134 -36.584  0.00  0.00     0.279 HD
ENDBRANCH  16  17
ENDBRANCH  15  16
ENDBRANCH  14  15
ENDBRANCH   8  14
BRANCH   1  24
ATOM     24  C   UNK d   1     -20.754   0.873 -33.507  0.00  0.00    -0.007 A 
ATOM     25  C   UNK d   1     -21.989   1.504 -33.656  0.00  0.00     0.015 A 
ATOM     26  C   UNK d   1     -22.202   2.585 -34.489  0.00  0.00     0.020 A 
ATOM     27  C   UNK d   1     -21.174   3.097 -35.226  0.00  0.00     0.011 A 
ATOM     28 Br   UNK d   1     -21.417   4.579 -36.384  0.00  0.00    -0.051 Br
ATOM     29  C   UNK d   1     -19.950   2.500 -35.103  0.00  0.00     0.020 A 
ATOM     30  C   UNK d   1     -19.738   1.392 -34.248  0.00  0.00     0.015 A 
ENDBRANCH   1  24
TORSDOF 5
ENDMDL
