/Users/jonathanwahrer/Desktop/Msc/3_Semester/Drug_Design_Praktikum/waehrer_HTS_screening/HTS_experiment/out/docking_results/vina_output/5l4q/2440_docked.pdbqt
 OpenBabel03212219323D

 33 36  0  0  1  0  0  0  0  0999 V2000
  -18.1140    2.8110  -34.6510 Cl  0  0  0  0  0  0  0  0  0  0  0  0
  -19.5630    1.9430  -34.1540 C   0  0  0  0  0  0  0  0  0  0  0  0
  -19.3870    0.8270  -33.3210 C   0  0  0  0  0  0  0  0  0  0  0  0
  -20.5160    0.1560  -32.9370 C   0  0  0  0  0  0  0  0  0  0  0  0
  -21.7970    0.5680  -33.3600 C   0  0  0  0  0  3  0  0  0  0  0  0
  -21.9560    1.6600  -34.1750 C   0  0  0  0  0  3  0  0  0  0  0  0
  -20.8160    2.3330  -34.5580 C   0  0  0  0  0  3  0  0  0  0  0  0
  -20.1050   -0.9560  -32.0690 C   0  0  2  0  0  0  0  0  0  0  0  0
  -20.6110   -2.2250  -32.4520 N   0  0  0  0  0  0  0  0  0  0  0  0
  -20.7670   -3.0710  -31.3530 C   0  0  1  0  0  3  0  0  0  0  0  0
  -20.7510   -2.1560  -30.1480 C   0  0  2  0  0  3  0  0  0  0  0  0
  -20.6350   -0.7540  -30.6500 C   0  0  1  0  0  3  0  0  0  0  0  0
  -19.6590   -0.0450  -29.7820 C   0  0  0  0  0  0  0  0  0  0  0  0
  -19.4080    1.1800  -29.8660 O   0  0  0  0  0  0  0  0  0  0  0  0
  -19.0980   -1.0000  -28.8800 N   0  0  0  0  0  0  0  0  0  0  0  0
  -19.5220   -2.2940  -29.3350 C   0  0  0  0  0  0  0  0  0  0  0  0
  -18.9350   -3.3550  -29.0730 O   0  0  0  0  0  0  0  0  0  0  0  0
  -18.6410   -0.8900  -32.0190 C   0  0  0  0  0  0  0  0  0  0  0  0
  -17.8280   -1.6600  -31.4190 O   0  0  0  0  0  0  0  0  0  0  0  0
  -18.2180    0.2230  -32.7830 N   0  0  0  0  0  0  0  0  0  0  0  0
  -20.2200   -2.6260  -33.3210 H   0  0  0  0  0  0  0  0  0  0  0  0
  -17.2450    0.5740  -32.9480 H   0  0  0  0  0  0  0  0  0  0  0  0
  -21.8840   -4.0410  -31.3370 C   0  0  0  0  0  2  0  0  0  0  0  0
  -22.2090   -4.7570  -32.5860 C   0  0  0  0  0  2  0  0  0  0  0  0
  -22.0740   -6.2170  -32.5860 C   0  0  0  0  0  0  0  0  0  0  0  0
  -21.1410   -6.7670  -31.9710 O   0  0  0  0  0  0  0  0  0  0  0  0
  -22.9810   -7.0780  -33.2700 N   0  0  0  0  0  0  0  0  0  0  0  0
  -23.9680   -7.2100  -32.9870 H   0  0  0  0  0  0  0  0  0  0  0  0
  -22.6400   -7.6010  -34.0940 H   0  0  0  0  0  0  0  0  0  0  0  0
  -18.2770   -0.7560  -27.7350 C   0  0  0  0  0  2  0  0  0  0  0  0
  -18.9890   -0.6190  -26.4370 C   0  0  0  0  0  2  0  0  0  0  0  0
  -18.6550   -1.6150  -25.3850 C   0  0  0  0  0  2  0  0  0  0  0  0
  -19.2110   -2.9960  -25.7150 C   0  0  0  0  0  1  0  0  0  0  0  0
  1  2  1  0  0  0  0
  2  3  1  0  0  0  0
  3  4  2  0  0  0  0
  3 20  1  0  0  0  0
  5  4  1  0  0  0  0
  6  5  2  0  0  0  0
  7  6  1  0  0  0  0
  7  2  2  0  0  0  0
  8  4  1  6  0  0  0
  8 18  1  0  0  0  0
  8 12  1  0  0  0  0
  9  8  1  0  0  0  0
  9 10  1  0  0  0  0
 10 23  1  6  0  0  0
 10 11  1  0  0  0  0
 11 16  1  1  0  0  0
 12 11  1  0  0  0  0
 12 13  1  1  0  0  0
 13 15  1  0  0  0  0
 14 13  2  0  0  0  0
 15 30  1  0  0  0  0
 16 17  2  0  0  0  0
 16 15  1  0  0  0  0
 18 19  2  0  0  0  0
 20 18  1  0  0  0  0
 21  9  1  0  0  0  0
 22 20  1  0  0  0  0
 24 23  1  0  0  0  0
 25 24  1  0  0  0  0
 25 26  2  0  0  0  0
 27 28  1  0  0  0  0
 27 25  1  0  0  0  0
 29 27  1  0  0  0  0
 30 31  1  0  0  0  0
 31 32  1  0  0  0  0
 33 32  1  0  0  0  0
M  END
>  <Pose>
1

>  <Score>
-8.156

$$$$
