MODEL 1
REMARK VINA RESULT:    -8.156      0.000      0.000
REMARK INTER + INTRA:         -11.726
REMARK INTER:                 -11.017
REMARK INTRA:                  -0.709
REMARK UNBOUND:                -0.709
REMARK  6 active torsions:
REMARK  status: ('A' for Active; 'I' for Inactive)
REMARK    1  A    between atoms: C_10  and  C_22 
REMARK    2  A    between atoms: N_15  and  C_18 
REMARK    3  A    between atoms: C_18  and  C_19 
REMARK    4  A    between atoms: C_19  and  C_20 
REMARK    5  A    between atoms: C_22  and  C_23 
REMARK    6  A    between atoms: C_23  and  C_24 
REMARK       I    between atoms: C_24  and  N_26 
ROOT
ATOM      1 Cl   UNK d   1     -18.114   2.811 -34.651  0.00  0.00    -0.082 Cl
ATOM      2  C   UNK d   1     -19.563   1.943 -34.154  0.00  0.00     0.061 A 
ATOM      3  C   UNK d   1     -19.387   0.827 -33.321  0.00  0.00     0.066 A 
ATOM      4  C   UNK d   1     -20.516   0.156 -32.937  0.00  0.00     0.008 A 
ATOM      5  C   UNK d   1     -21.797   0.568 -33.360  0.00  0.00     0.012 A 
ATOM      6  C   UNK d   1     -21.956   1.660 -34.175  0.00  0.00     0.002 A 
ATOM      7  C   UNK d   1     -20.816   2.333 -34.558  0.00  0.00     0.026 A 
ATOM      8  C   UNK d   1     -20.105  -0.956 -32.069  0.00  0.00     0.151 A 
ATOM      9  N   UNK d   1     -20.611  -2.225 -32.452  0.00  0.00    -0.395 N 
ATOM     10  C   UNK d   1     -20.767  -3.071 -31.353  0.00  0.00     0.092 C 
ATOM     11  C   UNK d   1     -20.751  -2.156 -30.148  0.00  0.00     0.117 C 
ATOM     12  C   UNK d   1     -20.635  -0.754 -30.650  0.00  0.00     0.135 C 
ATOM     13  C   UNK d   1     -19.659  -0.045 -29.782  0.00  0.00     0.234 C 
ATOM     14  O   UNK d   1     -19.408   1.180 -29.866  0.00  0.00    -0.272 OA
ATOM     15  N   UNK d   1     -19.098  -1.000 -28.880  0.00  0.00    -0.288 N 
ATOM     16  C   UNK d   1     -19.522  -2.294 -29.335  0.00  0.00     0.233 C 
ATOM     17  O   UNK d   1     -18.935  -3.355 -29.073  0.00  0.00    -0.272 OA
ATOM     18  C   UNK d   1     -18.641  -0.890 -32.019  0.00  0.00     0.256 A 
ATOM     19  O   UNK d   1     -17.828  -1.660 -31.419  0.00  0.00    -0.270 OA
ATOM     20  N   UNK d   1     -18.218   0.223 -32.783  0.00  0.00    -0.323 N 
ATOM     21  H   UNK d   1     -20.220  -2.626 -33.321  0.00  0.00     0.155 HD
ATOM     22  H   UNK d   1     -17.245   0.574 -32.948  0.00  0.00     0.169 HD
ENDROOT
BRANCH  10  23
ATOM     23  C   UNK d   1     -21.884  -4.041 -31.337  0.00  0.00     0.035 C 
BRANCH  23  24
ATOM     24  C   UNK d   1     -22.209  -4.757 -32.586  0.00  0.00     0.104 C 
BRANCH  24  25
ATOM     25  C   UNK d   1     -22.074  -6.217 -32.586  0.00  0.00     0.215 C 
ATOM     26  O   UNK d   1     -21.141  -6.767 -31.971  0.00  0.00    -0.274 OA
ATOM     27  N   UNK d   1     -22.981  -7.078 -33.270  0.00  0.00    -0.370 N 
ATOM     28  H   UNK d   1     -23.968  -7.210 -32.987  0.00  0.00     0.159 HD
ATOM     29  H   UNK d   1     -22.640  -7.601 -34.094  0.00  0.00     0.159 HD
ENDBRANCH  24  25
ENDBRANCH  23  24
ENDBRANCH  10  23
BRANCH  15  30
ATOM     30  C   UNK d   1     -18.277  -0.756 -27.735  0.00  0.00     0.135 C 
BRANCH  30  31
ATOM     31  C   UNK d   1     -18.989  -0.619 -26.437  0.00  0.00     0.020 C 
BRANCH  31  32
ATOM     32  C   UNK d   1     -18.655  -1.615 -25.385  0.00  0.00    -0.003 C 
ATOM     33  C   UNK d   1     -19.211  -2.996 -25.715  0.00  0.00     0.005 C 
ENDBRANCH  31  32
ENDBRANCH  30  31
ENDBRANCH  15  30
TORSDOF 6
ENDMDL
