/Users/jonathanwahrer/Desktop/Msc/3_Semester/Drug_Design_Praktikum/waehrer_HTS_screening/HTS_experiment/out/docking_results/vina_output/5l4q/2447_docked.pdbqt
 OpenBabel03212219333D

 33 36  0  0  1  0  0  0  0  0999 V2000
  -23.4110   -0.0830  -37.6030 C   0  0  1  0  0  3  0  0  0  0  0  0
  -24.6230    0.7280  -37.2930 C   0  0  0  0  0  0  0  0  0  0  0  0
  -25.4410    1.0850  -38.1750 O   0  0  0  0  0  0  0  0  0  0  0  0
  -24.7560    1.0480  -35.9450 O   0  0  0  0  0  0  0  0  0  0  0  0
  -24.2690    0.2830  -34.9050 C   0  0  0  0  0  3  0  0  0  0  0  0
  -23.6170   -0.8590  -35.2150 C   0  0  0  0  0  0  0  0  0  0  0  0
  -23.4690   -1.2140  -36.6090 C   0  0  0  0  0  0  0  0  0  0  0  0
  -23.3930   -2.3930  -36.9940 O   0  0  0  0  0  0  0  0  0  0  0  0
  -23.0840   -1.7360  -34.1630 C   0  0  0  0  0  2  0  0  0  0  0  0
  -21.7230   -1.5610  -33.8620 N   0  0  0  0  0  0  0  0  0  0  0  0
  -20.9040   -2.6530  -33.5520 C   0  0  0  0  0  2  0  0  0  0  0  0
  -19.6600   -2.1860  -32.7610 C   0  0  0  0  0  2  0  0  0  0  0  0
  -20.1810   -1.3310  -31.7250 N   0  0  0  0  0  0  0  0  0  0  0  0
  -20.7100   -0.0620  -32.2060 C   0  0  0  0  0  2  0  0  0  0  0  0
  -21.2460   -0.2480  -33.6190 C   0  0  0  0  0  2  0  0  0  0  0  0
  -20.1890   -1.6970  -30.3650 C   0  0  0  0  0  0  0  0  0  0  0  0
  -20.2870   -2.9960  -29.9220 C   0  0  0  0  0  3  0  0  0  0  0  0
  -20.2860   -3.2970  -28.5800 C   0  0  0  0  0  0  0  0  0  0  0  0
  -20.1870   -2.3270  -27.6100 C   0  0  0  0  0  3  0  0  0  0  0  0
  -20.4140   -4.9620  -28.0810 Cl  0  0  0  0  0  0  0  0  0  0  0  0
  -20.0880   -1.0230  -28.0200 C   0  0  0  0  0  3  0  0  0  0  0  0
  -20.0890   -0.7150  -29.3730 C   0  0  0  0  0  3  0  0  0  0  0  0
  -23.3810   -0.5840  -39.0030 C   0  0  0  0  0  2  0  0  0  0  0  0
  -22.4460    0.1820  -39.7510 N   0  0  0  0  0  0  0  0  0  0  0  0
  -21.4010    0.8040  -38.9760 C   0  0  0  0  0  2  0  0  0  0  0  0
  -21.6510    2.2990  -39.0010 C   0  0  0  0  0  2  0  0  0  0  0  0
  -21.3910    2.7830  -40.3160 N   0  0  0  0  0  0  0  0  0  0  0  0
  -21.8100    1.8590  -41.3200 C   0  0  0  0  0  2  0  0  0  0  0  0
  -22.9390    0.9510  -40.8320 C   0  0  0  0  0  2  0  0  0  0  0  0
  -19.8370    3.4340  -40.5390 S   0  0  0  0  0  0  0  0  0  0  0  0
  -19.0800    3.6360  -39.2440 O   0  0  0  0  0  0  0  0  0  0  0  0
  -19.0200    2.4340  -41.3460 O   0  0  0  0  0  0  0  0  0  0  0  0
  -19.8230    4.9470  -41.4250 C   0  0  0  0  0  1  0  0  0  0  0  0
  1 23  1  6  0  0  0
  1  2  1  0  0  0  0
  1  7  1  0  0  0  0
  2  4  1  0  0  0  0
  3  2  2  0  0  0  0
  4  5  1  0  0  0  0
  6  5  2  0  0  0  0
  6  9  1  0  0  0  0
  7  6  1  0  0  0  0
  8  7  2  0  0  0  0
  9 10  1  0  0  0  0
 10 15  1  0  0  0  0
 10 11  1  0  0  0  0
 11 12  1  0  0  0  0
 12 13  1  0  0  0  0
 13 16  1  0  0  0  0
 14 13  1  0  0  0  0
 15 14  1  0  0  0  0
 16 17  2  0  0  0  0
 16 22  1  0  0  0  0
 17 18  1  0  0  0  0
 18 20  1  0  0  0  0
 18 19  2  0  0  0  0
 21 19  1  0  0  0  0
 22 21  2  0  0  0  0
 24 23  1  0  0  0  0
 24 25  1  0  0  0  0
 26 25  1  0  0  0  0
 27 26  1  0  0  0  0
 28 29  1  0  0  0  0
 28 27  1  0  0  0  0
 29 24  1  0  0  0  0
 30 27  1  0  0  0  0
 30 31  2  0  0  0  0
 32 30  2  0  0  0  0
 33 30  1  0  0  0  0
M  END
>  <Pose>
1

>  <Score>
-8.794

$$$$
