
 OpenBabel03222201593D

 60 59  0  0  0  0  0  0  0  0999 V2000
  -23.5000    0.7450  -33.7520 B   0  0  0  0  0  0  0  0  0  0  0  0
  -23.4090   -0.0920  -35.4710 C   0  0  0  0  0  0  0  0  0  0  0  0
  -23.1950   -1.4780  -35.5090 C   0  0  0  0  0  0  0  0  0  0  0  0
  -23.1330   -2.0570  -36.7350 C   0  0  0  0  0  0  0  0  0  0  0  0
  -23.2730   -1.3190  -37.9180 C   0  0  0  0  0  0  0  0  0  0  0  0
  -23.4810    0.0390  -37.8540 C   0  0  0  0  0  0  0  0  0  0  0  0
  -23.5480    0.6460  -36.6190 C   0  0  0  0  0  0  0  0  0  0  0  0
  -23.6860    1.1430  -39.3930 B   0  0  0  0  0  0  0  0  0  0  0  0
  -22.8710   -3.9120  -36.9200 B   0  0  0  0  0  0  0  0  0  0  0  0
  -23.0660   -2.1560  -34.3470 O   0  0  0  0  0  0  0  0  0  0  0  0
  -21.9710   -2.0780  -33.4380 C   0  0  0  0  0  0  0  0  0  0  0  0
  -21.9280   -3.2700  -32.5790 C   0  0  0  0  0  0  0  0  0  0  0  0
  -22.6140   -4.2810  -33.2770 O   0  0  0  0  0  0  0  0  0  0  0  0
  -20.8280   -3.6480  -31.7080 C   0  0  0  0  0  0  0  0  0  0  0  0
  -20.1510   -2.7140  -30.8820 N   0  0  0  0  0  0  0  0  0  0  0  0
  -19.9690   -2.8270  -29.5390 C   0  0  0  0  0  0  0  0  0  0  0  0
  -19.2730   -1.7400  -29.0800 C   0  0  0  0  0  0  0  0  0  0  0  0
  -19.0520   -0.9940  -30.1420 N   0  0  0  0  0  0  0  0  0  0  0  0
  -19.5790   -1.5570  -31.2640 C   0  0  0  0  0  0  0  0  0  0  0  0
  -19.5730   -0.8800  -32.5340 N   0  0  0  0  0  0  0  0  0  0  0  0
  -19.8520   -1.4300  -33.8050 C   0  0  0  0  0  0  0  0  0  0  0  0
  -19.8060   -0.2720  -34.8390 C   0  0  0  0  0  0  0  0  0  0  0  0
  -18.4390    0.2100  -34.7890 N   0  0  0  0  0  4  0  0  0  0  0  0
  -18.4320    1.0720  -33.5920 C   0  0  0  0  0  0  0  0  0  0  0  0
  -19.2860    0.5600  -32.5020 C   0  0  0  0  0  0  0  0  0  0  0  0
  -18.1050    0.9980  -35.9580 C   0  0  0  0  0  0  0  0  0  0  0  0
  -18.8710    0.4560  -37.1450 C   0  0  0  0  0  0  0  0  0  0  0  0
  -18.3780   -0.8150  -37.4660 O   0  0  0  0  0  0  0  0  0  0  0  0
  -18.9360   -1.5370  -27.7690 N   0  0  0  0  0  0  0  0  0  0  0  0
  -19.3270   -2.4760  -26.8980 C   0  0  0  0  0  0  0  0  0  0  0  0
  -19.0140   -2.2860  -25.6890 O   0  0  0  0  0  0  0  0  0  0  0  0
  -20.0170   -3.5610  -27.2990 N   0  0  0  0  0  0  0  0  0  0  0  0
  -20.3540   -3.7740  -28.5820 C   0  0  0  0  0  0  0  0  0  0  0  0
  -21.0640   -4.8890  -28.9640 O   0  0  0  0  0  0  0  0  0  0  0  0
  -18.1850   -0.3460  -27.3960 C   0  0  0  0  0  0  0  0  0  0  0  0
  -23.2190   -1.8010  -38.8740 H   0  0  0  0  0  0  0  0  0  0  0  0
  -23.7140    1.7270  -36.5260 H   0  0  0  0  0  0  0  0  0  0  0  0
  -22.2970   -1.2190  -32.7550 H   0  0  0  0  0  0  0  0  0  0  0  0
  -21.0470   -1.7160  -33.8660 H   0  0  0  0  0  0  0  0  0  0  0  0
  -22.8110   -3.0210  -31.7770 H   0  0  0  0  0  0  0  0  0  0  0  0
  -22.0050   -4.9090  -33.7040 H   0  0  0  0  0  0  0  0  0  0  0  0
  -21.0180   -4.6320  -31.1630 H   0  0  0  0  0  0  0  0  0  0  0  0
  -20.0370   -4.0590  -32.4570 H   0  0  0  0  0  0  0  0  0  0  0  0
  -20.9100   -1.7810  -33.9240 H   0  0  0  0  0  0  0  0  0  0  0  0
  -19.0950   -2.1200  -34.1880 H   0  0  0  0  0  0  0  0  0  0  0  0
  -20.5140    0.5260  -34.5470 H   0  0  0  0  0  0  0  0  0  0  0  0
  -20.0090   -0.6240  -35.8510 H   0  0  0  0  0  0  0  0  0  0  0  0
  -17.7370   -0.5370  -34.5980 H   0  0  0  0  0  0  0  0  0  0  0  0
  -17.4270    1.4090  -33.3240 H   0  0  0  0  0  0  0  0  0  0  0  0
  -18.9440    2.0140  -33.9730 H   0  0  0  0  0  0  0  0  0  0  0  0
  -18.8080    0.7990  -31.5340 H   0  0  0  0  0  0  0  0  0  0  0  0
  -20.2960    1.0360  -32.4620 H   0  0  0  0  0  0  0  0  0  0  0  0
  -17.0150    0.9120  -36.2070 H   0  0  0  0  0  0  0  0  0  0  0  0
  -18.3970    2.0600  -35.8460 H   0  0  0  0  0  0  0  0  0  0  0  0
  -19.9450    0.3150  -36.8930 H   0  0  0  0  0  0  0  0  0  0  0  0
  -18.7540    1.1130  -38.0530 H   0  0  0  0  0  0  0  0  0  0  0  0
  -18.7940   -1.5120  -36.8880 H   0  0  0  0  0  0  0  0  0  0  0  0
  -17.1270   -0.7100  -27.2410 H   0  0  0  0  0  0  0  0  0  0  0  0
  -18.1170    0.3150  -28.2800 H   0  0  0  0  0  0  0  0  0  0  0  0
  -18.5360    0.1440  -26.4910 H   0  0  0  0  0  0  0  0  0  0  0  0
  2  1  1  0  0  0  0
  3  2  1  0  0  0  0
  3 10  1  0  0  0  0
  4  3  2  0  0  0  0
  5  6  2  0  0  0  0
  5  4  1  0  0  0  0
  6  7  1  0  0  0  0
  7 37  1  0  0  0  0
  7  2  2  0  0  0  0
  8  6  1  0  0  0  0
  9  4  1  0  0  0  0
 11 38  1  0  0  0  0
 12 40  1  0  0  0  0
 12 14  1  0  0  0  0
 13 12  1  0  0  0  0
 14 42  1  0  0  0  0
 14 15  1  0  0  0  0
 15 16  1  0  0  0  0
 16 17  2  0  0  0  0
 16 33  1  0  0  0  0
 17 29  1  0  0  0  0
 18 17  1  0  0  0  0
 19 15  1  0  0  0  0
 19 18  2  0  0  0  0
 20 25  1  0  0  0  0
 20 19  1  0  0  0  0
 22 23  1  0  0  0  0
 22 46  1  0  0  0  0
 23 48  1  0  0  0  0
 23 24  1  0  0  0  0
 24 49  1  0  0  0  0
 24 25  1  0  0  0  0
 25 52  1  0  0  0  0
 25 51  1  0  0  0  0
 26 54  1  0  0  0  0
 26 23  1  0  0  0  0
 27 55  1  0  0  0  0
 27 26  1  0  0  0  0
 28 27  1  0  0  0  0
 28 57  1  0  0  0  0
 29 35  1  0  0  0  0
 29 30  1  0  0  0  0
 30 31  2  0  0  0  0
 32 30  1  0  0  0  0
 33 32  1  0  0  0  0
 34 33  2  0  0  0  0
 35 58  1  0  0  0  0
 35 60  1  0  0  0  0
 36  5  1  0  0  0  0
 39 11  1  0  0  0  0
 41 13  1  0  0  0  0
 43 14  1  0  0  0  0
 44 21  1  0  0  0  0
 45 21  1  0  0  0  0
 47 22  1  0  0  0  0
 50 24  1  0  0  0  0
 53 26  1  0  0  0  0
 56 27  1  0  0  0  0
 59 35  1  0  0  0  0
M  END
>  <Pose>
1

>  <Score>
-8.53

$$$$
