
 OpenBabel03222201593D

 43 46  0  0  0  0  0  0  0  0999 V2000
  -19.6930    2.3300  -38.2490 B   0  0  0  0  0  0  0  0  0  0  0  0
  -20.3210    1.0550  -36.9920 C   0  0  0  0  0  0  0  0  0  0  0  0
  -19.6310    0.8900  -35.8100 C   0  0  0  0  0  0  0  0  0  0  0  0
  -20.0690   -0.0220  -34.8990 C   0  0  0  0  0  0  0  0  0  0  0  0
  -21.2080   -0.8000  -35.1330 C   0  0  0  0  0  0  0  0  0  0  0  0
  -21.8770   -0.6140  -36.3190 C   0  0  0  0  0  0  0  0  0  0  0  0
  -21.4520    0.2990  -37.2510 C   0  0  0  0  0  0  0  0  0  0  0  0
  -23.4410   -1.6520  -36.6910 B   0  0  0  0  0  0  0  0  0  0  0  0
  -19.3510   -0.2030  -33.6520 C   0  0  0  0  0  0  0  0  0  0  0  0
  -19.7930    0.3560  -32.5910 N   0  0  0  0  0  0  0  0  0  0  0  0
  -19.1870    0.2480  -31.3510 N   0  0  0  0  0  0  0  0  0  0  0  0
  -18.8470   -0.9760  -30.7250 C   0  0  0  0  0  0  0  0  0  0  0  0
  -17.8720   -1.6020  -31.2030 O   0  0  0  0  0  0  0  0  0  0  0  0
  -19.5590   -1.5110  -29.5910 C   0  0  0  0  0  0  0  0  0  0  0  0
  -20.1570   -2.7980  -29.7680 N   0  0  0  0  0  0  0  0  0  0  0  0
  -20.7610   -3.2850  -30.8840 C   0  0  0  0  0  0  0  0  0  0  0  0
  -21.2090   -4.5570  -30.6570 C   0  0  0  0  0  0  0  0  0  0  0  0
  -20.8680   -4.8330  -29.3890 N   0  0  0  0  0  0  0  0  0  0  0  0
  -20.2220   -3.7560  -28.8400 C   0  0  0  0  0  0  0  0  0  0  0  0
  -19.7180   -3.7220  -27.4720 C   0  0  0  0  0  0  0  0  0  0  0  0
  -19.5080   -4.7910  -26.6940 N   0  0  0  0  0  0  0  0  0  0  0  0
  -19.0500   -4.3830  -25.5240 O   0  0  0  0  0  0  0  0  0  0  0  0
  -18.9540   -3.0910  -25.5070 N   0  0  0  0  0  0  0  0  0  0  0  0
  -19.3630   -2.6330  -26.7100 C   0  0  0  0  0  0  0  0  0  0  0  0
  -19.4180   -1.2790  -27.1200 N   0  0  0  0  0  4  0  0  0  0  0  0
  -21.8540   -5.2240  -31.6780 C   0  0  0  0  0  0  0  0  0  0  0  0
  -22.0600   -4.6450  -32.9190 C   0  0  0  0  0  0  0  0  0  0  0  0
  -21.5950   -3.3570  -33.1180 C   0  0  0  0  0  0  0  0  0  0  0  0
  -20.9490   -2.6870  -32.0990 C   0  0  0  0  0  0  0  0  0  0  0  0
  -18.5020    1.6500  -35.5620 O   0  0  0  0  0  0  0  0  0  0  0  0
  -21.5680   -1.5240  -34.4220 H   0  0  0  0  0  0  0  0  0  0  0  0
  -21.9520    0.4690  -38.1900 H   0  0  0  0  0  0  0  0  0  0  0  0
  -18.4480   -0.7950  -33.5700 H   0  0  0  0  0  0  0  0  0  0  0  0
  -18.9630    1.1280  -30.8370 H   0  0  0  0  0  0  0  0  0  0  0  0
  -18.8900   -1.6180  -28.6800 H   0  0  0  0  0  0  0  0  0  0  0  0
  -20.3210   -0.7790  -29.2560 H   0  0  0  0  0  0  0  0  0  0  0  0
  -18.8040   -1.0780  -27.9210 H   0  0  0  0  0  0  0  0  0  0  0  0
  -19.0450   -0.7130  -26.3090 H   0  0  0  0  0  0  0  0  0  0  0  0
  -20.4020   -0.9460  -27.2950 H   0  0  0  0  0  0  0  0  0  0  0  0
  -22.2080   -6.2370  -31.4880 H   0  0  0  0  0  0  0  0  0  0  0  0
  -22.5760   -5.2030  -33.7080 H   0  0  0  0  0  0  0  0  0  0  0  0
  -21.7530   -2.9010  -34.0890 H   0  0  0  0  0  0  0  0  0  0  0  0
  -20.5750   -1.6740  -32.2320 H   0  0  0  0  0  0  0  0  0  0  0  0
  1  2  1  0  0  0  0
  2  3  1  0  0  0  0
  3 30  1  0  0  0  0
  3  4  2  0  0  0  0
  4  9  1  0  0  0  0
  5  4  1  0  0  0  0
  5 31  1  0  0  0  0
  6  5  2  0  0  0  0
  7  2  2  0  0  0  0
  7  6  1  0  0  0  0
  8  6  1  0  0  0  0
  9 33  1  0  0  0  0
  9 10  2  0  0  0  0
 10 11  1  0  0  0  0
 11 34  1  0  0  0  0
 11 12  1  0  0  0  0
 12 14  1  0  0  0  0
 13 12  2  0  0  0  0
 14 36  1  0  0  0  0
 14 35  1  0  0  0  0
 15 14  1  0  0  0  0
 15 19  1  0  0  0  0
 16 17  1  0  0  0  0
 16 15  1  0  0  0  0
 17 18  1  0  0  0  0
 18 19  2  0  0  0  0
 19 20  1  0  0  0  0
 20 24  1  0  0  0  0
 20 21  2  0  0  0  0
 21 22  1  0  0  0  0
 22 23  1  0  0  0  0
 24 23  2  0  0  0  0
 25 24  1  0  0  0  0
 25 38  1  0  0  0  0
 26 40  1  0  0  0  0
 26 17  2  0  0  0  0
 27 26  1  0  0  0  0
 28 27  2  0  0  0  0
 28 29  1  0  0  0  0
 29 16  2  0  0  0  0
 32  7  1  0  0  0  0
 37 25  1  0  0  0  0
 39 25  1  0  0  0  0
 41 27  1  0  0  0  0
 42 28  1  0  0  0  0
 43 29  1  0  0  0  0
M  END
>  <Pose>
1

>  <Score>
-7.69

$$$$
