
 OpenBabel03222201593D

 50 53  0  0  0  0  0  0  0  0999 V2000
  -23.3070   -0.0360  -35.4500 B   0  0  0  0  0  0  0  0  0  0  0  0
  -21.4880    0.4950  -35.5590 C   0  0  0  0  0  0  0  0  0  0  0  0
  -21.0660    1.3260  -36.5740 C   0  0  0  0  0  0  0  0  0  0  0  0
  -19.7000    1.6910  -36.6470 C   0  0  0  0  0  0  0  0  0  0  0  0
  -18.8620    1.1890  -35.6930 C   0  0  0  0  0  0  0  0  0  0  0  0
  -19.2470    0.3400  -34.6460 C   0  0  0  0  0  0  0  0  0  0  0  0
  -20.5870    0.0210  -34.6250 C   0  0  0  0  0  0  0  0  0  0  0  0
  -18.2780   -0.1350  -33.7190 C   0  0  0  0  0  0  0  0  0  0  0  0
  -18.2490   -0.2720  -32.5460 N   0  0  0  0  0  0  0  0  0  0  0  0
  -18.3040   -0.3820  -31.3190 N   0  0  0  0  0  0  0  0  0  0  0  0
  -18.3660   -0.5060  -29.9700 C   0  0  0  0  0  0  0  0  0  0  0  0
  -17.5700   -0.4510  -29.0360 O   0  0  0  0  0  0  0  0  0  0  0  0
  -19.8120   -0.7900  -29.5060 C   0  0  0  0  0  0  0  0  0  0  0  0
  -20.0890   -2.1660  -29.4510 N   0  0  0  0  0  0  0  0  0  0  0  0
  -20.5760   -2.8170  -30.5740 C   0  0  0  0  0  0  0  0  0  0  0  0
  -20.7740   -4.1020  -30.2320 C   0  0  0  0  0  0  0  0  0  0  0  0
  -20.4250   -4.2230  -28.9610 N   0  0  0  0  0  0  0  0  0  0  0  0
  -19.9890   -3.0070  -28.4560 C   0  0  0  0  0  0  0  0  0  0  0  0
  -19.5910   -2.9970  -27.0590 C   0  0  0  0  0  0  0  0  0  0  0  0
  -19.5070   -4.1640  -26.3020 N   0  0  0  0  0  0  0  0  0  0  0  0
  -19.1160   -3.9010  -25.1210 O   0  0  0  0  0  0  0  0  0  0  0  0
  -18.9210   -2.6520  -24.9840 N   0  0  0  0  0  0  0  0  0  0  0  0
  -19.2080   -2.0450  -26.1860 C   0  0  0  0  0  0  0  0  0  0  0  0
  -19.0680   -0.6540  -26.3720 N   0  0  0  0  0  4  0  0  0  0  0  0
  -21.2630   -5.0470  -31.1200 C   0  0  0  0  0  0  0  0  0  0  0  0
  -21.5430   -4.6050  -32.3910 C   0  0  0  0  0  0  0  0  0  0  0  0
  -21.3560   -3.2970  -32.7960 C   0  0  0  0  0  0  0  0  0  0  0  0
  -20.8620   -2.3890  -31.8620 C   0  0  0  0  0  0  0  0  0  0  0  0
  -19.3060    2.5240  -37.6760 O   0  0  0  0  0  0  0  0  0  0  0  0
  -19.0580    3.8770  -37.5020 C   0  0  0  0  0  0  0  0  0  0  0  0
  -17.7720    4.2310  -36.8090 C   0  0  0  0  0  0  0  0  0  0  0  0
  -21.8990    1.8260  -37.5320 O   0  0  0  0  0  0  0  0  0  0  0  0
  -17.8160    1.4380  -35.7220 H   0  0  0  0  0  0  0  0  0  0  0  0
  -20.9640   -0.6340  -33.8140 H   0  0  0  0  0  0  0  0  0  0  0  0
  -17.2660   -0.4940  -34.1270 H   0  0  0  0  0  0  0  0  0  0  0  0
  -18.7780   -1.7020  -31.4170 H   0  0  0  0  0  0  0  0  0  0  0  0
  -20.4640   -0.3470  -30.3350 H   0  0  0  0  0  0  0  0  0  0  0  0
  -19.9670   -0.2190  -28.6090 H   0  0  0  0  0  0  0  0  0  0  0  0
  -18.2480   -0.4870  -27.0690 H   0  0  0  0  0  0  0  0  0  0  0  0
  -18.7330   -0.2140  -25.5060 H   0  0  0  0  0  0  0  0  0  0  0  0
  -19.8610   -0.2560  -26.8680 H   0  0  0  0  0  0  0  0  0  0  0  0
  -21.3930   -6.0670  -30.7750 H   0  0  0  0  0  0  0  0  0  0  0  0
  -21.9350   -5.3280  -33.1330 H   0  0  0  0  0  0  0  0  0  0  0  0
  -21.5950   -3.0000  -33.8050 H   0  0  0  0  0  0  0  0  0  0  0  0
  -20.6940   -1.3620  -32.1220 H   0  0  0  0  0  0  0  0  0  0  0  0
  -19.0940    4.4080  -38.5150 H   0  0  0  0  0  0  0  0  0  0  0  0
  -19.8900    4.3870  -36.9270 H   0  0  0  0  0  0  0  0  0  0  0  0
  -17.9990    4.8800  -35.9510 H   0  0  0  0  0  0  0  0  0  0  0  0
  -17.2460    3.3350  -36.5040 H   0  0  0  0  0  0  0  0  0  0  0  0
  -17.1450    4.8820  -37.4930 H   0  0  0  0  0  0  0  0  0  0  0  0
  2  1  1  0  0  0  0
  2  7  1  0  0  0  0
  3  2  2  0  0  0  0
  4  3  1  0  0  0  0
  4  5  2  0  0  0  0
  5  6  1  0  0  0  0
  6  7  2  0  0  0  0
  6  8  1  0  0  0  0
  7 34  1  0  0  0  0
  8  9  1  0  0  0  0
  9 10  1  0  0  0  0
 10 11  1  0  0  0  0
 11 13  1  0  0  0  0
 11 12  2  0  0  0  0
 13 14  1  0  0  0  0
 13 38  1  0  0  0  0
 14 18  1  0  0  0  0
 15 16  1  0  0  0  0
 15 14  1  0  0  0  0
 16 17  1  0  0  0  0
 17 18  2  0  0  0  0
 18 19  1  0  0  0  0
 19 20  2  0  0  0  0
 19 23  1  0  0  0  0
 20 21  1  0  0  0  0
 21 22  1  0  0  0  0
 23 22  2  0  0  0  0
 24 23  1  0  0  0  0
 24 40  1  0  0  0  0
 25 42  1  0  0  0  0
 25 16  2  0  0  0  0
 26 25  1  0  0  0  0
 27 26  2  0  0  0  0
 27 28  1  0  0  0  0
 28 15  2  0  0  0  0
 29 30  1  0  0  0  0
 29  4  1  0  0  0  0
 30 47  1  0  0  0  0
 30 31  1  0  0  0  0
 31 49  1  0  0  0  0
 31 48  1  0  0  0  0
 32  3  1  0  0  0  0
 33  5  1  0  0  0  0
 35  8  1  0  0  0  0
 36 10  1  0  0  0  0
 37 13  1  0  0  0  0
 39 24  1  0  0  0  0
 41 24  1  0  0  0  0
 43 26  1  0  0  0  0
 44 27  1  0  0  0  0
 45 28  1  0  0  0  0
 46 30  1  0  0  0  0
 50 31  1  0  0  0  0
M  END
>  <Pose>
1

>  <Score>
-8.26

$$$$
