
 OpenBabel03222201593D

 56 59  0  0  0  0  0  0  0  0999 V2000
  -17.8920   -1.0850  -25.6340 B   0  0  0  0  0  0  0  0  0  0  0  0
  -18.7620   -2.0840  -27.0040 C   0  0  0  0  0  0  0  0  0  0  0  0
  -19.4770   -3.2420  -26.7200 C   0  0  0  0  0  0  0  0  0  0  0  0
  -20.1080   -3.9680  -27.7040 C   0  0  0  0  0  0  0  0  0  0  0  0
  -20.0070   -3.5080  -28.9960 C   0  0  0  0  0  0  0  0  0  0  0  0
  -19.3030   -2.3570  -29.3150 C   0  0  0  0  0  0  0  0  0  0  0  0
  -18.6870   -1.6620  -28.2980 C   0  0  0  0  0  0  0  0  0  0  0  0
  -19.1790   -1.8470  -30.6710 C   0  0  0  0  0  0  0  0  0  0  0  0
  -18.1490   -1.1870  -31.0540 N   0  0  0  0  0  0  0  0  0  0  0  0
  -17.9500   -0.6700  -32.3110 N   0  0  0  0  0  0  0  0  0  0  0  0
  -18.8420    0.2020  -32.9740 C   0  0  0  0  0  0  0  0  0  0  0  0
  -18.5930    1.4230  -32.9960 O   0  0  0  0  0  0  0  0  0  0  0  0
  -20.0460   -0.2860  -33.6330 C   0  0  0  0  0  0  0  0  0  0  0  0
  -20.6940   -1.4440  -33.4500 N   0  0  0  0  0  0  0  0  0  0  0  0
  -21.7370   -1.4940  -34.2430 N   0  0  0  0  0  0  0  0  0  0  0  0
  -21.8230   -0.3760  -34.9850 N   0  0  0  0  0  0  0  0  0  0  0  0
  -20.7870    0.3870  -34.6240 C   0  0  0  0  0  0  0  0  0  0  0  0
  -20.4160    1.7230  -35.0930 C   0  0  0  0  0  0  0  0  0  0  0  0
  -21.4450    2.4970  -35.7410 N   0  0  0  0  0  0  0  0  0  0  0  0
  -21.8070    3.5250  -34.7570 C   0  0  0  0  0  0  0  0  0  0  0  0
  -20.7090    4.4350  -34.3730 C   0  0  0  0  0  0  0  0  0  0  0  0
  -19.8340    4.6480  -35.4260 O   0  0  0  0  0  0  0  0  0  0  0  0
  -20.5530    4.6090  -36.6020 C   0  0  0  0  0  0  0  0  0  0  0  0
  -20.8850    3.1640  -36.9180 C   0  0  0  0  0  0  0  0  0  0  0  0
  -22.8750   -0.1410  -35.9270 C   0  0  0  0  0  0  0  0  0  0  0  0
  -23.9250    0.6900  -35.8300 N   0  0  0  0  0  0  0  0  0  0  0  0
  -24.6450    0.6020  -36.9230 O   0  0  0  0  0  0  0  0  0  0  0  0
  -24.1130   -0.2620  -37.7530 N   0  0  0  0  0  0  0  0  0  0  0  0
  -23.0070   -0.7410  -37.1560 C   0  0  0  0  0  0  0  0  0  0  0  0
  -22.1520   -1.7040  -37.7500 N   0  0  0  0  0  0  0  0  0  0  0  0
  -20.7960   -5.1030  -27.3500 O   0  0  0  0  0  0  0  0  0  0  0  0
  -21.8910   -5.1860  -26.4980 C   0  0  0  0  0  0  0  0  0  0  0  0
  -21.8500   -6.3170  -25.5230 C   0  0  0  0  0  0  0  0  0  0  0  0
  -19.5440   -3.6600  -25.3940 O   0  0  0  0  0  0  0  0  0  0  0  0
  -20.4940   -4.0620  -29.7820 H   0  0  0  0  0  0  0  0  0  0  0  0
  -18.1270   -0.7510  -28.5340 H   0  0  0  0  0  0  0  0  0  0  0  0
  -19.9750   -2.0230  -31.3830 H   0  0  0  0  0  0  0  0  0  0  0  0
  -17.0590   -0.9510  -32.8120 H   0  0  0  0  0  0  0  0  0  0  0  0
  -19.5640    1.6400  -35.8190 H   0  0  0  0  0  0  0  0  0  0  0  0
  -19.9610    2.3270  -34.2470 H   0  0  0  0  0  0  0  0  0  0  0  0
  -22.6450    4.0800  -35.1810 H   0  0  0  0  0  0  0  0  0  0  0  0
  -22.1030    2.9330  -33.8450 H   0  0  0  0  0  0  0  0  0  0  0  0
  -20.0970    3.9170  -33.5770 H   0  0  0  0  0  0  0  0  0  0  0  0
  -21.0470    5.3830  -33.9060 H   0  0  0  0  0  0  0  0  0  0  0  0
  -19.9840    4.9930  -37.4730 H   0  0  0  0  0  0  0  0  0  0  0  0
  -21.4940    5.1730  -36.4510 H   0  0  0  0  0  0  0  0  0  0  0  0
  -19.9470    2.6830  -37.2250 H   0  0  0  0  0  0  0  0  0  0  0  0
  -21.6480    3.2020  -37.7120 H   0  0  0  0  0  0  0  0  0  0  0  0
  -21.4020   -1.4740  -38.4330 H   0  0  0  0  0  0  0  0  0  0  0  0
  -22.2460   -2.7260  -37.5150 H   0  0  0  0  0  0  0  0  0  0  0  0
  -22.0430   -4.2320  -25.9310 H   0  0  0  0  0  0  0  0  0  0  0  0
  -22.8030   -5.3180  -27.1340 H   0  0  0  0  0  0  0  0  0  0  0  0
  -22.7150   -7.0260  -25.6590 H   0  0  0  0  0  0  0  0  0  0  0  0
  -21.8560   -5.9940  -24.4560 H   0  0  0  0  0  0  0  0  0  0  0  0
  -20.9410   -6.9300  -25.7160 H   0  0  0  0  0  0  0  0  0  0  0  0
  -19.9930   -4.5380  -25.1650 H   0  0  0  0  0  0  0  0  0  0  0  0
  2  3  1  0  0  0  0
  2  1  1  0  0  0  0
  3 34  1  0  0  0  0
  4 31  1  0  0  0  0
  4  3  2  0  0  0  0
  5  4  1  0  0  0  0
  6  5  2  0  0  0  0
  6  7  1  0  0  0  0
  7  2  2  0  0  0  0
  8  6  1  0  0  0  0
  9  8  2  0  0  0  0
 10  9  1  0  0  0  0
 11 10  1  0  0  0  0
 12 11  2  0  0  0  0
 13 14  1  0  0  0  0
 13 11  1  0  0  0  0
 15 14  2  0  0  0  0
 16 17  1  0  0  0  0
 16 15  1  0  0  0  0
 17 13  2  0  0  0  0
 18 17  1  0  0  0  0
 18 40  1  0  0  0  0
 19 18  1  0  0  0  0
 19 20  1  0  0  0  0
 20 21  1  0  0  0  0
 20 42  1  0  0  0  0
 21 44  1  0  0  0  0
 21 43  1  0  0  0  0
 22 21  1  0  0  0  0
 23 46  1  0  0  0  0
 23 22  1  0  0  0  0
 24 23  1  0  0  0  0
 24 19  1  0  0  0  0
 25 26  2  0  0  0  0
 25 16  1  0  0  0  0
 27 26  1  0  0  0  0
 28 29  2  0  0  0  0
 28 27  1  0  0  0  0
 29 25  1  0  0  0  0
 30 50  1  0  0  0  0
 30 29  1  0  0  0  0
 31 32  1  0  0  0  0
 32 51  1  0  0  0  0
 32 33  1  0  0  0  0
 33 54  1  0  0  0  0
 34 56  1  0  0  0  0
 35  5  1  0  0  0  0
 36  7  1  0  0  0  0
 37  8  1  0  0  0  0
 38 10  1  0  0  0  0
 39 18  1  0  0  0  0
 41 20  1  0  0  0  0
 45 23  1  0  0  0  0
 47 24  1  0  0  0  0
 48 24  1  0  0  0  0
 49 30  1  0  0  0  0
 52 32  1  0  0  0  0
 53 33  1  0  0  0  0
 55 33  1  0  0  0  0
M  END
>  <Pose>
1

>  <Score>
-8.20

$$$$
