
 OpenBabel03222201593D

 53 56  0  0  0  0  0  0  0  0999 V2000
  -16.1270    6.5690  -33.1700 B   0  0  0  0  0  0  0  0  0  0  0  0
  -17.6660    6.2290  -32.0550 C   0  0  0  0  0  0  0  0  0  0  0  0
  -18.9100    6.6130  -32.5070 C   0  0  0  0  0  0  0  0  0  0  0  0
  -20.0200    6.3670  -31.7470 C   0  0  0  0  0  0  0  0  0  0  0  0
  -19.8450    5.7370  -30.5370 C   0  0  0  0  0  0  0  0  0  0  0  0
  -18.6200    5.3330  -30.0360 C   0  0  0  0  0  0  0  0  0  0  0  0
  -17.4900    5.6200  -30.8870 C   0  0  0  0  0  0  0  0  0  0  0  0
  -18.3360    4.7070  -28.8550 C   0  0  0  0  0  0  0  0  0  0  0  0
  -17.3850    4.4460  -27.9390 N   0  0  0  0  0  0  0  0  0  0  0  0
  -18.3330    3.5860  -26.9850 N   0  0  0  0  0  0  0  0  0  0  0  0
  -17.4460    2.5340  -26.5420 C   0  0  0  0  0  0  0  0  0  0  0  0
  -16.2680    2.5290  -26.8950 O   0  0  0  0  0  0  0  0  0  0  0  0
  -17.9110    1.5320  -25.6090 C   0  0  0  0  0  0  0  0  0  0  0  0
  -17.7120    1.2680  -24.3660 N   0  0  0  0  0  0  0  0  0  0  0  0
  -17.9630   -0.0080  -24.1290 N   0  0  0  0  0  0  0  0  0  0  0  0
  -18.3450   -0.5840  -25.2600 N   0  0  0  0  0  0  0  0  0  0  0  0
  -18.3720    0.2770  -26.2670 C   0  0  0  0  0  0  0  0  0  0  0  0
  -18.5610    0.1780  -27.6860 C   0  0  0  0  0  0  0  0  0  0  0  0
  -19.7420   -0.5370  -28.1740 N   0  0  0  0  0  0  0  0  0  0  0  0
  -19.4060   -1.7570  -28.8330 C   0  0  0  0  0  0  0  0  0  0  0  0
  -18.6850   -1.5910  -30.1400 C   0  0  0  0  0  0  0  0  0  0  0  0
  -19.5730   -1.1530  -31.1070 O   0  0  0  0  0  0  0  0  0  0  0  0
  -20.6550   -0.4880  -30.5190 C   0  0  0  0  0  0  0  0  0  0  0  0
  -20.1770    0.3210  -29.3610 C   0  0  0  0  0  0  0  0  0  0  0  0
  -18.2750   -2.0240  -25.4020 C   0  0  0  0  0  0  0  0  0  0  0  0
  -19.1390   -2.9500  -25.4530 N   0  0  0  0  0  0  0  0  0  0  0  0
  -18.5850   -4.1600  -25.5400 O   0  0  0  0  0  0  0  0  0  0  0  0
  -17.3140   -3.9750  -25.5460 N   0  0  0  0  0  0  0  0  0  0  0  0
  -17.0070   -2.6800  -25.4630 C   0  0  0  0  0  0  0  0  0  0  0  0
  -15.7340   -2.0870  -25.4220 N   0  0  0  0  0  0  0  0  0  0  0  0
  -21.3020    6.7260  -32.1800 O   0  0  0  0  0  0  0  0  0  0  0  0
  -21.9590    7.8430  -31.5460 C   0  0  0  0  0  0  0  0  0  0  0  0
  -19.0270    7.2550  -33.7440 O   0  0  0  0  0  0  0  0  0  0  0  0
  -20.7480    5.5320  -29.9350 H   0  0  0  0  0  0  0  0  0  0  0  0
  -16.4990    5.3060  -30.5470 H   0  0  0  0  0  0  0  0  0  0  0  0
  -19.2830    4.1270  -28.4170 H   0  0  0  0  0  0  0  0  0  0  0  0
  -19.1900    3.9480  -26.9240 H   0  0  0  0  0  0  0  0  0  0  0  0
  -18.3390    1.0280  -28.3380 H   0  0  0  0  0  0  0  0  0  0  0  0
  -17.7220   -0.5650  -28.0810 H   0  0  0  0  0  0  0  0  0  0  0  0
  -18.8000   -2.3690  -28.1540 H   0  0  0  0  0  0  0  0  0  0  0  0
  -20.3520   -2.3500  -29.0730 H   0  0  0  0  0  0  0  0  0  0  0  0
  -17.7610   -1.0160  -30.0760 H   0  0  0  0  0  0  0  0  0  0  0  0
  -18.3840   -2.6260  -30.4780 H   0  0  0  0  0  0  0  0  0  0  0  0
  -21.5560   -1.0550  -30.3770 H   0  0  0  0  0  0  0  0  0  0  0  0
  -20.9380    0.2950  -31.3160 H   0  0  0  0  0  0  0  0  0  0  0  0
  -20.9180    1.0500  -29.0640 H   0  0  0  0  0  0  0  0  0  0  0  0
  -19.2100    0.7700  -29.7440 H   0  0  0  0  0  0  0  0  0  0  0  0
  -15.3690   -1.5940  -24.5880 H   0  0  0  0  0  0  0  0  0  0  0  0
  -15.0590   -2.1270  -26.2580 H   0  0  0  0  0  0  0  0  0  0  0  0
  -22.9370    8.0470  -31.9980 H   0  0  0  0  0  0  0  0  0  0  0  0
  -22.0790    7.5620  -30.4390 H   0  0  0  0  0  0  0  0  0  0  0  0
  -21.2950    8.7010  -31.6130 H   0  0  0  0  0  0  0  0  0  0  0  0
  -18.4490    8.1060  -33.9080 H   0  0  0  0  0  0  0  0  0  0  0  0
  1  2  1  0  0  0  0
  2  7  1  0  0  0  0
  3  2  2  0  0  0  0
  3  4  1  0  0  0  0
  4  5  2  0  0  0  0
  5  6  1  0  0  0  0
  5 34  1  0  0  0  0
  6  8  1  0  0  0  0
  7 35  1  0  0  0  0
  7  6  2  0  0  0  0
  8 36  1  0  0  0  0
  8  9  1  0  0  0  0
  9 10  1  0  0  0  0
 10 37  1  0  0  0  0
 10 11  1  0  0  0  0
 11 13  1  0  0  0  0
 12 11  2  0  0  0  0
 13 14  1  0  0  0  0
 14 15  2  0  0  0  0
 16 15  1  0  0  0  0
 17 13  2  0  0  0  0
 17 16  1  0  0  0  0
 18 17  1  0  0  0  0
 19 18  1  0  0  0  0
 20 19  1  0  0  0  0
 20 40  1  0  0  0  0
 21 42  1  0  0  0  0
 21 20  1  0  0  0  0
 22 23  1  0  0  0  0
 22 21  1  0  0  0  0
 23 44  1  0  0  0  0
 23 24  1  0  0  0  0
 24 46  1  0  0  0  0
 24 19  1  0  0  0  0
 25 16  1  0  0  0  0
 26 25  2  0  0  0  0
 27 26  1  0  0  0  0
 28 27  1  0  0  0  0
 28 29  2  0  0  0  0
 29 30  1  0  0  0  0
 29 25  1  0  0  0  0
 30 48  1  0  0  0  0
 31  4  1  0  0  0  0
 31 32  1  0  0  0  0
 32 51  1  0  0  0  0
 33  3  1  0  0  0  0
 38 18  1  0  0  0  0
 39 18  1  0  0  0  0
 41 20  1  0  0  0  0
 43 21  1  0  0  0  0
 45 23  1  0  0  0  0
 47 24  1  0  0  0  0
 49 30  1  0  0  0  0
 50 32  1  0  0  0  0
 52 32  1  0  0  0  0
 53 33  1  0  0  0  0
M  END
>  <Pose>
1

>  <Score>
-7.26

$$$$
