
 OpenBabel03222201593D

 64 67  0  0  1  0  0  0  0  0999 V2000
  -23.1630   -2.1430  -38.3950 B   0  0  0  0  0  0  0  0  0  0  0  0
  -21.9420   -0.8180  -37.8040 C   0  0  0  0  0  0  0  0  0  0  0  0
  -21.0670   -0.2400  -38.7360 C   0  0  0  0  0  0  0  0  0  0  0  0
  -20.1720    0.7300  -38.3030 C   0  0  0  0  0  0  0  0  0  0  0  0
  -20.1760    1.0820  -36.9960 C   0  0  0  0  0  0  0  0  0  0  0  0
  -21.0410    0.5100  -36.0760 C   0  0  0  0  0  0  0  0  0  0  0  0
  -21.9370   -0.4510  -36.4730 C   0  0  0  0  0  0  0  0  0  0  0  0
  -20.9230    0.9920  -34.6750 C   0  0  1  0  0  0  0  0  0  0  0  0
  -22.0710    1.8350  -34.4150 N   0  0  0  0  0  0  0  0  0  0  0  0
  -22.9980    1.1990  -33.5830 C   0  0  0  0  0  0  0  0  0  0  0  0
  -24.1280    1.6180  -33.2900 O   0  0  0  0  0  0  0  0  0  0  0  0
  -22.3960   -0.0520  -33.1220 C   0  0  0  0  0  0  0  0  0  0  0  0
  -22.9930   -0.8510  -32.3570 O   0  0  0  0  0  0  0  0  0  0  0  0
  -21.0720   -0.1500  -33.7000 C   0  0  0  0  0  0  0  0  0  0  0  0
  -20.2050   -1.0910  -33.4430 C   0  0  0  0  0  0  0  0  0  0  0  0
  -18.9920   -1.1080  -34.1130 O   0  0  0  0  0  0  0  0  0  0  0  0
  -20.4610   -2.1240  -32.4700 C   0  0  0  0  0  0  0  0  0  0  0  0
  -20.0600   -1.8120  -31.1640 C   0  0  0  0  0  0  0  0  0  0  0  0
  -20.2740   -2.6870  -30.1280 C   0  0  0  0  0  0  0  0  0  0  0  0
  -20.8900   -3.8950  -30.3600 C   0  0  0  0  0  0  0  0  0  0  0  0
  -21.2760   -4.1810  -31.6570 C   0  0  0  0  0  0  0  0  0  0  0  0
  -21.0710   -3.3140  -32.7090 C   0  0  0  0  0  0  0  0  0  0  0  0
  -20.9780   -4.5850  -29.1330 O   0  0  0  0  0  0  0  0  0  0  0  0
  -20.0750   -3.9820  -28.2120 C   0  0  2  0  0  0  0  0  0  0  0  0
  -19.9190   -2.5520  -28.6780 C   0  0  0  0  0  0  0  0  0  0  0  0
  -18.7030   -4.6290  -28.2530 C   0  0  0  0  0  0  0  0  0  0  0  0
  -22.1760    3.1600  -34.9890 C   0  0  0  0  0  0  0  0  0  0  0  0
  -21.0280    4.0570  -34.7940 C   0  0  0  0  0  0  0  0  0  0  0  0
  -20.9010    5.2350  -35.6860 C   0  0  0  0  0  0  0  0  0  0  0  0
  -21.7450    6.3470  -35.3240 N   0  0  0  0  0  4  0  0  0  0  0  0
  -22.0910    7.1000  -36.5380 C   0  0  0  0  0  0  0  0  0  0  0  0
  -20.9540    7.2320  -34.4870 C   0  0  0  0  0  0  0  0  0  0  0  0
  -19.2980    1.3090  -39.2280 O   0  0  0  0  0  0  0  0  0  0  0  0
  -19.7320    2.0670  -40.3240 C   0  0  0  0  0  0  0  0  0  0  0  0
  -21.0740   -0.6070  -40.0580 O   0  0  0  0  0  0  0  0  0  0  0  0
  -19.4550    1.8520  -36.6880 H   0  0  0  0  0  0  0  0  0  0  0  0
  -22.6070   -0.8850  -35.7380 H   0  0  0  0  0  0  0  0  0  0  0  0
  -19.9820    1.5510  -34.4990 H   0  0  0  0  0  0  0  0  0  0  0  0
  -19.5650   -0.8510  -30.9420 H   0  0  0  0  0  0  0  0  0  0  0  0
  -21.7710   -5.1390  -31.8710 H   0  0  0  0  0  0  0  0  0  0  0  0
  -21.3970   -3.5350  -33.7180 H   0  0  0  0  0  0  0  0  0  0  0  0
  -20.4490   -3.9710  -27.1790 H   0  0  0  0  0  0  0  0  0  0  0  0
  -18.8550   -2.1900  -28.5610 H   0  0  0  0  0  0  0  0  0  0  0  0
  -20.5500   -1.8360  -28.1460 H   0  0  0  0  0  0  0  0  0  0  0  0
  -18.5950   -5.1930  -29.2110 H   0  0  0  0  0  0  0  0  0  0  0  0
  -18.5330   -5.2680  -27.3590 H   0  0  0  0  0  0  0  0  0  0  0  0
  -17.9320   -3.8490  -28.2510 H   0  0  0  0  0  0  0  0  0  0  0  0
  -22.3640    3.0420  -36.0760 H   0  0  0  0  0  0  0  0  0  0  0  0
  -23.1320    3.6470  -34.6210 H   0  0  0  0  0  0  0  0  0  0  0  0
  -20.0860    3.4470  -34.9220 H   0  0  0  0  0  0  0  0  0  0  0  0
  -20.9810    4.4070  -33.7460 H   0  0  0  0  0  0  0  0  0  0  0  0
  -19.8810    5.6120  -35.8370 H   0  0  0  0  0  0  0  0  0  0  0  0
  -21.2500    4.9100  -36.7050 H   0  0  0  0  0  0  0  0  0  0  0  0
  -22.5900    6.1020  -34.8000 H   0  0  0  0  0  0  0  0  0  0  0  0
  -22.8150    6.5190  -37.1700 H   0  0  0  0  0  0  0  0  0  0  0  0
  -22.5760    8.0660  -36.2950 H   0  0  0  0  0  0  0  0  0  0  0  0
  -21.1480    7.3010  -37.1040 H   0  0  0  0  0  0  0  0  0  0  0  0
  -21.4580    7.4590  -33.5300 H   0  0  0  0  0  0  0  0  0  0  0  0
  -20.6930    8.1690  -35.0270 H   0  0  0  0  0  0  0  0  0  0  0  0
  -19.9680    6.7630  -34.2120 H   0  0  0  0  0  0  0  0  0  0  0  0
  -20.4640    1.5110  -40.9650 H   0  0  0  0  0  0  0  0  0  0  0  0
  -20.1970    3.0090  -39.9120 H   0  0  0  0  0  0  0  0  0  0  0  0
  -18.8580    2.3550  -40.9180 H   0  0  0  0  0  0  0  0  0  0  0  0
  -20.2400   -0.9000  -40.5030 H   0  0  0  0  0  0  0  0  0  0  0  0
  1  2  1  0  0  0  0
  2  7  1  0  0  0  0
  3  4  1  0  0  0  0
  3  2  2  0  0  0  0
  4  5  2  0  0  0  0
  5 36  1  0  0  0  0
  5  6  1  0  0  0  0
  6  8  1  0  0  0  0
  7  6  2  0  0  0  0
  7 37  1  0  0  0  0
  8 38  1  1  0  0  0
  8  9  1  0  0  0  0
  8 14  1  0  0  0  0
  9 10  1  0  0  0  0
 10 11  2  0  0  0  0
 10 12  1  0  0  0  0
 12 13  2  0  0  0  0
 14 15  2  0  0  0  0
 14 12  1  0  0  0  0
 15 17  1  0  0  0  0
 16 15  1  0  0  0  0
 17 18  1  0  0  0  0
 18 39  1  0  0  0  0
 18 19  2  0  0  0  0
 19 25  1  0  0  0  0
 20 19  1  0  0  0  0
 20 23  1  0  0  0  0
 21 20  2  0  0  0  0
 22 17  2  0  0  0  0
 22 21  1  0  0  0  0
 23 24  1  0  0  0  0
 24 42  1  1  0  0  0
 25 43  1  0  0  0  0
 25 24  1  0  0  0  0
 25 44  1  0  0  0  0
 26 47  1  0  0  0  0
 26 24  1  0  0  0  0
 26 46  1  0  0  0  0
 27 28  1  0  0  0  0
 27 49  1  0  0  0  0
 27  9  1  0  0  0  0
 28 51  1  0  0  0  0
 29 30  1  0  0  0  0
 29 28  1  0  0  0  0
 30 54  1  0  0  0  0
 30 32  1  0  0  0  0
 31 56  1  0  0  0  0
 31 30  1  0  0  0  0
 32 60  1  0  0  0  0
 32 58  1  0  0  0  0
 33  4  1  0  0  0  0
 34 62  1  0  0  0  0
 34 33  1  0  0  0  0
 35  3  1  0  0  0  0
 40 21  1  0  0  0  0
 41 22  1  0  0  0  0
 45 26  1  0  0  0  0
 48 27  1  0  0  0  0
 50 28  1  0  0  0  0
 52 29  1  0  0  0  0
 53 29  1  0  0  0  0
 55 31  1  0  0  0  0
 57 31  1  0  0  0  0
 59 32  1  0  0  0  0
 61 34  1  0  0  0  0
 63 34  1  0  0  0  0
 64 35  1  0  0  0  0
M  END
>  <Pose>
1

>  <Score>
-6.25

$$$$
