
 OpenBabel03222201593D

 33 36  0  0  1  0  0  0  0  0999 V2000
  -19.8470   -0.3050  -30.5470 B   0  0  0  0  0  0  0  0  0  0  0  0
  -20.1850   -2.1590  -30.1460 C   0  0  0  0  0  0  0  0  0  0  0  0
  -20.4760   -2.9840  -31.2080 C   0  0  0  0  0  0  0  0  0  0  0  0
  -20.7140   -4.3170  -30.8910 C   0  0  0  0  0  0  0  0  0  0  0  0
  -20.6630   -4.7890  -29.5930 C   0  0  0  0  0  0  0  0  0  0  0  0
  -20.3660   -3.9260  -28.5440 C   0  0  0  0  0  0  0  0  0  0  0  0
  -20.1310   -2.6110  -28.8460 C   0  0  0  0  0  0  0  0  0  0  0  0
  -20.5370   -2.5440  -32.5570 N   0  0  0  0  0  0  0  0  0  0  0  0
  -19.5730   -1.8250  -33.3090 C   0  0  0  0  0  0  0  0  0  0  0  0
  -18.4290   -1.5530  -32.9050 O   0  0  0  0  0  0  0  0  0  0  0  0
  -20.1090   -1.4420  -34.6360 C   0  0  2  0  0  0  0  0  0  0  0  0
  -20.2390    0.0300  -34.8170 C   0  0  1  0  0  0  0  0  0  0  0  0
  -21.5800    0.2400  -35.2320 O   0  0  0  0  0  0  0  0  0  0  0  0
  -22.1860   -0.4830  -34.1720 C   0  0  1  0  0  0  0  0  0  0  0  0
  -21.5880   -1.8520  -34.5180 C   0  0  2  0  0  0  0  0  0  0  0  0
  -21.6790   -2.7860  -33.3850 C   0  0  0  0  0  0  0  0  0  0  0  0
  -22.5620   -3.6400  -33.1550 O   0  0  0  0  0  0  0  0  0  0  0  0
  -21.5170    0.1320  -33.0070 C   0  0  0  0  0  0  0  0  0  0  0  0
  -20.3610    0.6260  -33.4500 C   0  0  0  0  0  0  0  0  0  0  0  0
  -19.2570    0.7000  -35.6830 C   0  0  0  0  0  0  0  0  0  0  0  0
  -18.6860   -0.2690  -36.5280 O   0  0  0  0  0  0  0  0  0  0  0  0
  -20.9450   -4.9880  -31.7120 H   0  0  0  0  0  0  0  0  0  0  0  0
  -20.8540   -5.8440  -29.3620 H   0  0  0  0  0  0  0  0  0  0  0  0
  -20.3330   -4.3280  -27.5370 H   0  0  0  0  0  0  0  0  0  0  0  0
  -19.8980   -1.9220  -28.0540 H   0  0  0  0  0  0  0  0  0  0  0  0
  -19.6190   -1.9610  -35.4680 H   0  0  0  0  0  0  0  0  0  0  0  0
  -23.2560   -0.4510  -34.1750 H   0  0  0  0  0  0  0  0  0  0  0  0
  -22.0020   -2.2010  -35.4610 H   0  0  0  0  0  0  0  0  0  0  0  0
  -21.8260    0.2170  -31.9580 H   0  0  0  0  0  0  0  0  0  0  0  0
  -19.6670    1.2930  -32.9610 H   0  0  0  0  0  0  0  0  0  0  0  0
  -18.3900    1.1080  -35.0970 H   0  0  0  0  0  0  0  0  0  0  0  0
  -19.6830    1.5330  -36.2540 H   0  0  0  0  0  0  0  0  0  0  0  0
  -18.3380   -1.0270  -35.9730 H   0  0  0  0  0  0  0  0  0  0  0  0
  1  2  1  0  0  0  0
  2  7  1  0  0  0  0
  3  4  1  0  0  0  0
  3  2  2  0  0  0  0
  4  5  2  0  0  0  0
  5 23  1  0  0  0  0
  5  6  1  0  0  0  0
  6 24  1  0  0  0  0
  7  6  2  0  0  0  0
  7 25  1  0  0  0  0
  8  3  1  0  0  0  0
  9 10  2  0  0  0  0
  9  8  1  0  0  0  0
 11 26  1  6  0  0  0
 11 15  1  0  0  0  0
 11  9  1  0  0  0  0
 12 20  1  6  0  0  0
 12 11  1  0  0  0  0
 12 19  1  0  0  0  0
 13 12  1  0  0  0  0
 13 14  1  0  0  0  0
 14 27  1  1  0  0  0
 14 18  1  0  0  0  0
 15 28  1  6  0  0  0
 15 14  1  0  0  0  0
 15 16  1  0  0  0  0
 16 17  2  0  0  0  0
 16  8  1  0  0  0  0
 18 29  1  0  0  0  0
 19 18  2  0  0  0  0
 19 30  1  0  0  0  0
 20 31  1  0  0  0  0
 21 33  1  0  0  0  0
 21 20  1  0  0  0  0
 22  4  1  0  0  0  0
 32 20  1  0  0  0  0
M  END
>  <Pose>
1

>  <Score>
-4.94

$$$$
