
 OpenBabel03222201593D

 36 39  0  0  1  0  0  0  0  0999 V2000
  -19.0310   -0.4940  -31.5050 B   0  0  0  0  0  0  0  0  0  0  0  0
  -19.9460   -2.1340  -31.3460 C   0  0  0  0  0  0  0  0  0  0  0  0
  -20.6490   -2.6830  -32.4050 C   0  0  0  0  0  0  0  0  0  0  0  0
  -21.2750   -3.8950  -32.1420 C   0  0  0  0  0  0  0  0  0  0  0  0
  -21.2180   -4.5310  -30.9280 C   0  0  0  0  0  0  0  0  0  0  0  0
  -20.5230   -3.9750  -29.9010 C   0  0  0  0  0  0  0  0  0  0  0  0
  -19.8880   -2.7810  -30.1090 C   0  0  0  0  0  0  0  0  0  0  0  0
  -20.7290   -2.0540  -33.6740 N   0  0  0  0  0  0  0  0  0  0  0  0
  -19.7640   -1.1050  -34.2620 C   0  0  0  0  0  0  0  0  0  0  0  0
  -20.6180   -0.3360  -35.1590 C   0  0  2  0  0  0  0  0  0  0  0  0
  -21.3040    0.7450  -34.5810 O   0  0  0  0  0  0  0  0  0  0  0  0
  -22.1070    1.0300  -35.7170 C   0  0  2  0  0  0  0  0  0  0  0  0
  -22.8760   -0.2980  -35.7530 C   0  0  1  0  0  0  0  0  0  0  0  0
  -21.7360   -1.2640  -35.6650 C   0  0  2  0  0  0  0  0  0  0  0  0
  -21.7930   -2.2490  -34.5980 C   0  0  0  0  0  0  0  0  0  0  0  0
  -22.6470   -3.1530  -34.4860 O   0  0  0  0  0  0  0  0  0  0  0  0
  -23.6710   -0.3140  -34.4840 C   0  0  0  0  0  0  0  0  0  0  0  0
  -24.7110   -0.9750  -34.3490 O   0  0  0  0  0  0  0  0  0  0  0  0
  -23.2200    0.4470  -33.4130 O   0  0  0  0  0  0  0  0  0  0  0  0
  -23.8660    1.6970  -33.1420 C   0  0  0  0  0  0  0  0  0  0  0  0
  -21.0610    1.0960  -36.7800 C   0  0  0  0  0  0  0  0  0  0  0  0
  -20.0550    0.3080  -36.3410 C   0  0  0  0  0  0  0  0  0  0  0  0
  -21.8430   -4.3880  -32.9180 H   0  0  0  0  0  0  0  0  0  0  0  0
  -21.7220   -5.4750  -30.7680 H   0  0  0  0  0  0  0  0  0  0  0  0
  -20.4690   -4.4670  -28.9300 H   0  0  0  0  0  0  0  0  0  0  0  0
  -19.3370   -2.3430  -29.2890 H   0  0  0  0  0  0  0  0  0  0  0  0
  -19.4010   -0.4790  -33.4240 H   0  0  0  0  0  0  0  0  0  0  0  0
  -18.9230   -1.6100  -34.7490 H   0  0  0  0  0  0  0  0  0  0  0  0
  -22.7230    1.8950  -35.6120 H   0  0  0  0  0  0  0  0  0  0  0  0
  -23.4970   -0.3910  -36.6370 H   0  0  0  0  0  0  0  0  0  0  0  0
  -21.4570   -1.7000  -36.6450 H   0  0  0  0  0  0  0  0  0  0  0  0
  -23.5050    2.1290  -32.1960 H   0  0  0  0  0  0  0  0  0  0  0  0
  -24.9670    1.5800  -33.0820 H   0  0  0  0  0  0  0  0  0  0  0  0
  -23.6090    2.4350  -33.9430 H   0  0  0  0  0  0  0  0  0  0  0  0
  -21.1190    1.6640  -37.7030 H   0  0  0  0  0  0  0  0  0  0  0  0
  -19.0850    0.2210  -36.8040 H   0  0  0  0  0  0  0  0  0  0  0  0
  1  2  1  0  0  0  0
  2  7  1  0  0  0  0
  3  4  1  0  0  0  0
  3  2  2  0  0  0  0
  4  5  2  0  0  0  0
  5 24  1  0  0  0  0
  5  6  1  0  0  0  0
  6 25  1  0  0  0  0
  7  6  2  0  0  0  0
  7 26  1  0  0  0  0
  8  3  1  0  0  0  0
  9  8  1  0  0  0  0
  9 27  1  0  0  0  0
 10 22  1  6  0  0  0
 10 11  1  0  0  0  0
 10  9  1  0  0  0  0
 12 29  1  1  0  0  0
 12 11  1  0  0  0  0
 13 30  1  6  0  0  0
 13 12  1  0  0  0  0
 13 14  1  0  0  0  0
 13 17  1  0  0  0  0
 14 31  1  6  0  0  0
 14 10  1  0  0  0  0
 14 15  1  0  0  0  0
 15 16  2  0  0  0  0
 15  8  1  0  0  0  0
 17 18  2  0  0  0  0
 17 19  1  0  0  0  0
 19 20  1  0  0  0  0
 20 33  1  0  0  0  0
 20 32  1  0  0  0  0
 21 22  2  0  0  0  0
 21 12  1  0  0  0  0
 23  4  1  0  0  0  0
 28  9  1  0  0  0  0
 34 20  1  0  0  0  0
 35 21  1  0  0  0  0
 36 22  1  0  0  0  0
M  END
>  <Pose>
1

>  <Score>
-4.63

$$$$
