
 OpenBabel03222201593D

 35 38  0  0  0  0  0  0  0  0999 V2000
  -17.9090    7.6960  -30.3310 B   0  0  0  0  0  0  0  0  0  0  0  0
  -17.1870    6.3410  -29.2140 C   0  0  0  0  0  0  0  0  0  0  0  0
  -17.7290    5.8650  -28.0480 C   0  0  0  0  0  0  0  0  0  0  0  0
  -16.8900    4.9220  -27.5970 N   0  0  0  0  0  0  0  0  0  0  0  0
  -15.8740    4.8040  -28.4290 N   0  0  0  0  0  0  0  0  0  0  0  0
  -16.0160    5.6730  -29.4560 C   0  0  0  0  0  0  0  0  0  0  0  0
  -15.0680    5.8510  -30.6150 C   0  0  0  0  0  0  0  0  0  0  0  0
  -17.0870    4.1610  -26.3850 C   0  0  0  0  0  0  0  0  0  0  0  0
  -17.6670    2.8040  -26.6770 C   0  0  0  0  0  0  0  0  0  0  0  0
  -18.4070    2.4460  -27.7410 N   0  0  0  0  0  0  0  0  0  0  0  0
  -18.7350    1.1560  -27.6410 N   0  0  0  0  0  0  0  0  0  0  0  0
  -18.2080    0.6600  -26.5030 C   0  0  0  0  0  0  0  0  0  0  0  0
  -17.5580    1.6910  -25.9310 N   0  0  0  0  0  0  0  0  0  0  0  0
  -18.4170   -0.6680  -26.1860 C   0  0  0  0  0  0  0  0  0  0  0  0
  -19.1510   -1.5130  -26.9940 C   0  0  0  0  0  0  0  0  0  0  0  0
  -19.2000   -2.7460  -26.4530 N   0  0  0  0  0  0  0  0  0  0  0  0
  -18.5170   -2.7040  -25.3250 N   0  0  0  0  0  0  0  0  0  0  0  0
  -18.0190   -1.4490  -25.1200 C   0  0  0  0  0  0  0  0  0  0  0  0
  -19.8650   -3.9290  -26.9740 C   0  0  0  0  0  0  0  0  0  0  0  0
  -19.6590   -0.9780  -28.1200 N   0  0  0  0  0  0  0  0  0  0  0  0
  -19.4490    0.3300  -28.4250 C   0  0  0  0  0  0  0  0  0  0  0  0
  -19.0110    6.3380  -27.4360 C   0  0  0  0  0  0  0  0  0  0  0  0
  -14.8280    6.9220  -30.6760 H   0  0  0  0  0  0  0  0  0  0  0  0
  -15.5210    5.5370  -31.5610 H   0  0  0  0  0  0  0  0  0  0  0  0
  -14.1250    5.3160  -30.3820 H   0  0  0  0  0  0  0  0  0  0  0  0
  -17.7680    4.7210  -25.6870 H   0  0  0  0  0  0  0  0  0  0  0  0
  -16.1380    4.0130  -25.8440 H   0  0  0  0  0  0  0  0  0  0  0  0
  -17.4280   -1.1140  -24.2940 H   0  0  0  0  0  0  0  0  0  0  0  0
  -19.1670   -4.5800  -27.5520 H   0  0  0  0  0  0  0  0  0  0  0  0
  -20.4060   -4.4890  -26.1890 H   0  0  0  0  0  0  0  0  0  0  0  0
  -20.6570   -3.6160  -27.7120 H   0  0  0  0  0  0  0  0  0  0  0  0
  -19.8620    0.7630  -29.3410 H   0  0  0  0  0  0  0  0  0  0  0  0
  -19.7890    5.6250  -27.7280 H   0  0  0  0  0  0  0  0  0  0  0  0
  -19.2640    7.3450  -27.8210 H   0  0  0  0  0  0  0  0  0  0  0  0
  -18.9110    6.4570  -26.3280 H   0  0  0  0  0  0  0  0  0  0  0  0
  1  2  1  0  0  0  0
  2  3  2  0  0  0  0
  3  4  1  0  0  0  0
  3 22  1  0  0  0  0
  4  8  1  0  0  0  0
  5  4  1  0  0  0  0
  6  2  1  0  0  0  0
  6  5  2  0  0  0  0
  7 25  1  0  0  0  0
  7  6  1  0  0  0  0
  8 27  1  0  0  0  0
  8 26  1  0  0  0  0
  9  8  1  0  0  0  0
  9 13  1  0  0  0  0
 10 11  1  0  0  0  0
 10  9  2  0  0  0  0
 11 12  1  0  0  0  0
 12 14  1  0  0  0  0
 12 13  2  0  0  0  0
 14 18  1  0  0  0  0
 15 16  1  0  0  0  0
 15 14  2  0  0  0  0
 16 17  1  0  0  0  0
 17 18  2  0  0  0  0
 18 28  1  0  0  0  0
 19 16  1  0  0  0  0
 19 30  1  0  0  0  0
 20 15  1  0  0  0  0
 21 20  2  0  0  0  0
 21 11  1  0  0  0  0
 22 35  1  0  0  0  0
 23  7  1  0  0  0  0
 24  7  1  0  0  0  0
 29 19  1  0  0  0  0
 31 19  1  0  0  0  0
 32 21  1  0  0  0  0
 33 22  1  0  0  0  0
 34 22  1  0  0  0  0
M  END
>  <Pose>
1

>  <Score>
-6.11

$$$$
