
 OpenBabel03222201593D

 48 51  0  0  0  0  0  0  0  0999 V2000
  -22.9500    1.5000  -34.5120 B   0  0  0  0  0  0  0  0  0  0  0  0
  -21.5260    0.4560  -33.7960 C   0  0  0  0  0  0  0  0  0  0  0  0
  -21.6500   -0.8200  -33.3280 C   0  0  0  0  0  0  0  0  0  0  0  0
  -20.6030   -1.5550  -32.8150 C   0  0  0  0  0  0  0  0  0  0  0  0
  -19.3510   -0.9340  -32.7830 C   0  0  0  0  0  0  0  0  0  0  0  0
  -19.1670    0.3430  -33.2370 C   0  0  0  0  0  0  0  0  0  0  0  0
  -20.2610    1.0350  -33.7440 C   0  0  0  0  0  0  0  0  0  0  0  0
  -18.2830   -1.6510  -32.2780 O   0  0  0  0  0  0  0  0  0  0  0  0
  -17.2880   -1.0070  -31.5260 C   0  0  0  0  0  0  0  0  0  0  0  0
  -20.7560   -2.9190  -32.3370 C   0  0  0  0  0  0  0  0  0  0  0  0
  -20.5880   -3.3320  -31.1110 C   0  0  0  0  0  0  0  0  0  0  0  0
  -20.2320   -2.5160  -30.0490 O   0  0  0  0  0  0  0  0  0  0  0  0
  -20.1250   -3.2260  -28.8680 C   0  0  0  0  0  0  0  0  0  0  0  0
  -20.4010   -4.5580  -29.0770 C   0  0  0  0  0  0  0  0  0  0  0  0
  -20.3510   -5.4500  -28.0270 C   0  0  0  0  0  0  0  0  0  0  0  0
  -20.0190   -4.9960  -26.7680 C   0  0  0  0  0  0  0  0  0  0  0  0
  -19.7390   -3.6280  -26.5800 C   0  0  0  0  0  0  0  0  0  0  0  0
  -19.7850   -2.7290  -27.6020 C   0  0  0  0  0  0  0  0  0  0  0  0
  -19.5290   -1.3220  -27.4650 C   0  0  0  0  0  0  0  0  0  0  0  0
  -18.3420   -0.7150  -27.9110 N   0  0  0  0  0  4  0  0  0  0  0  0
  -18.5040    0.4760  -28.7000 C   0  0  0  0  0  0  0  0  0  0  0  0
  -18.7230    1.7280  -27.8880 C   0  0  0  0  0  0  0  0  0  0  0  0
  -18.8510    1.4920  -26.5260 O   0  0  0  0  0  0  0  0  0  0  0  0
  -17.6740    0.8680  -26.1250 C   0  0  0  0  0  0  0  0  0  0  0  0
  -17.4060   -0.4330  -26.8070 C   0  0  0  0  0  0  0  0  0  0  0  0
  -19.4170   -3.3120  -25.2510 O   0  0  0  0  0  0  0  0  0  0  0  0
  -20.7050   -4.6640  -30.5090 C   0  0  0  0  0  0  0  0  0  0  0  0
  -21.0120   -5.7070  -31.1260 O   0  0  0  0  0  0  0  0  0  0  0  0
  -22.6450   -1.2720  -33.3710 H   0  0  0  0  0  0  0  0  0  0  0  0
  -18.2090    0.8740  -33.2310 H   0  0  0  0  0  0  0  0  0  0  0  0
  -20.1260    2.0630  -34.1120 H   0  0  0  0  0  0  0  0  0  0  0  0
  -16.3290   -1.6100  -31.5670 H   0  0  0  0  0  0  0  0  0  0  0  0
  -17.5940   -0.9910  -30.4490 H   0  0  0  0  0  0  0  0  0  0  0  0
  -17.0090   -0.0070  -31.9170 H   0  0  0  0  0  0  0  0  0  0  0  0
  -21.0390   -3.6890  -33.0730 H   0  0  0  0  0  0  0  0  0  0  0  0
  -20.5740   -6.5020  -28.2040 H   0  0  0  0  0  0  0  0  0  0  0  0
  -19.9630   -5.6440  -25.9090 H   0  0  0  0  0  0  0  0  0  0  0  0
  -20.3770   -0.6890  -27.9100 H   0  0  0  0  0  0  0  0  0  0  0  0
  -19.6280   -0.9970  -26.3590 H   0  0  0  0  0  0  0  0  0  0  0  0
  -17.8050   -1.3970  -28.4850 H   0  0  0  0  0  0  0  0  0  0  0  0
  -17.5170    0.6210  -29.2340 H   0  0  0  0  0  0  0  0  0  0  0  0
  -19.2540    0.3480  -29.4800 H   0  0  0  0  0  0  0  0  0  0  0  0
  -17.8750    2.4660  -27.9950 H   0  0  0  0  0  0  0  0  0  0  0  0
  -19.6100    2.2690  -28.2720 H   0  0  0  0  0  0  0  0  0  0  0  0
  -17.8110    0.6280  -25.0290 H   0  0  0  0  0  0  0  0  0  0  0  0
  -16.8160    1.5960  -26.1940 H   0  0  0  0  0  0  0  0  0  0  0  0
  -17.4050   -1.3010  -26.1150 H   0  0  0  0  0  0  0  0  0  0  0  0
  -16.3770   -0.3890  -27.2210 H   0  0  0  0  0  0  0  0  0  0  0  0
  1  2  1  0  0  0  0
  2  7  2  0  0  0  0
  2  3  1  0  0  0  0
  3  4  2  0  0  0  0
  4  5  1  0  0  0  0
  4 10  1  0  0  0  0
  5  8  1  0  0  0  0
  6 30  1  0  0  0  0
  6  5  2  0  0  0  0
  7  6  1  0  0  0  0
  8  9  1  0  0  0  0
  9 33  1  0  0  0  0
 10 11  2  0  0  0  0
 11 27  1  0  0  0  0
 11 12  1  0  0  0  0
 12 13  1  0  0  0  0
 13 18  1  0  0  0  0
 14 13  2  0  0  0  0
 14 15  1  0  0  0  0
 15 16  2  0  0  0  0
 16 17  1  0  0  0  0
 16 37  1  0  0  0  0
 17 26  1  0  0  0  0
 18 19  1  0  0  0  0
 18 17  2  0  0  0  0
 19 39  1  0  0  0  0
 20 19  1  0  0  0  0
 20 25  1  0  0  0  0
 21 20  1  0  0  0  0
 21 22  1  0  0  0  0
 22 23  1  0  0  0  0
 23 24  1  0  0  0  0
 24 45  1  0  0  0  0
 25 24  1  0  0  0  0
 25 47  1  0  0  0  0
 27 14  1  0  0  0  0
 28 27  2  0  0  0  0
 29  3  1  0  0  0  0
 31  7  1  0  0  0  0
 32  9  1  0  0  0  0
 34  9  1  0  0  0  0
 35 10  1  0  0  0  0
 36 15  1  0  0  0  0
 38 19  1  0  0  0  0
 40 20  1  0  0  0  0
 41 21  1  0  0  0  0
 42 21  1  0  0  0  0
 43 22  1  0  0  0  0
 44 22  1  0  0  0  0
 46 24  1  0  0  0  0
 48 25  1  0  0  0  0
M  END
>  <Pose>
1

>  <Score>
-7.03

$$$$
