
 OpenBabel03222201593D

 54 57  0  0  0  0  0  0  0  0999 V2000
  -19.1800   -2.7380  -25.7230 B   0  0  0  0  0  0  0  0  0  0  0  0
  -19.5880   -2.8470  -27.5810 C   0  0  0  0  0  0  0  0  0  0  0  0
  -19.0740   -1.9340  -28.4760 C   0  0  0  0  0  0  0  0  0  0  0  0
  -19.3670   -2.0130  -29.8160 C   0  0  0  0  0  0  0  0  0  0  0  0
  -20.1900   -3.0320  -30.2410 C   0  0  0  0  0  0  0  0  0  0  0  0
  -20.7190   -3.9640  -29.3440 C   0  0  0  0  0  0  0  0  0  0  0  0
  -20.4200   -3.8800  -27.9940 C   0  0  0  0  0  0  0  0  0  0  0  0
  -20.4710   -3.0880  -31.6010 O   0  0  0  0  0  0  0  0  0  0  0  0
  -21.2800   -4.0760  -32.1950 C   0  0  0  0  0  0  0  0  0  0  0  0
  -18.8280   -1.0530  -30.7730 C   0  0  0  0  0  0  0  0  0  0  0  0
  -18.1990   -1.3970  -31.8320 N   0  0  0  0  0  0  0  0  0  0  0  0
  -17.6780   -0.4920  -32.7580 N   0  0  0  0  0  0  0  0  0  0  0  0
  -18.4670    0.5190  -33.3740 C   0  0  0  0  0  0  0  0  0  0  0  0
  -19.6850    0.2820  -33.9060 N   0  0  0  0  0  4  0  0  0  0  0  0
  -20.4020    1.2560  -34.4790 C   0  0  0  0  0  0  0  0  0  0  0  0
  -19.8840    2.4940  -34.5170 N   0  0  0  0  0  0  0  0  0  0  0  0
  -18.6650    2.8030  -34.0020 C   0  0  0  0  0  0  0  0  0  0  0  0
  -17.9920    1.7640  -33.4350 N   0  0  0  0  0  0  0  0  0  0  0  0
  -18.1270    4.1020  -34.0450 N   0  0  0  0  0  0  0  0  0  0  0  0
  -17.6060    4.7340  -32.8690 C   0  0  0  0  0  0  0  0  0  0  0  0
  -18.3010    6.0880  -32.7450 C   0  0  0  0  0  0  0  0  0  0  0  0
  -18.0730    6.7700  -33.9280 O   0  0  0  0  0  0  0  0  0  0  0  0
  -18.7040    6.1990  -35.0080 C   0  0  0  0  0  0  0  0  0  0  0  0
  -18.0950    4.8240  -35.2830 C   0  0  0  0  0  0  0  0  0  0  0  0
  -21.6850    1.0070  -35.0380 N   0  0  0  0  0  0  0  0  0  0  0  0
  -22.9000    1.5280  -34.4520 C   0  0  0  0  0  0  0  0  0  0  0  0
  -24.0070    0.4850  -34.4590 C   0  0  0  0  0  0  0  0  0  0  0  0
  -24.0660   -0.1580  -35.7000 O   0  0  0  0  0  0  0  0  0  0  0  0
  -22.8970   -0.8210  -35.9870 C   0  0  0  0  0  0  0  0  0  0  0  0
  -21.8160    0.2080  -36.2350 C   0  0  0  0  0  0  0  0  0  0  0  0
  -18.4170   -1.1170  -28.1540 H   0  0  0  0  0  0  0  0  0  0  0  0
  -21.3700   -4.7650  -29.7020 H   0  0  0  0  0  0  0  0  0  0  0  0
  -20.8370   -4.6100  -27.3220 H   0  0  0  0  0  0  0  0  0  0  0  0
  -20.6010   -4.9140  -32.4950 H   0  0  0  0  0  0  0  0  0  0  0  0
  -22.1140   -4.4050  -31.5550 H   0  0  0  0  0  0  0  0  0  0  0  0
  -21.7030   -3.6670  -33.1400 H   0  0  0  0  0  0  0  0  0  0  0  0
  -18.9580    0.0050  -30.5970 H   0  0  0  0  0  0  0  0  0  0  0  0
  -16.6520   -0.5940  -32.9860 H   0  0  0  0  0  0  0  0  0  0  0  0
  -17.7800    4.1120  -31.9530 H   0  0  0  0  0  0  0  0  0  0  0  0
  -16.5200    4.9380  -33.0110 H   0  0  0  0  0  0  0  0  0  0  0  0
  -17.7740    6.6210  -31.9280 H   0  0  0  0  0  0  0  0  0  0  0  0
  -19.3590    5.9700  -32.5000 H   0  0  0  0  0  0  0  0  0  0  0  0
  -19.7890    6.0200  -34.8150 H   0  0  0  0  0  0  0  0  0  0  0  0
  -18.5560    6.8330  -35.8880 H   0  0  0  0  0  0  0  0  0  0  0  0
  -18.6310    4.3090  -36.1010 H   0  0  0  0  0  0  0  0  0  0  0  0
  -17.0320    5.0240  -35.5550 H   0  0  0  0  0  0  0  0  0  0  0  0
  -23.2550    2.3350  -35.1560 H   0  0  0  0  0  0  0  0  0  0  0  0
  -22.7630    1.9030  -33.4330 H   0  0  0  0  0  0  0  0  0  0  0  0
  -23.8170   -0.2090  -33.6290 H   0  0  0  0  0  0  0  0  0  0  0  0
  -24.9780    1.0330  -34.3620 H   0  0  0  0  0  0  0  0  0  0  0  0
  -22.6490   -1.4830  -35.1310 H   0  0  0  0  0  0  0  0  0  0  0  0
  -23.0650   -1.4630  -36.8560 H   0  0  0  0  0  0  0  0  0  0  0  0
  -22.1610    0.8570  -37.0460 H   0  0  0  0  0  0  0  0  0  0  0  0
  -20.8560   -0.2560  -36.5150 H   0  0  0  0  0  0  0  0  0  0  0  0
  2  1  1  0  0  0  0
  3 31  1  0  0  0  0
  3  2  2  0  0  0  0
  4  3  1  0  0  0  0
  5  4  2  0  0  0  0
  5  6  1  0  0  0  0
  6  7  2  0  0  0  0
  7  2  1  0  0  0  0
  7 33  1  0  0  0  0
  8  5  1  0  0  0  0
  9  8  1  0  0  0  0
  9 35  1  0  0  0  0
 10 37  1  0  0  0  0
 10  4  1  0  0  0  0
 11 10  2  0  0  0  0
 12 11  1  0  0  0  0
 13 12  1  0  0  0  0
 14 13  2  0  0  0  0
 15 14  2  0  0  0  0
 16 15  1  0  0  0  0
 16 17  2  0  0  0  0
 17 18  1  0  0  0  0
 18 13  1  0  0  0  0
 19 17  1  0  0  0  0
 19 20  1  0  0  0  0
 20 21  1  0  0  0  0
 20 39  1  0  0  0  0
 21 42  1  0  0  0  0
 21 41  1  0  0  0  0
 22 21  1  0  0  0  0
 23 43  1  0  0  0  0
 23 22  1  0  0  0  0
 24 23  1  0  0  0  0
 24 19  1  0  0  0  0
 25 15  1  0  0  0  0
 25 26  1  0  0  0  0
 26 48  1  0  0  0  0
 27 26  1  0  0  0  0
 27 50  1  0  0  0  0
 27 49  1  0  0  0  0
 28 27  1  0  0  0  0
 29 28  1  0  0  0  0
 29 51  1  0  0  0  0
 30 29  1  0  0  0  0
 30 25  1  0  0  0  0
 32  6  1  0  0  0  0
 34  9  1  0  0  0  0
 36  9  1  0  0  0  0
 38 12  1  0  0  0  0
 40 20  1  0  0  0  0
 44 23  1  0  0  0  0
 45 24  1  0  0  0  0
 46 24  1  0  0  0  0
 47 26  1  0  0  0  0
 52 29  1  0  0  0  0
 53 30  1  0  0  0  0
 54 30  1  0  0  0  0
M  END
>  <Pose>
1

>  <Score>
-7.39

$$$$
