
 OpenBabel03222201593D

 45 48  0  0  0  0  0  0  0  0999 V2000
  -22.2610   -5.5340  -32.5140 B   0  0  0  0  0  0  0  0  0  0  0  0
  -21.5160   -3.7790  -32.5660 C   0  0  0  0  0  0  0  0  0  0  0  0
  -20.9070   -3.2700  -31.4560 C   0  0  0  0  0  0  0  0  0  0  0  0
  -20.3320   -2.0410  -31.3410 C   0  0  0  0  0  0  0  0  0  0  0  0
  -20.4160   -1.2810  -32.5310 C   0  0  0  0  0  0  0  0  0  0  0  0
  -21.0190   -1.7530  -33.6720 C   0  0  0  0  0  0  0  0  0  0  0  0
  -21.5800   -3.0210  -33.6970 C   0  0  0  0  0  0  0  0  0  0  0  0
  -19.8690   -0.0100  -32.5480 O   0  0  0  0  0  0  0  0  0  0  0  0
  -18.8450    0.3960  -33.4030 C   0  0  0  0  0  0  0  0  0  0  0  0
  -19.6650   -1.4560  -30.2120 C   0  0  0  0  0  0  0  0  0  0  0  0
  -19.3770   -1.7500  -28.9630 N   0  0  0  0  0  0  0  0  0  0  0  0
  -18.6910   -0.7210  -28.3740 C   0  0  0  0  0  0  0  0  0  0  0  0
  -18.5540    0.2370  -29.3190 N   0  0  0  0  0  0  0  0  0  0  0  0
  -19.1180   -0.1790  -30.4010 N   0  0  0  0  0  0  0  0  0  0  0  0
  -18.4060   -1.0360  -27.1080 N   0  0  0  0  0  0  0  0  0  0  0  0
  -18.9030   -2.2640  -26.8880 C   0  0  0  0  0  0  0  0  0  0  0  0
  -19.5160   -2.7380  -28.0420 C   0  0  0  0  0  0  0  0  0  0  0  0
  -20.0710   -3.9320  -28.1160 N   0  0  0  0  0  0  0  0  0  0  0  0
  -20.0270   -4.7040  -26.9850 C   0  0  0  0  0  0  0  0  0  0  0  0
  -20.5260   -5.8570  -26.9430 O   0  0  0  0  0  0  0  0  0  0  0  0
  -19.4440   -4.2750  -25.8450 N   0  0  0  0  0  0  0  0  0  0  0  0
  -18.8810   -3.0750  -25.7690 C   0  0  0  0  0  0  0  0  0  0  0  0
  -18.3230   -2.6190  -24.7390 O   0  0  0  0  0  0  0  0  0  0  0  0
  -20.6630   -4.5820  -29.2450 C   0  0  0  0  0  0  0  0  0  0  0  0
  -17.7060   -0.2360  -26.1460 C   0  0  0  0  0  0  0  0  0  0  0  0
  -18.3900    1.1090  -26.0150 C   0  0  0  0  0  0  0  0  0  0  0  0
  -17.6540    2.0390  -26.7210 O   0  0  0  0  0  0  0  0  0  0  0  0
  -18.4580    3.0950  -27.1820 C   0  0  0  0  0  0  0  0  0  0  0  0
  -20.8700   -3.8680  -30.5570 H   0  0  0  0  0  0  0  0  0  0  0  0
  -21.0940   -1.1920  -34.5870 H   0  0  0  0  0  0  0  0  0  0  0  0
  -22.0550   -3.4040  -34.5810 H   0  0  0  0  0  0  0  0  0  0  0  0
  -18.9270   -0.0270  -34.4250 H   0  0  0  0  0  0  0  0  0  0  0  0
  -18.8180    1.5080  -33.5410 H   0  0  0  0  0  0  0  0  0  0  0  0
  -17.8680    0.1180  -32.9500 H   0  0  0  0  0  0  0  0  0  0  0  0
  -19.4200   -4.8740  -24.9930 H   0  0  0  0  0  0  0  0  0  0  0  0
  -20.0870   -4.4580  -30.1730 H   0  0  0  0  0  0  0  0  0  0  0  0
  -20.7000   -5.7030  -29.0130 H   0  0  0  0  0  0  0  0  0  0  0  0
  -21.7010   -4.2960  -29.3760 H   0  0  0  0  0  0  0  0  0  0  0  0
  -16.6230   -0.1520  -26.3460 H   0  0  0  0  0  0  0  0  0  0  0  0
  -17.8450   -0.7370  -25.1420 H   0  0  0  0  0  0  0  0  0  0  0  0
  -18.4060    1.4510  -24.9510 H   0  0  0  0  0  0  0  0  0  0  0  0
  -19.4180    0.9960  -26.4100 H   0  0  0  0  0  0  0  0  0  0  0  0
  -19.2360    2.6610  -27.8470 H   0  0  0  0  0  0  0  0  0  0  0  0
  -17.8630    3.7790  -27.8030 H   0  0  0  0  0  0  0  0  0  0  0  0
  -18.9340    3.6440  -26.3670 H   0  0  0  0  0  0  0  0  0  0  0  0
  2  1  1  0  0  0  0
  2  3  1  0  0  0  0
  3  4  2  0  0  0  0
  3 29  1  0  0  0  0
  4 10  1  0  0  0  0
  5  4  1  0  0  0  0
  6  5  2  0  0  0  0
  7  6  1  0  0  0  0
  7  2  2  0  0  0  0
  8  5  1  0  0  0  0
  9 34  1  0  0  0  0
  9  8  1  0  0  0  0
 10 11  1  0  0  0  0
 11 12  1  0  0  0  0
 11 17  1  0  0  0  0
 12 15  1  0  0  0  0
 13 12  2  0  0  0  0
 14 10  2  0  0  0  0
 14 13  1  0  0  0  0
 15 16  1  0  0  0  0
 15 25  1  0  0  0  0
 16 22  1  0  0  0  0
 17 16  2  0  0  0  0
 18 17  1  0  0  0  0
 18 19  1  0  0  0  0
 19 20  2  0  0  0  0
 19 21  1  0  0  0  0
 21 22  1  0  0  0  0
 21 35  1  0  0  0  0
 22 23  2  0  0  0  0
 24 37  1  0  0  0  0
 24 18  1  0  0  0  0
 25 26  1  0  0  0  0
 25 40  1  0  0  0  0
 26 41  1  0  0  0  0
 27 26  1  0  0  0  0
 28 27  1  0  0  0  0
 28 45  1  0  0  0  0
 30  6  1  0  0  0  0
 31  7  1  0  0  0  0
 32  9  1  0  0  0  0
 33  9  1  0  0  0  0
 36 24  1  0  0  0  0
 38 24  1  0  0  0  0
 39 25  1  0  0  0  0
 42 26  1  0  0  0  0
 43 28  1  0  0  0  0
 44 28  1  0  0  0  0
M  END
>  <Pose>
1

>  <Score>
-7.98

$$$$
