
 OpenBabel03222201593D

 42 45  0  0  1  0  0  0  0  0999 V2000
  -23.9950   -0.9720  -37.9400 B   0  0  0  0  0  0  0  0  0  0  0  0
  -23.2750   -0.9020  -36.1830 C   0  0  0  0  0  0  0  0  0  0  0  0
  -22.8630   -2.0250  -35.5090 C   0  0  0  0  0  0  0  0  0  0  0  0
  -22.3620   -1.9760  -34.2310 C   0  0  0  0  0  0  0  0  0  0  0  0
  -22.2680   -0.7630  -33.5980 C   0  0  0  0  0  0  0  0  0  0  0  0
  -22.6740    0.3990  -34.2430 C   0  0  0  0  0  0  0  0  0  0  0  0
  -23.1670    0.3150  -35.5150 C   0  0  0  0  0  0  0  0  0  0  0  0
  -21.9200   -3.2340  -33.5160 C   0  0  0  0  0  0  0  0  0  0  0  0
  -22.4020   -4.2670  -34.0750 O   0  0  0  0  0  0  0  0  0  0  0  0
  -21.1040   -3.1260  -32.4170 N   0  0  0  0  0  0  0  0  0  0  0  0
  -20.3090   -3.0210  -31.3580 C   0  0  2  0  0  0  0  0  0  0  0  0
  -21.0550   -3.2680  -29.9950 C   0  0  0  0  0  0  0  0  0  0  0  0
  -20.1390   -2.7830  -29.0200 N   0  0  0  0  0  0  0  0  0  0  0  0
  -19.2060   -1.8650  -29.6570 C   0  0  1  0  0  0  0  0  0  0  0  0
  -19.7880   -1.5990  -30.9850 C   0  0  0  0  0  0  0  0  0  0  0  0
  -18.9540   -0.7070  -28.7840 C   0  0  0  0  0  0  0  0  0  0  0  0
  -18.8660    0.4280  -29.2840 O   0  0  0  0  0  0  0  0  0  0  0  0
  -18.8120   -0.8830  -27.3890 N   0  0  0  0  0  0  0  0  0  0  0  0
  -19.5460   -1.9370  -26.7230 C   0  0  2  0  0  0  0  0  0  0  0  0
  -18.6570   -2.3930  -25.5830 C   0  0  0  0  0  0  0  0  0  0  0  0
  -17.4930   -1.4660  -25.6080 C   0  0  0  0  0  0  0  0  0  0  0  0
  -18.0460   -0.2300  -26.3330 C   0  0  0  0  0  0  0  0  0  0  0  0
  -19.9670   -3.0030  -27.6250 C   0  0  0  0  0  0  0  0  0  0  0  0
  -20.1920   -4.1770  -27.1650 O   0  0  0  0  0  0  0  0  0  0  0  0
  -22.9220   -2.9960  -35.9850 H   0  0  0  0  0  0  0  0  0  0  0  0
  -21.8950   -0.6540  -32.6030 H   0  0  0  0  0  0  0  0  0  0  0  0
  -22.5840    1.3530  -33.7110 H   0  0  0  0  0  0  0  0  0  0  0  0
  -23.4900    1.2150  -36.0420 H   0  0  0  0  0  0  0  0  0  0  0  0
  -20.0110   -3.2980  -33.2370 H   0  0  0  0  0  0  0  0  0  0  0  0
  -19.3930   -3.6580  -31.2020 H   0  0  0  0  0  0  0  0  0  0  0  0
  -21.9920   -2.7230  -30.0890 H   0  0  0  0  0  0  0  0  0  0  0  0
  -21.2590   -4.3480  -29.9440 H   0  0  0  0  0  0  0  0  0  0  0  0
  -18.2160   -2.3650  -29.8020 H   0  0  0  0  0  0  0  0  0  0  0  0
  -19.0740   -1.2730  -31.7640 H   0  0  0  0  0  0  0  0  0  0  0  0
  -20.6860   -0.9610  -30.9660 H   0  0  0  0  0  0  0  0  0  0  0  0
  -20.4650   -1.5180  -26.2080 H   0  0  0  0  0  0  0  0  0  0  0  0
  -18.3390   -3.4660  -25.7640 H   0  0  0  0  0  0  0  0  0  0  0  0
  -19.1450   -2.3200  -24.5940 H   0  0  0  0  0  0  0  0  0  0  0  0
  -16.6830   -1.9370  -26.2140 H   0  0  0  0  0  0  0  0  0  0  0  0
  -17.1010   -1.1990  -24.6050 H   0  0  0  0  0  0  0  0  0  0  0  0
  -18.6580    0.3440  -25.6430 H   0  0  0  0  0  0  0  0  0  0  0  0
  -17.1960    0.3510  -26.6770 H   0  0  0  0  0  0  0  0  0  0  0  0
  1  2  1  0  0  0  0
  2  7  2  0  0  0  0
  2  3  1  0  0  0  0
  3  4  2  0  0  0  0
  4  5  1  0  0  0  0
  4  8  1  0  0  0  0
  5 26  1  0  0  0  0
  6 27  1  0  0  0  0
  6  5  2  0  0  0  0
  7  6  1  0  0  0  0
  8 10  1  0  0  0  0
  9  8  2  0  0  0  0
 10 11  1  0  0  0  0
 11 30  1  6  0  0  0
 11 15  1  0  0  0  0
 11 12  1  0  0  0  0
 12 32  1  0  0  0  0
 12 13  1  0  0  0  0
 13 23  1  0  0  0  0
 14 33  1  6  0  0  0
 14 13  1  0  0  0  0
 14 16  1  0  0  0  0
 15 35  1  0  0  0  0
 15 14  1  0  0  0  0
 16 18  1  0  0  0  0
 17 16  2  0  0  0  0
 18 19  1  0  0  0  0
 18 22  1  0  0  0  0
 19 36  1  1  0  0  0
 19 20  1  0  0  0  0
 20 38  1  0  0  0  0
 21 20  1  0  0  0  0
 21 40  1  0  0  0  0
 22 41  1  0  0  0  0
 22 21  1  0  0  0  0
 23 24  2  0  0  0  0
 23 19  1  0  0  0  0
 25  3  1  0  0  0  0
 28  7  1  0  0  0  0
 29 10  1  0  0  0  0
 31 12  1  0  0  0  0
 34 15  1  0  0  0  0
 37 20  1  0  0  0  0
 39 21  1  0  0  0  0
 42 22  1  0  0  0  0
M  END
>  <Pose>
1

>  <Score>
-6.60

$$$$
