
 OpenBabel03222201593D

 42 45  0  0  1  0  0  0  0  0999 V2000
  -24.5790    0.4100  -38.1230 B   0  0  0  0  0  0  0  0  0  0  0  0
  -22.6950    0.2310  -37.9380 C   0  0  0  0  0  0  0  0  0  0  0  0
  -22.0710    0.2570  -36.7180 C   0  0  0  0  0  0  0  0  0  0  0  0
  -20.7140    0.1290  -36.5560 C   0  0  0  0  0  0  0  0  0  0  0  0
  -19.9650   -0.0320  -37.6970 C   0  0  0  0  0  0  0  0  0  0  0  0
  -20.5640   -0.0640  -38.9650 C   0  0  0  0  0  0  0  0  0  0  0  0
  -21.9390    0.0680  -39.0780 C   0  0  0  0  0  0  0  0  0  0  0  0
  -20.0660    0.1580  -35.2560 C   0  0  0  0  0  0  0  0  0  0  0  0
  -19.9630    1.3160  -34.7190 O   0  0  0  0  0  0  0  0  0  0  0  0
  -19.5610   -0.9690  -34.5720 N   0  0  0  0  0  0  0  0  0  0  0  0
  -20.1270   -1.3690  -33.3380 C   0  0  2  0  0  0  0  0  0  0  0  0
  -19.2230   -1.2640  -32.1550 C   0  0  0  0  0  0  0  0  0  0  0  0
  -19.8570   -2.1660  -31.1780 N   0  0  0  0  0  0  0  0  0  0  0  0
  -20.8520   -2.9830  -31.8560 C   0  0  1  0  0  0  0  0  0  0  0  0
  -20.4740   -2.8650  -33.3010 C   0  0  0  0  0  0  0  0  0  0  0  0
  -20.7650   -4.3380  -31.3180 C   0  0  0  0  0  0  0  0  0  0  0  0
  -20.9450   -5.3250  -32.0410 O   0  0  0  0  0  0  0  0  0  0  0  0
  -20.4640   -4.5300  -29.9290 N   0  0  0  0  0  0  0  0  0  0  0  0
  -20.5230   -3.3530  -29.0980 C   0  0  1  0  0  0  0  0  0  0  0  0
  -20.0980   -3.6710  -27.7240 C   0  0  0  0  0  0  0  0  0  0  0  0
  -20.2040   -5.1830  -27.6930 C   0  0  0  0  0  0  0  0  0  0  0  0
  -20.1020   -5.6440  -29.1070 C   0  0  0  0  0  0  0  0  0  0  0  0
  -19.6470   -2.3370  -29.7790 C   0  0  0  0  0  0  0  0  0  0  0  0
  -18.7860   -1.6820  -29.1510 O   0  0  0  0  0  0  0  0  0  0  0  0
  -22.6600    0.3850  -35.8100 H   0  0  0  0  0  0  0  0  0  0  0  0
  -18.8920   -0.1390  -37.6620 H   0  0  0  0  0  0  0  0  0  0  0  0
  -19.9750   -0.1920  -39.8620 H   0  0  0  0  0  0  0  0  0  0  0  0
  -22.3570    0.0380  -40.0750 H   0  0  0  0  0  0  0  0  0  0  0  0
  -18.7700   -1.4960  -34.9850 H   0  0  0  0  0  0  0  0  0  0  0  0
  -21.0720   -0.8460  -33.0920 H   0  0  0  0  0  0  0  0  0  0  0  0
  -18.2350   -1.7100  -32.4610 H   0  0  0  0  0  0  0  0  0  0  0  0
  -19.0810   -0.2600  -31.7600 H   0  0  0  0  0  0  0  0  0  0  0  0
  -21.8480   -2.5060  -31.6630 H   0  0  0  0  0  0  0  0  0  0  0  0
  -19.5960   -3.4830  -33.4980 H   0  0  0  0  0  0  0  0  0  0  0  0
  -21.3290   -3.0540  -33.9800 H   0  0  0  0  0  0  0  0  0  0  0  0
  -21.5540   -2.9070  -29.1620 H   0  0  0  0  0  0  0  0  0  0  0  0
  -20.8640   -3.2760  -27.0110 H   0  0  0  0  0  0  0  0  0  0  0  0
  -19.1110   -3.3010  -27.4200 H   0  0  0  0  0  0  0  0  0  0  0  0
  -21.2180   -5.4840  -27.3000 H   0  0  0  0  0  0  0  0  0  0  0  0
  -19.4270   -5.5650  -27.0180 H   0  0  0  0  0  0  0  0  0  0  0  0
  -19.0570   -5.9910  -29.2770 H   0  0  0  0  0  0  0  0  0  0  0  0
  -20.7930   -6.5250  -29.2550 H   0  0  0  0  0  0  0  0  0  0  0  0
  1  2  1  0  0  0  0
  2  3  1  0  0  0  0
  3  4  2  0  0  0  0
  3 25  1  0  0  0  0
  4  8  1  0  0  0  0
  5 26  1  0  0  0  0
  5  4  1  0  0  0  0
  6  5  2  0  0  0  0
  7  6  1  0  0  0  0
  7  2  2  0  0  0  0
  8  9  2  0  0  0  0
  8 10  1  0  0  0  0
 10 11  1  0  0  0  0
 11 15  1  0  0  0  0
 11 30  1  1  0  0  0
 11 12  1  0  0  0  0
 12 32  1  0  0  0  0
 12 13  1  0  0  0  0
 13 23  1  0  0  0  0
 14 33  1  1  0  0  0
 14 16  1  0  0  0  0
 14 13  1  0  0  0  0
 15 14  1  0  0  0  0
 16 18  1  0  0  0  0
 17 16  2  0  0  0  0
 18 22  1  0  0  0  0
 18 19  1  0  0  0  0
 19 36  1  1  0  0  0
 19 20  1  0  0  0  0
 20 21  1  0  0  0  0
 20 38  1  0  0  0  0
 20 37  1  0  0  0  0
 21 39  1  0  0  0  0
 21 40  1  0  0  0  0
 22 21  1  0  0  0  0
 23 24  2  0  0  0  0
 23 19  1  0  0  0  0
 27  6  1  0  0  0  0
 28  7  1  0  0  0  0
 29 10  1  0  0  0  0
 31 12  1  0  0  0  0
 34 15  1  0  0  0  0
 35 15  1  0  0  0  0
 41 22  1  0  0  0  0
 42 22  1  0  0  0  0
M  END
>  <Pose>
1

>  <Score>
-6.43

$$$$
