
 OpenBabel03222201593D

 61 64  0  0  1  0  0  0  0  0999 V2000
  -21.2910    4.3270  -37.3690 B   0  0  0  0  0  0  0  0  0  0  0  0
  -20.7620    2.5930  -36.7690 C   0  0  0  0  0  0  0  0  0  0  0  0
  -21.3510    1.9370  -35.7320 C   0  0  0  0  0  0  0  0  0  0  0  0
  -20.9970    0.6820  -35.2660 C   0  0  0  0  0  0  0  0  0  0  0  0
  -19.9490    0.0350  -35.9160 C   0  0  0  0  0  0  0  0  0  0  0  0
  -19.3290    0.6720  -36.9740 C   0  0  0  0  0  0  0  0  0  0  0  0
  -19.7070    1.9290  -37.4140 C   0  0  0  0  0  0  0  0  0  0  0  0
  -21.7270    0.1330  -34.1190 C   0  0  1  0  0  0  0  0  0  0  0  0
  -22.5340   -0.9620  -34.5090 N   0  0  0  0  0  0  0  0  0  0  0  0
  -22.0520   -2.1510  -33.9040 C   0  0  0  0  0  0  0  0  0  0  0  0
  -22.5020   -3.3170  -34.1280 O   0  0  0  0  0  0  0  0  0  0  0  0
  -20.9800   -1.8020  -32.9960 C   0  0  0  0  0  0  0  0  0  0  0  0
  -20.3690   -2.6780  -32.3260 O   0  0  0  0  0  0  0  0  0  0  0  0
  -20.8110   -0.3630  -33.0590 C   0  0  0  0  0  0  0  0  0  0  0  0
  -19.9550    0.3200  -32.3340 C   0  0  0  0  0  0  0  0  0  0  0  0
  -19.8410    1.6760  -32.5330 O   0  0  0  0  0  0  0  0  0  0  0  0
  -19.1430   -0.3240  -31.3310 C   0  0  0  0  0  0  0  0  0  0  0  0
  -19.4620   -0.3530  -29.9620 C   0  0  0  0  0  0  0  0  0  0  0  0
  -18.5300   -1.0570  -29.3100 N   0  0  0  0  0  0  0  0  0  0  0  0
  -17.6520   -1.4630  -30.2090 N   0  0  0  0  0  0  0  0  0  0  0  0
  -17.9860   -1.0440  -31.4390 C   0  0  0  0  0  0  0  0  0  0  0  0
  -18.4810   -1.3390  -27.9180 C   0  0  0  0  0  0  0  0  0  0  0  0
  -19.2490   -2.3840  -27.4220 C   0  0  0  0  0  0  0  0  0  0  0  0
  -19.2430   -2.7210  -26.0830 C   0  0  0  0  0  0  0  0  0  0  0  0
  -18.4560   -2.0180  -25.1690 C   0  0  0  0  0  0  0  0  0  0  0  0
  -17.6910   -0.9770  -25.6640 C   0  0  0  0  0  0  0  0  0  0  0  0
  -17.7150   -0.6620  -26.9980 C   0  0  0  0  0  0  0  0  0  0  0  0
  -20.6640    0.3100  -29.3750 C   0  0  0  0  0  0  0  0  0  0  0  0
  -23.7310   -0.9200  -35.3950 C   0  0  0  0  0  0  0  0  0  0  0  0
  -23.2950   -0.9690  -36.8370 C   0  0  0  0  0  0  0  0  0  0  0  0
  -23.7690   -2.1890  -37.5620 C   0  0  0  0  0  0  0  0  0  0  0  0
  -22.9080   -2.6920  -38.5800 N   0  0  0  0  0  4  0  0  0  0  0  0
  -23.4910   -3.5980  -39.5140 C   0  0  0  0  0  0  0  0  0  0  0  0
  -22.3250   -1.5780  -39.3460 C   0  0  0  0  0  0  0  0  0  0  0  0
  -22.1780    2.4820  -35.2360 H   0  0  0  0  0  0  0  0  0  0  0  0
  -19.6430   -0.9390  -35.5810 H   0  0  0  0  0  0  0  0  0  0  0  0
  -18.5070    0.1590  -37.4810 H   0  0  0  0  0  0  0  0  0  0  0  0
  -19.2210    2.4310  -38.2430 H   0  0  0  0  0  0  0  0  0  0  0  0
  -22.3960    0.9320  -33.7070 H   0  0  0  0  0  0  0  0  0  0  0  0
  -17.4460   -1.2510  -32.3640 H   0  0  0  0  0  0  0  0  0  0  0  0
  -19.8620   -2.9250  -28.1630 H   0  0  0  0  0  0  0  0  0  0  0  0
  -19.8510   -3.5440  -25.7270 H   0  0  0  0  0  0  0  0  0  0  0  0
  -18.4720   -2.3040  -24.1150 H   0  0  0  0  0  0  0  0  0  0  0  0
  -17.0820   -0.4360  -24.9370 H   0  0  0  0  0  0  0  0  0  0  0  0
  -17.0990    0.1560  -27.3420 H   0  0  0  0  0  0  0  0  0  0  0  0
  -21.5400    0.2070  -30.0600 H   0  0  0  0  0  0  0  0  0  0  0  0
  -20.4620    1.3610  -29.0980 H   0  0  0  0  0  0  0  0  0  0  0  0
  -20.9620   -0.2170  -28.4370 H   0  0  0  0  0  0  0  0  0  0  0  0
  -24.4390   -1.7200  -35.1110 H   0  0  0  0  0  0  0  0  0  0  0  0
  -24.2050    0.0930  -35.2510 H   0  0  0  0  0  0  0  0  0  0  0  0
  -23.8550   -0.1110  -37.3200 H   0  0  0  0  0  0  0  0  0  0  0  0
  -22.2430   -0.7160  -36.9780 H   0  0  0  0  0  0  0  0  0  0  0  0
  -24.7780   -2.0000  -38.0480 H   0  0  0  0  0  0  0  0  0  0  0  0
  -23.9760   -3.0130  -36.8170 H   0  0  0  0  0  0  0  0  0  0  0  0
  -22.0670   -3.1670  -38.1320 H   0  0  0  0  0  0  0  0  0  0  0  0
  -23.3500   -3.2610  -40.5770 H   0  0  0  0  0  0  0  0  0  0  0  0
  -24.5390   -3.8990  -39.3210 H   0  0  0  0  0  0  0  0  0  0  0  0
  -22.9110   -4.5670  -39.4670 H   0  0  0  0  0  0  0  0  0  0  0  0
  -21.2240   -1.5810  -39.2920 H   0  0  0  0  0  0  0  0  0  0  0  0
  -22.7070   -0.6370  -38.8910 H   0  0  0  0  0  0  0  0  0  0  0  0
  -22.7030   -1.5950  -40.3940 H   0  0  0  0  0  0  0  0  0  0  0  0
  1  2  1  0  0  0  0
  2  3  1  0  0  0  0
  3  4  2  0  0  0  0
  3 35  1  0  0  0  0
  4  8  1  0  0  0  0
  5 36  1  0  0  0  0
  5  4  1  0  0  0  0
  6  5  2  0  0  0  0
  7  6  1  0  0  0  0
  7  2  2  0  0  0  0
  8 39  1  1  0  0  0
  8 14  1  0  0  0  0
  9  8  1  0  0  0  0
  9 10  1  0  0  0  0
 10 12  1  0  0  0  0
 11 10  2  0  0  0  0
 12 13  2  0  0  0  0
 14 12  1  0  0  0  0
 14 15  2  0  0  0  0
 15 17  1  0  0  0  0
 16 15  1  0  0  0  0
 17 18  2  0  0  0  0
 18 28  1  0  0  0  0
 18 19  1  0  0  0  0
 19 22  1  0  0  0  0
 20 19  1  0  0  0  0
 21 17  1  0  0  0  0
 21 20  2  0  0  0  0
 22 23  2  0  0  0  0
 22 27  1  0  0  0  0
 23 24  1  0  0  0  0
 24 42  1  0  0  0  0
 24 25  2  0  0  0  0
 25 43  1  0  0  0  0
 26 25  1  0  0  0  0
 26 44  1  0  0  0  0
 27 26  2  0  0  0  0
 28 47  1  0  0  0  0
 28 48  1  0  0  0  0
 29 50  1  0  0  0  0
 29 49  1  0  0  0  0
 29  9  1  0  0  0  0
 30 29  1  0  0  0  0
 31 30  1  0  0  0  0
 31 54  1  0  0  0  0
 32 55  1  0  0  0  0
 32 31  1  0  0  0  0
 33 58  1  0  0  0  0
 33 57  1  0  0  0  0
 33 32  1  0  0  0  0
 34 59  1  0  0  0  0
 34 60  1  0  0  0  0
 34 32  1  0  0  0  0
 37  6  1  0  0  0  0
 38  7  1  0  0  0  0
 40 21  1  0  0  0  0
 41 23  1  0  0  0  0
 45 27  1  0  0  0  0
 46 28  1  0  0  0  0
 51 30  1  0  0  0  0
 52 30  1  0  0  0  0
 53 31  1  0  0  0  0
 56 33  1  0  0  0  0
 61 34  1  0  0  0  0
M  END
>  <Pose>
1

>  <Score>
-7.57

$$$$
