
 OpenBabel03222201593D

 57 60  0  0  1  0  0  0  0  0999 V2000
  -23.4890   -0.4050  -34.2490 B   0  0  0  0  0  0  0  0  0  0  0  0
  -22.6470   -0.3620  -35.9510 C   0  0  0  0  0  0  0  0  0  0  0  0
  -21.6830    0.6120  -36.2130 C   0  0  0  0  0  0  0  0  0  0  0  0
  -21.0660    0.6660  -37.4170 C   0  0  0  0  0  0  0  0  0  0  0  0
  -21.4250   -0.2800  -38.3840 C   0  0  0  0  0  0  0  0  0  0  0  0
  -22.3670   -1.2300  -38.1240 C   0  0  0  0  0  0  0  0  0  0  0  0
  -23.0060   -1.3030  -36.9060 C   0  0  0  0  0  0  0  0  0  0  0  0
  -20.0370    1.6490  -37.7760 C   0  0  2  0  0  0  0  0  0  0  0  0
  -18.8840    1.6710  -36.8970 N   0  0  0  0  0  0  0  0  0  0  0  0
  -18.2770    2.9530  -37.1080 C   0  0  0  0  0  0  0  0  0  0  0  0
  -17.0880    3.2690  -36.9290 O   0  0  0  0  0  0  0  0  0  0  0  0
  -19.3280    3.8470  -37.5810 C   0  0  0  0  0  0  0  0  0  0  0  0
  -19.2840    5.0710  -37.9040 O   0  0  0  0  0  0  0  0  0  0  0  0
  -20.5450    3.0500  -37.6340 C   0  0  0  0  0  0  0  0  0  0  0  0
  -21.7770    3.5160  -37.6070 C   0  0  0  0  0  0  0  0  0  0  0  0
  -22.7980    2.5640  -37.7360 O   0  0  0  0  0  0  0  0  0  0  0  0
  -22.1420    4.9160  -37.4490 C   0  0  0  0  0  0  0  0  0  0  0  0
  -21.8770    5.7190  -36.4080 N   0  0  0  0  0  0  0  0  0  0  0  0
  -22.3370    6.9750  -36.6370 C   0  0  0  0  0  0  0  0  0  0  0  0
  -22.9060    6.9220  -37.8730 N   0  0  0  0  0  0  0  0  0  0  0  0
  -22.8110    5.7100  -38.3930 C   0  0  0  0  0  0  0  0  0  0  0  0
  -23.2710    5.1640  -39.6890 C   0  0  0  0  0  0  0  0  0  0  0  0
  -22.2070    8.0040  -35.7170 C   0  0  0  0  0  0  0  0  0  0  0  0
  -21.5880    7.7670  -34.5070 C   0  0  0  0  0  0  0  0  0  0  0  0
  -21.1210    6.4770  -34.2800 C   0  0  0  0  0  0  0  0  0  0  0  0
  -21.2660    5.4920  -35.2070 C   0  0  0  0  0  0  0  0  0  0  0  0
  -18.4070    0.6220  -35.9930 C   0  0  0  0  0  0  0  0  0  0  0  0
  -18.5280    0.9750  -34.5560 C   0  0  0  0  0  0  0  0  0  0  0  0
  -19.3690    0.1310  -33.6910 C   0  0  0  0  0  0  0  0  0  0  0  0
  -18.8220   -1.1190  -33.2910 N   0  0  0  0  0  4  0  0  0  0  0  0
  -19.8810   -2.0600  -33.0190 C   0  0  0  0  0  0  0  0  0  0  0  0
  -18.1010   -0.9470  -32.0160 C   0  0  0  0  0  0  0  0  0  0  0  0
  -21.4600    1.3050  -35.4370 H   0  0  0  0  0  0  0  0  0  0  0  0
  -20.9390   -0.2460  -39.3490 H   0  0  0  0  0  0  0  0  0  0  0  0
  -22.6520   -1.9740  -38.8780 H   0  0  0  0  0  0  0  0  0  0  0  0
  -23.7670   -2.0670  -36.6910 H   0  0  0  0  0  0  0  0  0  0  0  0
  -19.6700    1.5190  -38.7930 H   0  0  0  0  0  0  0  0  0  0  0  0
  -24.0220    5.8830  -40.0890 H   0  0  0  0  0  0  0  0  0  0  0  0
  -23.8300    4.2100  -39.5390 H   0  0  0  0  0  0  0  0  0  0  0  0
  -22.4650    5.0480  -40.4310 H   0  0  0  0  0  0  0  0  0  0  0  0
  -22.5910    8.9870  -35.9490 H   0  0  0  0  0  0  0  0  0  0  0  0
  -21.4540    8.5250  -33.7470 H   0  0  0  0  0  0  0  0  0  0  0  0
  -20.6250    6.2630  -33.3270 H   0  0  0  0  0  0  0  0  0  0  0  0
  -20.9130    4.4640  -35.0450 H   0  0  0  0  0  0  0  0  0  0  0  0
  -18.8730   -0.3500  -36.2610 H   0  0  0  0  0  0  0  0  0  0  0  0
  -17.3270    0.4880  -36.1990 H   0  0  0  0  0  0  0  0  0  0  0  0
  -17.5290    1.1310  -34.0740 H   0  0  0  0  0  0  0  0  0  0  0  0
  -18.9780    2.0150  -34.5300 H   0  0  0  0  0  0  0  0  0  0  0  0
  -19.5750    0.7210  -32.7550 H   0  0  0  0  0  0  0  0  0  0  0  0
  -20.3930    0.0040  -34.1500 H   0  0  0  0  0  0  0  0  0  0  0  0
  -18.0970   -1.5000  -33.9370 H   0  0  0  0  0  0  0  0  0  0  0  0
  -19.8920   -2.4210  -31.9690 H   0  0  0  0  0  0  0  0  0  0  0  0
  -20.8470   -1.5460  -33.1920 H   0  0  0  0  0  0  0  0  0  0  0  0
  -19.8720   -2.9310  -33.7000 H   0  0  0  0  0  0  0  0  0  0  0  0
  -17.2310   -0.2660  -32.1530 H   0  0  0  0  0  0  0  0  0  0  0  0
  -18.8110   -0.5740  -31.2370 H   0  0  0  0  0  0  0  0  0  0  0  0
  -17.6860   -1.9080  -31.6600 H   0  0  0  0  0  0  0  0  0  0  0  0
  2  1  1  0  0  0  0
  3  2  1  0  0  0  0
  3 33  1  0  0  0  0
  4  3  2  0  0  0  0
  5  6  2  0  0  0  0
  5  4  1  0  0  0  0
  6  7  1  0  0  0  0
  7 36  1  0  0  0  0
  7  2  2  0  0  0  0
  8 37  1  6  0  0  0
  8 14  1  0  0  0  0
  8  4  1  0  0  0  0
  8  9  1  0  0  0  0
  9 27  1  0  0  0  0
 10 11  2  0  0  0  0
 10  9  1  0  0  0  0
 12 10  1  0  0  0  0
 13 12  2  0  0  0  0
 14 15  2  0  0  0  0
 14 12  1  0  0  0  0
 15 17  1  0  0  0  0
 16 15  1  0  0  0  0
 17 18  1  0  0  0  0
 18 26  1  0  0  0  0
 19 18  1  0  0  0  0
 19 23  1  0  0  0  0
 20 19  2  0  0  0  0
 21 20  1  0  0  0  0
 21 17  2  0  0  0  0
 22 39  1  0  0  0  0
 22 21  1  0  0  0  0
 23 24  2  0  0  0  0
 24 25  1  0  0  0  0
 24 42  1  0  0  0  0
 25 43  1  0  0  0  0
 26 44  1  0  0  0  0
 26 25  2  0  0  0  0
 27 28  1  0  0  0  0
 28 48  1  0  0  0  0
 28 47  1  0  0  0  0
 28 29  1  0  0  0  0
 29 30  1  0  0  0  0
 29 49  1  0  0  0  0
 30 31  1  0  0  0  0
 30 32  1  0  0  0  0
 31 52  1  0  0  0  0
 32 57  1  0  0  0  0
 32 56  1  0  0  0  0
 34  5  1  0  0  0  0
 35  6  1  0  0  0  0
 38 22  1  0  0  0  0
 40 22  1  0  0  0  0
 41 23  1  0  0  0  0
 45 27  1  0  0  0  0
 46 27  1  0  0  0  0
 50 29  1  0  0  0  0
 51 30  1  0  0  0  0
 53 31  1  0  0  0  0
 54 31  1  0  0  0  0
 55 32  1  0  0  0  0
M  END
>  <Pose>
1

>  <Score>
-5.51

$$$$
