
 OpenBabel03222201593D

 53 56  0  0  1  0  0  0  0  0999 V2000
  -23.3310    3.9270  -40.5110 B   0  0  0  0  0  0  0  0  0  0  0  0
  -23.6110    2.5030  -39.2560 C   0  0  0  0  0  0  0  0  0  0  0  0
  -22.6170    2.1130  -38.3710 C   0  0  0  0  0  0  0  0  0  0  0  0
  -22.7850    1.0940  -37.4590 C   0  0  0  0  0  0  0  0  0  0  0  0
  -24.0060    0.4470  -37.4460 C   0  0  0  0  0  0  0  0  0  0  0  0
  -25.0180    0.8270  -38.3310 C   0  0  0  0  0  0  0  0  0  0  0  0
  -24.8270    1.8530  -39.2380 C   0  0  0  0  0  0  0  0  0  0  0  0
  -21.6790    0.7190  -36.5300 C   0  0  2  0  0  0  0  0  0  0  0  0
  -22.1930    0.3540  -35.2180 N   0  0  0  0  0  0  0  0  0  0  0  0
  -22.5590    1.6310  -34.6430 C   0  0  0  0  0  0  0  0  0  0  0  0
  -23.4090    1.8280  -33.7480 O   0  0  0  0  0  0  0  0  0  0  0  0
  -21.7720    2.6760  -35.2830 C   0  0  0  0  0  0  0  0  0  0  0  0
  -21.7540    3.9220  -35.1110 O   0  0  0  0  0  0  0  0  0  0  0  0
  -20.9200    1.9940  -36.2570 C   0  0  0  0  0  0  0  0  0  0  0  0
  -19.7970    2.3800  -36.7910 C   0  0  0  0  0  0  0  0  0  0  0  0
  -19.1910    1.5350  -37.7440 O   0  0  0  0  0  0  0  0  0  0  0  0
  -19.1900    3.6420  -36.4090 C   0  0  0  0  0  0  0  0  0  0  0  0
  -18.0640    3.7300  -35.7540 O   0  0  0  0  0  0  0  0  0  0  0  0
  -17.7400    4.9740  -35.5330 C   0  0  0  0  0  0  0  0  0  0  0  0
  -18.7080    5.7660  -36.0730 C   0  0  0  0  0  0  0  0  0  0  0  0
  -19.6550    4.9070  -36.6430 C   0  0  0  0  0  0  0  0  0  0  0  0
  -22.3540   -0.9240  -34.5780 C   0  0  0  0  0  0  0  0  0  0  0  0
  -21.1330   -1.8110  -34.6660 C   0  0  0  0  0  0  0  0  0  0  0  0
  -19.9600   -1.0970  -34.1200 C   0  0  0  0  0  0  0  0  0  0  0  0
  -19.1750   -1.8460  -33.1660 N   0  0  0  0  0  4  0  0  0  0  0  0
  -18.3730   -0.9940  -32.3180 C   0  0  0  0  0  0  0  0  0  0  0  0
  -18.9820   -0.6690  -31.0010 C   0  0  0  0  0  0  0  0  0  0  0  0
  -19.6170   -1.7150  -30.3650 O   0  0  0  0  0  0  0  0  0  0  0  0
  -20.5120   -2.4000  -31.1760 C   0  0  0  0  0  0  0  0  0  0  0  0
  -19.8730   -2.8650  -32.4590 C   0  0  0  0  0  0  0  0  0  0  0  0
  -21.6590    2.6290  -38.3890 H   0  0  0  0  0  0  0  0  0  0  0  0
  -24.1500   -0.3520  -36.7370 H   0  0  0  0  0  0  0  0  0  0  0  0
  -25.9610    0.3150  -38.3100 H   0  0  0  0  0  0  0  0  0  0  0  0
  -25.5940    2.1670  -39.9350 H   0  0  0  0  0  0  0  0  0  0  0  0
  -20.9740    0.0190  -36.9630 H   0  0  0  0  0  0  0  0  0  0  0  0
  -16.8380    5.2870  -35.0030 H   0  0  0  0  0  0  0  0  0  0  0  0
  -18.7420    6.8370  -36.0650 H   0  0  0  0  0  0  0  0  0  0  0  0
  -20.5470    5.2480  -37.1390 H   0  0  0  0  0  0  0  0  0  0  0  0
  -22.5520   -0.7630  -33.4760 H   0  0  0  0  0  0  0  0  0  0  0  0
  -23.2710   -1.4570  -34.9270 H   0  0  0  0  0  0  0  0  0  0  0  0
  -20.9370   -2.0370  -35.7400 H   0  0  0  0  0  0  0  0  0  0  0  0
  -21.4160   -2.7260  -34.1000 H   0  0  0  0  0  0  0  0  0  0  0  0
  -20.2410   -0.1560  -33.5780 H   0  0  0  0  0  0  0  0  0  0  0  0
  -19.3090   -0.7800  -34.9580 H   0  0  0  0  0  0  0  0  0  0  0  0
  -18.4580   -2.3580  -33.7730 H   0  0  0  0  0  0  0  0  0  0  0  0
  -17.3640   -1.4330  -32.1440 H   0  0  0  0  0  0  0  0  0  0  0  0
  -18.1970   -0.0440  -32.8670 H   0  0  0  0  0  0  0  0  0  0  0  0
  -18.1390   -0.3570  -30.3140 H   0  0  0  0  0  0  0  0  0  0  0  0
  -19.6320    0.2550  -31.0320 H   0  0  0  0  0  0  0  0  0  0  0  0
  -20.7990   -3.3270  -30.6130 H   0  0  0  0  0  0  0  0  0  0  0  0
  -21.4400   -1.8630  -31.3850 H   0  0  0  0  0  0  0  0  0  0  0  0
  -19.1400   -3.6700  -32.1450 H   0  0  0  0  0  0  0  0  0  0  0  0
  -20.6020   -3.3780  -33.0810 H   0  0  0  0  0  0  0  0  0  0  0  0
  1  2  1  0  0  0  0
  2  7  2  0  0  0  0
  2  3  1  0  0  0  0
  3  4  2  0  0  0  0
  4  5  1  0  0  0  0
  4  8  1  0  0  0  0
  5 32  1  0  0  0  0
  6 33  1  0  0  0  0
  6  5  2  0  0  0  0
  7  6  1  0  0  0  0
  8 35  1  6  0  0  0
  8 14  1  0  0  0  0
  8  9  1  0  0  0  0
  9 10  1  0  0  0  0
  9 22  1  0  0  0  0
 10 11  2  0  0  0  0
 12 13  2  0  0  0  0
 12 10  1  0  0  0  0
 14 12  1  0  0  0  0
 15 17  1  0  0  0  0
 15 14  2  0  0  0  0
 16 15  1  0  0  0  0
 17 18  1  0  0  0  0
 18 19  1  0  0  0  0
 19 36  1  0  0  0  0
 20 37  1  0  0  0  0
 20 19  2  0  0  0  0
 21 17  2  0  0  0  0
 21 20  1  0  0  0  0
 22 39  1  0  0  0  0
 23 22  1  0  0  0  0
 23 24  1  0  0  0  0
 23 42  1  0  0  0  0
 24 43  1  0  0  0  0
 24 25  1  0  0  0  0
 25 30  1  0  0  0  0
 25 26  1  0  0  0  0
 26 46  1  0  0  0  0
 26 27  1  0  0  0  0
 27 28  1  0  0  0  0
 27 48  1  0  0  0  0
 29 50  1  0  0  0  0
 29 28  1  0  0  0  0
 30 52  1  0  0  0  0
 30 29  1  0  0  0  0
 31  3  1  0  0  0  0
 34  7  1  0  0  0  0
 38 21  1  0  0  0  0
 40 22  1  0  0  0  0
 41 23  1  0  0  0  0
 44 24  1  0  0  0  0
 45 25  1  0  0  0  0
 47 26  1  0  0  0  0
 49 27  1  0  0  0  0
 51 29  1  0  0  0  0
 53 30  1  0  0  0  0
M  END
>  <Pose>
1

>  <Score>
-5.20

$$$$
