
 OpenBabel03222201593D

 58 61  0  0  1  0  0  0  0  0999 V2000
  -20.3760   -5.0280  -28.0780 B   0  0  0  0  0  0  0  0  0  0  0  0
  -19.5250   -3.5100  -27.2550 C   0  0  0  0  0  0  0  0  0  0  0  0
  -19.2120   -2.4080  -27.9960 C   0  0  0  0  0  0  0  0  0  0  0  0
  -18.5940   -1.2740  -27.4640 C   0  0  0  0  0  0  0  0  0  0  0  0
  -18.3130   -1.3390  -26.1170 C   0  0  0  0  0  0  0  0  0  0  0  0
  -18.6270   -2.4580  -25.3500 C   0  0  0  0  0  0  0  0  0  0  0  0
  -19.2320   -3.5400  -25.9240 C   0  0  0  0  0  0  0  0  0  0  0  0
  -18.2780   -0.0960  -28.3110 C   0  0  2  0  0  0  0  0  0  0  0  0
  -18.5850    1.1700  -27.6750 N   0  0  0  0  0  0  0  0  0  0  0  0
  -19.9880    1.4030  -27.9280 C   0  0  0  0  0  0  0  0  0  0  0  0
  -20.7370    2.1450  -27.2480 O   0  0  0  0  0  0  0  0  0  0  0  0
  -20.3380    0.6130  -29.1120 C   0  0  0  0  0  0  0  0  0  0  0  0
  -21.4530    0.5160  -29.6860 O   0  0  0  0  0  0  0  0  0  0  0  0
  -19.1360   -0.0860  -29.5530 C   0  0  0  0  0  0  0  0  0  0  0  0
  -18.8870   -0.5920  -30.7490 C   0  0  0  0  0  0  0  0  0  0  0  0
  -17.6960   -1.2370  -30.9710 O   0  0  0  0  0  0  0  0  0  0  0  0
  -19.8610   -0.4750  -31.8510 C   0  0  0  0  0  0  0  0  0  0  0  0
  -20.6700   -1.4180  -32.2500 O   0  0  0  0  0  0  0  0  0  0  0  0
  -21.4270   -1.0680  -33.2360 C   0  0  0  0  0  0  0  0  0  0  0  0
  -21.1070    0.2330  -33.5380 C   0  0  0  0  0  0  0  0  0  0  0  0
  -20.1120    0.6070  -32.6590 C   0  0  0  0  0  0  0  0  0  0  0  0
  -21.7820    0.8470  -34.5700 C   0  0  0  0  0  0  0  0  0  0  0  0
  -22.7580    0.1910  -35.2930 C   0  0  0  0  0  0  0  0  0  0  0  0
  -23.0520   -1.1330  -34.9490 C   0  0  0  0  0  0  0  0  0  0  0  0
  -22.4000   -1.7770  -33.9280 C   0  0  0  0  0  0  0  0  0  0  0  0
  -22.7210   -3.0750  -33.6220 O   0  0  0  0  0  0  0  0  0  0  0  0
  -21.8720   -4.0420  -33.0930 C   0  0  0  0  0  0  0  0  0  0  0  0
  -17.7110    2.0330  -26.9190 C   0  0  0  0  0  0  0  0  0  0  0  0
  -17.6900    1.6580  -25.4570 C   0  0  0  0  0  0  0  0  0  0  0  0
  -17.2880    2.7480  -24.5310 C   0  0  0  0  0  0  0  0  0  0  0  0
  -17.0040    2.3320  -23.1930 N   0  0  0  0  0  4  0  0  0  0  0  0
  -18.0630    2.7700  -22.2790 C   0  0  0  0  0  0  0  0  0  0  0  0
  -15.7400    2.8040  -22.7190 C   0  0  0  0  0  0  0  0  0  0  0  0
  -19.4350   -2.3600  -29.0540 H   0  0  0  0  0  0  0  0  0  0  0  0
  -17.8470   -0.5410  -25.6030 H   0  0  0  0  0  0  0  0  0  0  0  0
  -18.4050   -2.5100  -24.2920 H   0  0  0  0  0  0  0  0  0  0  0  0
  -19.4980   -4.4410  -25.3730 H   0  0  0  0  0  0  0  0  0  0  0  0
  -17.1990   -0.1770  -28.5540 H   0  0  0  0  0  0  0  0  0  0  0  0
  -19.6250    1.5640  -32.6120 H   0  0  0  0  0  0  0  0  0  0  0  0
  -21.5230    1.8690  -34.8020 H   0  0  0  0  0  0  0  0  0  0  0  0
  -23.2760    0.6900  -36.0990 H   0  0  0  0  0  0  0  0  0  0  0  0
  -23.8360   -1.6050  -35.5580 H   0  0  0  0  0  0  0  0  0  0  0  0
  -20.8230   -3.9790  -33.4400 H   0  0  0  0  0  0  0  0  0  0  0  0
  -22.2460   -5.0820  -33.2490 H   0  0  0  0  0  0  0  0  0  0  0  0
  -21.8280   -3.8900  -31.9900 H   0  0  0  0  0  0  0  0  0  0  0  0
  -16.6810    1.9620  -27.3230 H   0  0  0  0  0  0  0  0  0  0  0  0
  -18.1190    3.0640  -26.9920 H   0  0  0  0  0  0  0  0  0  0  0  0
  -18.7180    1.2890  -25.1550 H   0  0  0  0  0  0  0  0  0  0  0  0
  -17.0510    0.7370  -25.3240 H   0  0  0  0  0  0  0  0  0  0  0  0
  -18.1110    3.5060  -24.5480 H   0  0  0  0  0  0  0  0  0  0  0  0
  -16.3790    3.2510  -24.9480 H   0  0  0  0  0  0  0  0  0  0  0  0
  -17.0000    1.2770  -23.0910 H   0  0  0  0  0  0  0  0  0  0  0  0
  -17.9990    2.1580  -21.3620 H   0  0  0  0  0  0  0  0  0  0  0  0
  -18.0240    3.8540  -22.0860 H   0  0  0  0  0  0  0  0  0  0  0  0
  -19.0640    2.5910  -22.7620 H   0  0  0  0  0  0  0  0  0  0  0  0
  -14.9340    2.3950  -23.3590 H   0  0  0  0  0  0  0  0  0  0  0  0
  -15.6840    3.9110  -22.7430 H   0  0  0  0  0  0  0  0  0  0  0  0
  -15.6160    2.4770  -21.6530 H   0  0  0  0  0  0  0  0  0  0  0  0
  1  2  1  0  0  0  0
  2  7  1  0  0  0  0
  3  4  1  0  0  0  0
  3  2  2  0  0  0  0
  4  5  2  0  0  0  0
  5 35  1  0  0  0  0
  5  6  1  0  0  0  0
  6 36  1  0  0  0  0
  7 37  1  0  0  0  0
  7  6  2  0  0  0  0
  8 38  1  6  0  0  0
  8  9  1  0  0  0  0
  8  4  1  0  0  0  0
  9 28  1  0  0  0  0
 10  9  1  0  0  0  0
 10 11  2  0  0  0  0
 12 10  1  0  0  0  0
 13 12  2  0  0  0  0
 14 12  1  0  0  0  0
 14  8  1  0  0  0  0
 15 14  2  0  0  0  0
 16 15  1  0  0  0  0
 17 15  1  0  0  0  0
 18 17  1  0  0  0  0
 19 18  1  0  0  0  0
 20 19  1  0  0  0  0
 20 21  1  0  0  0  0
 21 39  1  0  0  0  0
 21 17  2  0  0  0  0
 22 20  2  0  0  0  0
 23 24  2  0  0  0  0
 23 22  1  0  0  0  0
 24 25  1  0  0  0  0
 25 26  1  0  0  0  0
 25 19  2  0  0  0  0
 26 27  1  0  0  0  0
 27 45  1  0  0  0  0
 28 29  1  0  0  0  0
 29 49  1  0  0  0  0
 29 48  1  0  0  0  0
 29 30  1  0  0  0  0
 30 31  1  0  0  0  0
 31 52  1  0  0  0  0
 31 33  1  0  0  0  0
 31 32  1  0  0  0  0
 32 54  1  0  0  0  0
 32 53  1  0  0  0  0
 33 58  1  0  0  0  0
 34  3  1  0  0  0  0
 40 22  1  0  0  0  0
 41 23  1  0  0  0  0
 42 24  1  0  0  0  0
 43 27  1  0  0  0  0
 44 27  1  0  0  0  0
 46 28  1  0  0  0  0
 47 28  1  0  0  0  0
 50 30  1  0  0  0  0
 51 30  1  0  0  0  0
 55 32  1  0  0  0  0
 56 33  1  0  0  0  0
 57 33  1  0  0  0  0
M  END
>  <Pose>
1

>  <Score>
-6.21

$$$$
