
 OpenBabel03222201593D

 38 41  0  0  1  0  0  0  0  0999 V2000
  -23.8020    0.4630  -34.8820 B   0  0  0  0  0  0  0  0  0  0  0  0
  -21.9150    0.4620  -35.1490 C   0  0  0  0  0  0  0  0  0  0  0  0
  -21.0580   -0.0760  -34.2180 C   0  0  0  0  0  0  0  0  0  0  0  0
  -19.6650   -0.0930  -34.3840 C   0  0  0  0  0  0  0  0  0  0  0  0
  -19.1890    0.4620  -35.5390 C   0  0  0  0  0  0  0  0  0  0  0  0
  -20.0680    1.0050  -36.4800 C   0  0  0  0  0  0  0  0  0  0  0  0
  -21.4130    1.0080  -36.2930 C   0  0  0  0  0  0  0  0  0  0  0  0
  -18.8620   -0.6650  -33.3790 N   0  0  0  0  0  0  0  0  0  0  0  0
  -19.0570   -0.5110  -31.9980 C   0  0  0  0  0  0  0  0  0  0  0  0
  -18.2800    0.0540  -31.2140 O   0  0  0  0  0  0  0  0  0  0  0  0
  -20.3060   -1.0650  -31.3690 C   0  0  2  0  0  0  0  0  0  0  0  0
  -20.5630   -0.5580  -29.9730 C   0  0  0  0  0  0  0  0  0  0  0  0
  -19.9310   -1.7520  -29.3920 N   0  0  2  0  0  0  0  0  0  0  0  0
  -20.1250   -2.3870  -30.6830 C   0  0  0  0  0  0  0  0  0  0  0  0
  -19.3950   -2.0560  -28.1110 C   0  0  1  0  0  0  0  0  0  0  0  0
  -18.6500   -1.1630  -27.4090 N   0  0  0  0  0  0  0  0  0  0  0  0
  -18.1480   -1.4800  -26.1800 C   0  0  0  0  0  0  0  0  0  0  0  0
  -18.3720   -2.6760  -25.6270 N   0  0  0  0  0  0  0  0  0  0  0  0
  -19.0950   -3.6010  -26.2600 C   0  0  0  0  0  0  0  0  0  0  0  0
  -19.4560   -4.8560  -25.9250 N   0  0  0  0  0  0  0  0  0  0  0  0
  -20.1730   -5.3160  -26.9270 N   0  0  0  0  0  0  0  0  0  0  0  0
  -20.2780   -4.3940  -27.8900 N   0  0  0  0  0  0  0  0  0  0  0  0
  -19.6020   -3.2790  -27.5030 C   0  0  0  0  0  0  0  0  0  0  0  0
  -19.1360   -5.5890  -24.7030 C   0  0  0  0  0  0  0  0  0  0  0  0
  -21.4810   -0.5050  -33.3170 H   0  0  0  0  0  0  0  0  0  0  0  0
  -18.1170    0.4910  -35.7500 H   0  0  0  0  0  0  0  0  0  0  0  0
  -19.6300    1.4370  -37.3890 H   0  0  0  0  0  0  0  0  0  0  0  0
  -22.0780    1.4380  -37.0410 H   0  0  0  0  0  0  0  0  0  0  0  0
  -18.0290   -1.2710  -33.7200 H   0  0  0  0  0  0  0  0  0  0  0  0
  -21.2030   -0.9520  -32.0020 H   0  0  0  0  0  0  0  0  0  0  0  0
  -19.9640    0.3230  -29.6610 H   0  0  0  0  0  0  0  0  0  0  0  0
  -21.6110   -0.5180  -29.6620 H   0  0  0  0  0  0  0  0  0  0  0  0
  -19.2410   -2.9420  -31.0620 H   0  0  0  0  0  0  0  0  0  0  0  0
  -21.0200   -3.0240  -30.6540 H   0  0  0  0  0  0  0  0  0  0  0  0
  -17.5650   -0.7210  -25.6810 H   0  0  0  0  0  0  0  0  0  0  0  0
  -19.9210   -6.3220  -24.4540 H   0  0  0  0  0  0  0  0  0  0  0  0
  -19.0950   -4.8840  -23.8210 H   0  0  0  0  0  0  0  0  0  0  0  0
  -18.1590   -6.0720  -24.7490 H   0  0  0  0  0  0  0  0  0  0  0  0
  2  1  1  0  0  0  0
  2  3  1  0  0  0  0
  3 25  1  0  0  0  0
  4  3  2  0  0  0  0
  4  8  1  0  0  0  0
  5  4  1  0  0  0  0
  6  7  1  0  0  0  0
  6  5  2  0  0  0  0
  7  2  2  0  0  0  0
  8  9  1  0  0  0  0
  9 11  1  0  0  0  0
  9 10  2  0  0  0  0
 11 30  1  6  0  0  0
 11 14  1  0  0  0  0
 11 12  1  0  0  0  0
 12 32  1  0  0  0  0
 12 31  1  0  0  0  0
 12 13  1  0  0  0  0
 13 14  1  1  0  0  0
 13 15  1  0  0  0  0
 14 34  1  0  0  0  0
 15 23  1  1  0  0  0
 15 16  1  0  0  0  0
 16 17  2  0  0  0  0
 17 35  1  0  0  0  0
 17 18  1  0  0  0  0
 19 20  1  0  0  0  0
 19 18  1  0  0  0  0
 20 24  1  0  0  0  0
 21 20  1  0  0  0  0
 22 23  1  0  0  0  0
 22 21  2  0  0  0  0
 23 19  2  0  0  0  0
 24 36  1  0  0  0  0
 24 37  1  0  0  0  0
 26  5  1  0  0  0  0
 27  6  1  0  0  0  0
 28  7  1  0  0  0  0
 29  8  1  0  0  0  0
 33 14  1  0  0  0  0
 38 24  1  0  0  0  0
M  END
>  <Pose>
1

>  <Score>
-6.50

$$$$
