
 OpenBabel03222201593D

 25 28  0  0  1  0  0  0  0  0999 V2000
  -21.8480   -4.6430  -32.1160 B   0  0  0  0  0  0  0  0  0  0  0  0
  -20.8400   -3.0320  -32.2680 C   0  0  0  0  0  0  0  0  0  0  0  0
  -20.2660   -2.4250  -31.1640 C   0  0  0  0  0  0  0  0  0  0  0  0
  -19.5300   -1.2710  -31.1960 C   0  0  0  0  0  0  0  0  0  0  0  0
  -19.3880   -0.7130  -32.4840 C   0  0  0  0  0  0  0  0  0  0  0  0
  -19.9440   -1.2870  -33.6000 C   0  0  0  0  0  0  0  0  0  0  0  0
  -20.6730   -2.4510  -33.4980 C   0  0  0  0  0  0  0  0  0  0  0  0
  -18.9290   -0.6220  -30.0980 N   0  0  0  0  0  0  0  0  0  0  0  0
  -18.9170   -1.1220  -28.7740 C   0  0  1  0  0  0  0  0  0  0  0  0
  -19.3120   -2.3230  -28.3660 N   0  0  0  0  0  0  0  0  0  0  0  0
  -19.2830   -2.7580  -27.0950 C   0  0  0  0  0  0  0  0  0  0  0  0
  -19.6150   -3.8870  -26.4450 N   0  0  0  0  0  0  0  0  0  0  0  0
  -19.3810   -3.7850  -25.1740 O   0  0  0  0  0  0  0  0  0  0  0  0
  -18.9000   -2.6110  -24.9620 N   0  0  0  0  0  0  0  0  0  0  0  0
  -18.8080   -1.9100  -26.1040 C   0  0  0  0  0  0  0  0  0  0  0  0
  -18.3960   -0.6860  -26.4680 N   0  0  0  0  0  0  0  0  0  0  0  0
  -17.9060    0.2930  -25.7120 N   0  0  0  0  0  0  0  0  0  0  0  0
  -17.6370    1.3240  -26.5270 N   0  0  0  0  0  0  0  0  0  0  0  0
  -17.9660    0.9640  -27.7690 N   0  0  0  0  0  0  0  0  0  0  0  0
  -18.4390   -0.2840  -27.7480 C   0  0  0  0  0  0  0  0  0  0  0  0
  -20.4300   -2.9250  -30.2350 H   0  0  0  0  0  0  0  0  0  0  0  0
  -18.8260    0.1940  -32.5980 H   0  0  0  0  0  0  0  0  0  0  0  0
  -19.8250   -0.8430  -34.5860 H   0  0  0  0  0  0  0  0  0  0  0  0
  -21.1110   -2.9050  -34.3710 H   0  0  0  0  0  0  0  0  0  0  0  0
  -18.4610    0.3050  -30.3110 H   0  0  0  0  0  0  0  0  0  0  0  0
  2  1  1  0  0  0  0
  2  3  1  0  0  0  0
  3 21  1  0  0  0  0
  4  3  2  0  0  0  0
  4  8  1  0  0  0  0
  5  4  1  0  0  0  0
  6  7  1  0  0  0  0
  6  5  2  0  0  0  0
  7  2  2  0  0  0  0
  9  8  1  6  0  0  0
  9 10  1  0  0  0  0
  9 20  1  0  0  0  0
 10 11  2  0  0  0  0
 11 12  1  0  0  0  0
 11 15  1  0  0  0  0
 12 13  1  0  0  0  0
 13 14  1  0  0  0  0
 15 14  2  0  0  0  0
 16 15  1  0  0  0  0
 16 17  1  0  0  0  0
 18 17  2  0  0  0  0
 19 20  2  0  0  0  0
 19 18  1  0  0  0  0
 20 16  1  0  0  0  0
 22  5  1  0  0  0  0
 23  6  1  0  0  0  0
 24  7  1  0  0  0  0
 25  8  1  0  0  0  0
M  END
>  <Pose>
1

>  <Score>
-6.78

$$$$
