
 OpenBabel03222201593D

 38 41  0  0  0  0  0  0  0  0999 V2000
  -21.1210   -1.1610  -33.7560 B   0  0  0  0  0  0  0  0  0  0  0  0
  -21.3320   -2.7680  -32.7520 C   0  0  0  0  0  0  0  0  0  0  0  0
  -20.8350   -2.8700  -31.4480 C   0  0  0  0  0  0  0  0  0  0  0  0
  -20.9890   -4.0290  -30.7270 C   0  0  0  0  0  0  0  0  0  0  0  0
  -21.6450   -5.0820  -31.3260 C   0  0  0  0  0  0  0  0  0  0  0  0
  -22.1460   -4.9920  -32.6290 C   0  0  0  0  0  0  0  0  0  0  0  0
  -21.9870   -3.8260  -33.3430 C   0  0  0  0  0  0  0  0  0  0  0  0
  -20.4970   -4.1840  -29.3880 N   0  0  0  0  0  0  0  0  0  0  0  0
  -20.2320   -5.2780  -28.7240 N   0  0  0  0  0  0  0  0  0  0  0  0
  -19.7950   -4.9920  -27.5080 N   0  0  0  0  0  0  0  0  0  0  0  0
  -19.7740   -3.6440  -27.3710 C   0  0  0  0  0  0  0  0  0  0  0  0
  -20.2230   -3.1510  -28.5750 C   0  0  0  0  0  0  0  0  0  0  0  0
  -19.3650   -2.8690  -26.2070 C   0  0  0  0  0  0  0  0  0  0  0  0
  -19.7860   -3.2260  -25.0780 O   0  0  0  0  0  0  0  0  0  0  0  0
  -18.5220   -1.7420  -26.2940 N   0  0  0  0  0  0  0  0  0  0  0  0
  -17.5070   -1.4030  -25.3230 C   0  0  0  0  0  0  0  0  0  0  0  0
  -17.6710    0.0120  -24.8400 C   0  0  0  0  0  0  0  0  0  0  0  0
  -17.8820    1.1300  -25.5760 N   0  0  0  0  0  0  0  0  0  0  0  0
  -17.9740    2.1880  -24.7640 C   0  0  0  0  0  0  0  0  0  0  0  0
  -17.8140    1.7080  -23.5070 N   0  0  0  0  0  0  0  0  0  0  0  0
  -17.6330    0.4030  -23.5530 N   0  0  0  0  0  0  0  0  0  0  0  0
  -18.2100    3.4550  -25.5480 C   0  0  0  0  0  0  0  0  0  0  0  0
  -17.7870    3.0150  -26.9340 C   0  0  0  0  0  0  0  0  0  0  0  0
  -18.0340    1.5180  -26.9680 C   0  0  0  0  0  0  0  0  0  0  0  0
  -20.3210   -2.0450  -30.9810 H   0  0  0  0  0  0  0  0  0  0  0  0
  -21.7690   -5.9950  -30.7650 H   0  0  0  0  0  0  0  0  0  0  0  0
  -22.6660   -5.8330  -33.0960 H   0  0  0  0  0  0  0  0  0  0  0  0
  -22.3730   -3.7500  -34.3510 H   0  0  0  0  0  0  0  0  0  0  0  0
  -20.3320   -2.0980  -28.8140 H   0  0  0  0  0  0  0  0  0  0  0  0
  -18.6400   -1.1090  -27.1160 H   0  0  0  0  0  0  0  0  0  0  0  0
  -17.5210   -2.1100  -24.4730 H   0  0  0  0  0  0  0  0  0  0  0  0
  -16.4980   -1.4260  -25.8300 H   0  0  0  0  0  0  0  0  0  0  0  0
  -17.6070    4.2720  -25.1470 H   0  0  0  0  0  0  0  0  0  0  0  0
  -19.3060    3.6780  -25.5780 H   0  0  0  0  0  0  0  0  0  0  0  0
  -18.4210    3.4530  -27.7290 H   0  0  0  0  0  0  0  0  0  0  0  0
  -16.7120    3.2680  -27.0390 H   0  0  0  0  0  0  0  0  0  0  0  0
  -19.0170    1.2700  -27.3970 H   0  0  0  0  0  0  0  0  0  0  0  0
  -17.2590    1.0730  -27.6240 H   0  0  0  0  0  0  0  0  0  0  0  0
  1  2  1  0  0  0  0
  2  3  1  0  0  0  0
  3 25  1  0  0  0  0
  3  4  2  0  0  0  0
  4  8  1  0  0  0  0
  5 26  1  0  0  0  0
  5  4  1  0  0  0  0
  6  5  2  0  0  0  0
  7  2  2  0  0  0  0
  7  6  1  0  0  0  0
  8  9  1  0  0  0  0
  8 12  1  0  0  0  0
  9 10  2  0  0  0  0
 10 11  1  0  0  0  0
 11 13  1  0  0  0  0
 12 11  2  0  0  0  0
 13 14  2  0  0  0  0
 15 13  1  0  0  0  0
 15 16  1  0  0  0  0
 16 17  1  0  0  0  0
 16 31  1  0  0  0  0
 17 21  2  0  0  0  0
 18 17  1  0  0  0  0
 18 19  1  0  0  0  0
 19 20  2  0  0  0  0
 21 20  1  0  0  0  0
 22 33  1  0  0  0  0
 22 19  1  0  0  0  0
 23 22  1  0  0  0  0
 24 23  1  0  0  0  0
 24 18  1  0  0  0  0
 27  6  1  0  0  0  0
 28  7  1  0  0  0  0
 29 12  1  0  0  0  0
 30 15  1  0  0  0  0
 32 16  1  0  0  0  0
 34 22  1  0  0  0  0
 35 23  1  0  0  0  0
 36 23  1  0  0  0  0
 37 24  1  0  0  0  0
 38 24  1  0  0  0  0
M  END
>  <Pose>
1

>  <Score>
-6.56

$$$$
