
 OpenBabel03222201593D

 58 61  0  0  1  0  0  0  0  0999 V2000
  -20.4170   -4.9500  -28.6670 B   0  0  0  0  0  0  0  0  0  0  0  0
  -20.4990   -3.9050  -30.2490 C   0  0  0  0  0  0  0  0  0  0  0  0
  -21.1050   -4.4350  -31.3630 C   0  0  0  0  0  0  0  0  0  0  0  0
  -21.1710   -3.6910  -32.5120 C   0  0  0  0  0  0  0  0  0  0  0  0
  -20.6390   -2.3990  -32.5870 C   0  0  0  0  0  0  0  0  0  0  0  0
  -20.0450   -1.9260  -31.4350 C   0  0  0  0  0  0  0  0  0  0  0  0
  -19.9590   -2.6470  -30.2580 C   0  0  0  0  0  0  0  0  0  0  0  0
  -20.7280   -1.6290  -33.8150 C   0  0  0  0  0  0  0  0  0  0  0  0
  -19.6820   -1.3990  -34.4560 O   0  0  0  0  0  0  0  0  0  0  0  0
  -22.0150   -1.1420  -34.2750 C   0  0  2  0  0  0  0  0  0  0  0  0
  -22.0130   -0.5200  -35.6500 C   0  0  1  0  0  0  0  0  0  0  0  0
  -23.2920    0.1520  -35.6820 N   0  0  0  0  0  0  0  0  0  0  0  0
  -23.5380    0.6070  -34.3550 C   0  0  0  0  0  0  0  0  0  0  0  0
  -24.4900    1.3660  -33.9950 O   0  0  0  0  0  0  0  0  0  0  0  0
  -22.4960    0.0440  -33.4750 C   0  0  0  0  0  0  0  0  0  0  0  0
  -22.1370    0.4680  -32.3650 O   0  0  0  0  0  0  0  0  0  0  0  0
  -24.1990    0.3650  -36.7820 C   0  0  0  0  0  0  0  0  0  0  0  0
  -23.5070    0.6100  -38.0890 C   0  0  0  0  0  0  0  0  0  0  0  0
  -23.0720    1.9350  -38.3090 N   0  0  0  0  0  4  0  0  0  0  0  0
  -23.9200    2.5250  -39.3510 C   0  0  0  0  0  0  0  0  0  0  0  0
  -23.6590    1.9420  -40.7000 C   0  0  0  0  0  0  0  0  0  0  0  0
  -22.5010    1.2110  -40.7980 O   0  0  0  0  0  0  0  0  0  0  0  0
  -21.4580    1.8400  -40.1650 C   0  0  0  0  0  0  0  0  0  0  0  0
  -21.7200    2.1070  -38.7070 C   0  0  0  0  0  0  0  0  0  0  0  0
  -20.8740    0.3440  -35.9190 C   0  0  0  0  0  0  0  0  0  0  0  0
  -20.5340    1.4120  -35.0760 C   0  0  0  0  0  0  0  0  0  0  0  0
  -19.4500    2.2240  -35.3360 C   0  0  0  0  0  0  0  0  0  0  0  0
  -18.6500    2.0130  -36.4440 C   0  0  0  0  0  0  0  0  0  0  0  0
  -18.9650    0.9670  -37.2850 C   0  0  0  0  0  0  0  0  0  0  0  0
  -20.0580    0.1610  -37.0110 C   0  0  0  0  0  0  0  0  0  0  0  0
  -17.5530    2.8160  -36.7280 O   0  0  0  0  0  0  0  0  0  0  0  0
  -19.1100    3.2800  -34.5090 O   0  0  0  0  0  0  0  0  0  0  0  0
  -18.3210    3.1420  -33.3550 C   0  0  0  0  0  0  0  0  0  0  0  0
  -21.5120   -5.4260  -31.3010 H   0  0  0  0  0  0  0  0  0  0  0  0
  -21.6360   -4.0590  -33.4150 H   0  0  0  0  0  0  0  0  0  0  0  0
  -19.6130   -0.9350  -31.4080 H   0  0  0  0  0  0  0  0  0  0  0  0
  -19.4950   -2.2640  -29.3740 H   0  0  0  0  0  0  0  0  0  0  0  0
  -22.8340   -1.8900  -34.2130 H   0  0  0  0  0  0  0  0  0  0  0  0
  -21.9700   -1.3700  -36.3650 H   0  0  0  0  0  0  0  0  0  0  0  0
  -24.7710    1.3010  -36.5390 H   0  0  0  0  0  0  0  0  0  0  0  0
  -24.9340   -0.4280  -36.9160 H   0  0  0  0  0  0  0  0  0  0  0  0
  -24.1680    0.3160  -38.9560 H   0  0  0  0  0  0  0  0  0  0  0  0
  -22.6450   -0.0860  -38.1430 H   0  0  0  0  0  0  0  0  0  0  0  0
  -23.2410    2.5380  -37.4570 H   0  0  0  0  0  0  0  0  0  0  0  0
  -24.9870    2.5160  -39.0620 H   0  0  0  0  0  0  0  0  0  0  0  0
  -23.6200    3.6080  -39.3950 H   0  0  0  0  0  0  0  0  0  0  0  0
  -24.5060    1.2560  -40.9490 H   0  0  0  0  0  0  0  0  0  0  0  0
  -23.6050    2.7380  -41.4980 H   0  0  0  0  0  0  0  0  0  0  0  0
  -20.5240    1.2230  -40.3130 H   0  0  0  0  0  0  0  0  0  0  0  0
  -21.2470    2.7830  -40.7410 H   0  0  0  0  0  0  0  0  0  0  0  0
  -20.9790    1.5330  -38.1220 H   0  0  0  0  0  0  0  0  0  0  0  0
  -21.4550    3.1910  -38.5320 H   0  0  0  0  0  0  0  0  0  0  0  0
  -21.1640    1.5790  -34.2030 H   0  0  0  0  0  0  0  0  0  0  0  0
  -18.3330    0.8130  -38.1490 H   0  0  0  0  0  0  0  0  0  0  0  0
  -20.2580   -0.6310  -37.6870 H   0  0  0  0  0  0  0  0  0  0  0  0
  -18.6810    2.3060  -32.6990 H   0  0  0  0  0  0  0  0  0  0  0  0
  -18.4380    4.0620  -32.7440 H   0  0  0  0  0  0  0  0  0  0  0  0
  -17.2510    3.0070  -33.5530 H   0  0  0  0  0  0  0  0  0  0  0  0
  2  1  1  0  0  0  0
  3 34  1  0  0  0  0
  3  2  2  0  0  0  0
  4  3  1  0  0  0  0
  5  4  2  0  0  0  0
  5  6  1  0  0  0  0
  6 36  1  0  0  0  0
  6  7  2  0  0  0  0
  7  2  1  0  0  0  0
  7 37  1  0  0  0  0
  8  5  1  0  0  0  0
  9  8  2  0  0  0  0
 10 38  1  1  0  0  0
 10  8  1  0  0  0  0
 10 15  1  0  0  0  0
 11 39  1  6  0  0  0
 11 10  1  0  0  0  0
 12 11  1  0  0  0  0
 12 13  1  0  0  0  0
 13 14  2  0  0  0  0
 13 15  1  0  0  0  0
 15 16  2  0  0  0  0
 17 40  1  0  0  0  0
 17 12  1  0  0  0  0
 18 17  1  0  0  0  0
 19 18  1  0  0  0  0
 19 44  1  0  0  0  0
 20 45  1  0  0  0  0
 20 19  1  0  0  0  0
 21 20  1  0  0  0  0
 22 21  1  0  0  0  0
 22 23  1  0  0  0  0
 23 24  1  0  0  0  0
 24 52  1  0  0  0  0
 24 19  1  0  0  0  0
 24 51  1  0  0  0  0
 25 11  1  0  0  0  0
 25 26  1  0  0  0  0
 26 53  1  0  0  0  0
 27 26  2  0  0  0  0
 27 32  1  0  0  0  0
 28 27  1  0  0  0  0
 29 30  1  0  0  0  0
 29 28  2  0  0  0  0
 30 25  2  0  0  0  0
 31 28  1  0  0  0  0
 32 33  1  0  0  0  0
 33 57  1  0  0  0  0
 33 56  1  0  0  0  0
 35  4  1  0  0  0  0
 41 17  1  0  0  0  0
 42 18  1  0  0  0  0
 43 18  1  0  0  0  0
 46 20  1  0  0  0  0
 47 21  1  0  0  0  0
 48 21  1  0  0  0  0
 49 23  1  0  0  0  0
 50 23  1  0  0  0  0
 54 29  1  0  0  0  0
 55 30  1  0  0  0  0
 58 33  1  0  0  0  0
M  END
>  <Pose>
1

>  <Score>
-6.24

$$$$
