
 OpenBabel03222201593D

 35 38  0  0  1  0  0  0  0  0999 V2000
  -19.1620   -3.0110  -25.7490 B   0  0  0  0  0  0  0  0  0  0  0  0
  -19.7350   -3.4500  -27.5200 C   0  0  0  0  0  0  0  0  0  0  0  0
  -19.7100   -2.4960  -28.4950 C   0  0  0  0  0  0  0  0  0  0  0  0
  -20.1170   -2.7960  -29.7780 C   0  0  0  0  0  0  0  0  0  0  0  0
  -20.5610   -4.0730  -30.1100 C   0  0  0  0  0  0  0  0  0  0  0  0
  -20.5780   -5.0220  -29.1140 C   0  0  0  0  0  0  0  0  0  0  0  0
  -20.1770   -4.7350  -27.8350 C   0  0  0  0  0  0  0  0  0  0  0  0
  -20.9640   -4.3420  -31.4700 C   0  0  0  0  0  0  0  0  0  0  0  0
  -21.7640   -5.3130  -31.6680 O   0  0  0  0  0  0  0  0  0  0  0  0
  -20.4810   -3.5500  -32.5330 N   0  0  0  0  0  0  0  0  0  0  0  0
  -21.1360   -2.3520  -32.9210 N   0  0  0  0  0  0  0  0  0  0  0  0
  -20.9740   -1.0350  -32.4080 C   0  0  0  0  0  0  0  0  0  0  0  0
  -20.2760   -0.8070  -31.3620 O   0  0  0  0  0  0  0  0  0  0  0  0
  -21.7070   -0.0530  -33.2480 C   0  0  2  0  0  0  0  0  0  0  0  0
  -22.1800   -0.9170  -34.4010 C   0  0  1  0  0  0  0  0  0  0  0  0
  -21.1300   -0.5950  -35.4430 C   0  0  1  0  0  0  0  0  0  0  0  0
  -21.2200    0.9420  -35.3410 C   0  0  0  0  0  0  0  0  0  0  0  0
  -20.7690    0.9440  -33.8680 C   0  0  2  0  0  0  0  0  0  0  0  0
  -19.4630    0.2190  -34.0580 C   0  0  0  0  0  0  0  0  0  0  0  0
  -19.7570   -0.7690  -34.8940 C   0  0  0  0  0  0  0  0  0  0  0  0
  -22.1080   -2.3170  -33.9460 C   0  0  0  0  0  0  0  0  0  0  0  0
  -22.7860   -3.2660  -34.3970 O   0  0  0  0  0  0  0  0  0  0  0  0
  -19.3760   -1.5080  -28.2760 H   0  0  0  0  0  0  0  0  0  0  0  0
  -20.0870   -2.0060  -30.5200 H   0  0  0  0  0  0  0  0  0  0  0  0
  -20.9250   -6.0340  -29.3560 H   0  0  0  0  0  0  0  0  0  0  0  0
  -20.1840   -5.4660  -27.0360 H   0  0  0  0  0  0  0  0  0  0  0  0
  -19.6340   -3.8410  -33.0530 H   0  0  0  0  0  0  0  0  0  0  0  0
  -22.5400    0.4200  -32.6940 H   0  0  0  0  0  0  0  0  0  0  0  0
  -23.1600   -0.5940  -34.7380 H   0  0  0  0  0  0  0  0  0  0  0  0
  -21.3100   -0.9680  -36.4230 H   0  0  0  0  0  0  0  0  0  0  0  0
  -20.4840    1.4160  -35.9990 H   0  0  0  0  0  0  0  0  0  0  0  0
  -22.2470    1.2760  -35.4640 H   0  0  0  0  0  0  0  0  0  0  0  0
  -20.7040    1.9080  -33.4330 H   0  0  0  0  0  0  0  0  0  0  0  0
  -18.5540    0.5180  -33.5760 H   0  0  0  0  0  0  0  0  0  0  0  0
  -19.0830   -1.5770  -35.1320 H   0  0  0  0  0  0  0  0  0  0  0  0
  2  1  1  0  0  0  0
  3 23  1  0  0  0  0
  3  2  2  0  0  0  0
  4  3  1  0  0  0  0
  5  4  2  0  0  0  0
  5  6  1  0  0  0  0
  6  7  2  0  0  0  0
  7  2  1  0  0  0  0
  7 26  1  0  0  0  0
  8  5  1  0  0  0  0
  9  8  2  0  0  0  0
 10  8  1  0  0  0  0
 11 10  1  0  0  0  0
 11 12  1  0  0  0  0
 12 13  2  0  0  0  0
 14 28  1  1  0  0  0
 14 12  1  0  0  0  0
 15 29  1  6  0  0  0
 15 21  1  0  0  0  0
 15 14  1  0  0  0  0
 16 30  1  6  0  0  0
 16 17  1  0  0  0  0
 16 20  1  0  0  0  0
 16 15  1  0  0  0  0
 17 18  1  0  0  0  0
 18 33  1  1  0  0  0
 18 14  1  0  0  0  0
 19 18  1  0  0  0  0
 19 34  1  0  0  0  0
 20 19  2  0  0  0  0
 21 11  1  0  0  0  0
 22 21  2  0  0  0  0
 24  4  1  0  0  0  0
 25  6  1  0  0  0  0
 27 10  1  0  0  0  0
 31 17  1  0  0  0  0
 32 17  1  0  0  0  0
 35 20  1  0  0  0  0
M  END
>  <Pose>
1

>  <Score>
-5.59

$$$$
