
 OpenBabel03222201593D

 55 58  0  0  1  0  0  0  0  0999 V2000
  -18.3740   -1.3240  -26.5810 B   0  0  0  0  0  0  0  0  0  0  0  0
  -19.0910   -1.0670  -28.3470 C   0  0  0  0  0  0  0  0  0  0  0  0
  -20.0340   -0.0780  -28.5170 C   0  0  0  0  0  0  0  0  0  0  0  0
  -20.5580    0.1240  -29.7620 C   0  0  0  0  0  0  0  0  0  0  0  0
  -20.1500   -0.6540  -30.8440 C   0  0  0  0  0  0  0  0  0  0  0  0
  -19.2210   -1.6260  -30.6640 C   0  0  0  0  0  0  0  0  0  0  0  0
  -18.6830   -1.8410  -29.4130 C   0  0  0  0  0  0  0  0  0  0  0  0
  -20.8160   -0.3780  -32.1060 C   0  0  0  0  0  0  0  0  0  0  0  0
  -21.4620   -1.3140  -32.7490 C   0  0  0  0  0  0  0  0  0  0  0  0
  -22.2030   -1.1770  -34.0540 C   0  0  2  0  0  0  0  0  0  0  0  0
  -22.0410   -2.4550  -34.6580 N   0  0  0  0  0  0  0  0  0  0  0  0
  -21.9270   -3.4210  -33.5860 C   0  0  0  0  0  0  0  0  0  0  0  0
  -22.1080   -4.6600  -33.6540 O   0  0  0  0  0  0  0  0  0  0  0  0
  -21.5580   -2.7050  -32.3690 C   0  0  0  0  0  0  0  0  0  0  0  0
  -21.3670   -3.2420  -31.2260 O   0  0  0  0  0  0  0  0  0  0  0  0
  -22.0240   -2.9160  -36.0340 C   0  0  0  0  0  0  0  0  0  0  0  0
  -22.9340   -2.1860  -36.9690 C   0  0  0  0  0  0  0  0  0  0  0  0
  -22.3690   -2.0260  -38.2990 N   0  0  0  0  0  4  0  0  0  0  0  0
  -21.8000   -0.6840  -38.4620 C   0  0  0  0  0  0  0  0  0  0  0  0
  -21.1080   -0.7140  -39.8320 C   0  0  0  0  0  0  0  0  0  0  0  0
  -21.9830   -0.9870  -40.8540 O   0  0  0  0  0  0  0  0  0  0  0  0
  -22.7450   -2.1290  -40.6590 C   0  0  0  0  0  0  0  0  0  0  0  0
  -23.3980   -2.1520  -39.2990 C   0  0  0  0  0  0  0  0  0  0  0  0
  -21.7590   -0.0060  -34.7990 C   0  0  0  0  0  0  0  0  0  0  0  0
  -20.5070    0.1890  -35.3180 C   0  0  0  0  0  0  0  0  0  0  0  0
  -20.1700    1.3190  -36.0170 C   0  0  0  0  0  0  0  0  0  0  0  0
  -21.1080    2.2970  -36.2100 C   0  0  0  0  0  0  0  0  0  0  0  0
  -22.3980    2.1560  -35.7060 C   0  0  0  0  0  0  0  0  0  0  0  0
  -22.7010    1.0130  -35.0120 C   0  0  0  0  0  0  0  0  0  0  0  0
  -18.8630    1.4540  -36.5240 N   0  0  0  0  0  0  0  0  0  0  0  0
  -17.8690    0.9140  -35.9720 O   0  0  0  0  0  0  0  0  0  0  0  0
  -18.6740    2.2030  -37.6630 O   0  0  0  0  0  0  0  0  0  0  0  0
  -20.7820    0.9160  -32.6710 O   0  0  0  0  0  0  0  0  0  0  0  0
  -20.3800    0.5530  -27.6920 H   0  0  0  0  0  0  0  0  0  0  0  0
  -21.3160    0.9160  -29.9080 H   0  0  0  0  0  0  0  0  0  0  0  0
  -18.9200   -2.2600  -31.5100 H   0  0  0  0  0  0  0  0  0  0  0  0
  -17.9350   -2.6230  -29.2700 H   0  0  0  0  0  0  0  0  0  0  0  0
  -23.2870   -1.0840  -33.7850 H   0  0  0  0  0  0  0  0  0  0  0  0
  -22.3510   -3.9800  -36.0180 H   0  0  0  0  0  0  0  0  0  0  0  0
  -20.9990   -2.8810  -36.4610 H   0  0  0  0  0  0  0  0  0  0  0  0
  -23.3480   -1.2460  -36.6360 H   0  0  0  0  0  0  0  0  0  0  0  0
  -23.8460   -2.8780  -37.0700 H   0  0  0  0  0  0  0  0  0  0  0  0
  -21.6090   -2.6770  -38.5160 H   0  0  0  0  0  0  0  0  0  0  0  0
  -21.0040   -0.4830  -37.7210 H   0  0  0  0  0  0  0  0  0  0  0  0
  -22.5660    0.0940  -38.5190 H   0  0  0  0  0  0  0  0  0  0  0  0
  -20.5970    0.2260  -40.0440 H   0  0  0  0  0  0  0  0  0  0  0  0
  -20.3250   -1.5160  -39.7430 H   0  0  0  0  0  0  0  0  0  0  0  0
  -23.5880   -2.0650  -41.4070 H   0  0  0  0  0  0  0  0  0  0  0  0
  -22.2060   -3.0660  -40.8560 H   0  0  0  0  0  0  0  0  0  0  0  0
  -23.8940   -3.1280  -39.1590 H   0  0  0  0  0  0  0  0  0  0  0  0
  -24.1300   -1.3160  -39.2140 H   0  0  0  0  0  0  0  0  0  0  0  0
  -19.7640   -0.5700  -35.1640 H   0  0  0  0  0  0  0  0  0  0  0  0
  -20.9080    3.2110  -36.7520 H   0  0  0  0  0  0  0  0  0  0  0  0
  -23.1460    2.9370  -35.8600 H   0  0  0  0  0  0  0  0  0  0  0  0
  -23.7210    0.9040  -34.6140 H   0  0  0  0  0  0  0  0  0  0  0  0
  2  1  1  0  0  0  0
  3  2  1  0  0  0  0
  3 34  1  0  0  0  0
  4  3  2  0  0  0  0
  5  6  2  0  0  0  0
  5  4  1  0  0  0  0
  6  7  1  0  0  0  0
  7 37  1  0  0  0  0
  7  2  2  0  0  0  0
  8  5  1  0  0  0  0
  9 14  1  0  0  0  0
  9  8  2  0  0  0  0
 10 38  1  1  0  0  0
 10  9  1  0  0  0  0
 11 10  1  0  0  0  0
 11 12  1  0  0  0  0
 12 14  1  0  0  0  0
 13 12  2  0  0  0  0
 14 15  2  0  0  0  0
 16 39  1  0  0  0  0
 16 11  1  0  0  0  0
 17 41  1  0  0  0  0
 17 16  1  0  0  0  0
 18 17  1  0  0  0  0
 19 18  1  0  0  0  0
 19 44  1  0  0  0  0
 20 47  1  0  0  0  0
 20 19  1  0  0  0  0
 21 22  1  0  0  0  0
 21 20  1  0  0  0  0
 22 23  1  0  0  0  0
 23 51  1  0  0  0  0
 23 50  1  0  0  0  0
 23 18  1  0  0  0  0
 24 10  1  0  0  0  0
 25 52  1  0  0  0  0
 25 24  2  0  0  0  0
 26 25  1  0  0  0  0
 27 26  2  0  0  0  0
 27 28  1  0  0  0  0
 28 29  2  0  0  0  0
 29 24  1  0  0  0  0
 29 55  1  0  0  0  0
 30 26  1  0  0  0  0
 30 31  2  0  0  0  0
 32 30  2  0  0  0  0
 33  8  1  0  0  0  0
 35  4  1  0  0  0  0
 36  6  1  0  0  0  0
 40 16  1  0  0  0  0
 42 17  1  0  0  0  0
 43 18  1  0  0  0  0
 45 19  1  0  0  0  0
 46 20  1  0  0  0  0
 48 22  1  0  0  0  0
 49 22  1  0  0  0  0
 53 27  1  0  0  0  0
 54 28  1  0  0  0  0
M  END
>  <Pose>
1

>  <Score>
-6.74

$$$$
