
 OpenBabel03222201593D

 44 47  0  0  0  0  0  0  0  0999 V2000
  -17.8980    3.0940  -27.3080 B   0  0  0  0  0  0  0  0  0  0  0  0
  -18.4620    1.2640  -27.4740 C   0  0  0  0  0  0  0  0  0  0  0  0
  -17.8540    0.2660  -26.7470 C   0  0  0  0  0  0  0  0  0  0  0  0
  -18.2570   -1.0510  -26.8670 C   0  0  0  0  0  0  0  0  0  0  0  0
  -19.2840   -1.4260  -27.7170 C   0  0  0  0  0  0  0  0  0  0  0  0
  -19.8890   -0.4240  -28.4420 C   0  0  0  0  0  0  0  0  0  0  0  0
  -19.4860    0.9090  -28.3250 C   0  0  0  0  0  0  0  0  0  0  0  0
  -19.6860   -2.8260  -27.8160 C   0  0  0  0  0  0  0  0  0  0  0  0
  -20.1760   -3.2920  -28.9710 C   0  0  0  0  0  0  0  0  0  0  0  0
  -20.3290   -2.5130  -30.1060 O   0  0  0  0  0  0  0  0  0  0  0  0
  -20.8570   -3.2450  -31.1640 C   0  0  0  0  0  0  0  0  0  0  0  0
  -21.0600   -4.5210  -30.7330 C   0  0  0  0  0  0  0  0  0  0  0  0
  -21.5820   -5.4650  -31.5930 C   0  0  0  0  0  0  0  0  0  0  0  0
  -21.8800   -5.0650  -32.8690 C   0  0  0  0  0  0  0  0  0  0  0  0
  -21.6720   -3.7530  -33.3150 C   0  0  0  0  0  0  0  0  0  0  0  0
  -21.1550   -2.7990  -32.4750 C   0  0  0  0  0  0  0  0  0  0  0  0
  -20.8840   -1.3920  -32.7950 C   0  0  0  0  0  0  0  0  0  0  0  0
  -19.6810   -1.0730  -33.4610 N   0  0  0  0  0  4  0  0  0  0  0  0
  -19.8310    0.0450  -34.3690 C   0  0  0  0  0  0  0  0  0  0  0  0
  -19.6240    1.3440  -33.6100 C   0  0  0  0  0  0  0  0  0  0  0  0
  -18.2610    1.5240  -33.4350 O   0  0  0  0  0  0  0  0  0  0  0  0
  -17.6830    0.2640  -33.2450 C   0  0  0  0  0  0  0  0  0  0  0  0
  -18.6480   -0.6450  -32.5020 C   0  0  0  0  0  0  0  0  0  0  0  0
  -22.0020   -3.4270  -34.6310 O   0  0  0  0  0  0  0  0  0  0  0  0
  -20.6390   -4.6060  -29.3280 C   0  0  0  0  0  0  0  0  0  0  0  0
  -20.6600   -5.6020  -28.5610 O   0  0  0  0  0  0  0  0  0  0  0  0
  -17.0510    0.5690  -26.0840 H   0  0  0  0  0  0  0  0  0  0  0  0
  -17.7710   -1.8350  -26.2890 H   0  0  0  0  0  0  0  0  0  0  0  0
  -20.6900   -0.6610  -29.1140 H   0  0  0  0  0  0  0  0  0  0  0  0
  -19.9530    1.7060  -28.8910 H   0  0  0  0  0  0  0  0  0  0  0  0
  -19.6130   -3.5350  -26.9940 H   0  0  0  0  0  0  0  0  0  0  0  0
  -21.7490   -6.4860  -31.2660 H   0  0  0  0  0  0  0  0  0  0  0  0
  -22.2860   -5.7780  -33.5620 H   0  0  0  0  0  0  0  0  0  0  0  0
  -21.0430   -0.7770  -31.8780 H   0  0  0  0  0  0  0  0  0  0  0  0
  -21.7260   -1.0750  -33.4870 H   0  0  0  0  0  0  0  0  0  0  0  0
  -19.2630   -1.8990  -33.9360 H   0  0  0  0  0  0  0  0  0  0  0  0
  -19.1880   -0.0130  -35.2660 H   0  0  0  0  0  0  0  0  0  0  0  0
  -20.8820    0.0750  -34.7250 H   0  0  0  0  0  0  0  0  0  0  0  0
  -20.1650    1.2750  -32.6480 H   0  0  0  0  0  0  0  0  0  0  0  0
  -20.0830    2.1450  -34.2460 H   0  0  0  0  0  0  0  0  0  0  0  0
  -16.7510    0.4300  -32.6740 H   0  0  0  0  0  0  0  0  0  0  0  0
  -17.3860   -0.1970  -34.2180 H   0  0  0  0  0  0  0  0  0  0  0  0
  -18.0780   -1.5340  -32.1590 H   0  0  0  0  0  0  0  0  0  0  0  0
  -19.0550   -0.1090  -31.6450 H   0  0  0  0  0  0  0  0  0  0  0  0
  2  1  1  0  0  0  0
  2  3  1  0  0  0  0
  3 27  1  0  0  0  0
  4  3  2  0  0  0  0
  4 28  1  0  0  0  0
  5  4  1  0  0  0  0
  6  7  1  0  0  0  0
  6  5  2  0  0  0  0
  7  2  2  0  0  0  0
  8  5  1  0  0  0  0
  8 31  1  0  0  0  0
  9  8  2  0  0  0  0
 10  9  1  0  0  0  0
 11 12  1  0  0  0  0
 11 10  1  0  0  0  0
 12 25  1  0  0  0  0
 13 32  1  0  0  0  0
 13 12  2  0  0  0  0
 14 13  1  0  0  0  0
 15 14  2  0  0  0  0
 15 16  1  0  0  0  0
 16 11  2  0  0  0  0
 17 16  1  0  0  0  0
 17 34  1  0  0  0  0
 18 17  1  0  0  0  0
 18 23  1  0  0  0  0
 19 20  1  0  0  0  0
 19 18  1  0  0  0  0
 20 21  1  0  0  0  0
 20 39  1  0  0  0  0
 21 22  1  0  0  0  0
 22 41  1  0  0  0  0
 22 23  1  0  0  0  0
 23 43  1  0  0  0  0
 23 44  1  0  0  0  0
 24 15  1  0  0  0  0
 25  9  1  0  0  0  0
 25 26  2  0  0  0  0
 29  6  1  0  0  0  0
 30  7  1  0  0  0  0
 33 14  1  0  0  0  0
 35 17  1  0  0  0  0
 36 18  1  0  0  0  0
 37 19  1  0  0  0  0
 38 19  1  0  0  0  0
 40 20  1  0  0  0  0
 42 22  1  0  0  0  0
M  END
>  <Pose>
1

>  <Score>
-6.77

$$$$
