
 OpenBabel03222201593D

 41 44  0  0  0  0  0  0  0  0999 V2000
  -22.2820   -1.4540  -35.7100 B   0  0  0  0  0  0  0  0  0  0  0  0
  -21.5860   -1.2680  -33.9590 C   0  0  0  0  0  0  0  0  0  0  0  0
  -21.9350   -0.1730  -33.1970 C   0  0  0  0  0  0  0  0  0  0  0  0
  -21.4360   -0.0380  -31.9390 C   0  0  0  0  0  0  0  0  0  0  0  0
  -20.5710   -0.9760  -31.3720 C   0  0  0  0  0  0  0  0  0  0  0  0
  -20.2630   -2.0380  -32.1820 C   0  0  0  0  0  0  0  0  0  0  0  0
  -20.7350   -2.2270  -33.4570 C   0  0  0  0  0  0  0  0  0  0  0  0
  -19.9740   -0.6510  -30.0910 C   0  0  0  0  0  0  0  0  0  0  0  0
  -19.7100   -1.2880  -28.9580 N   0  0  0  0  0  0  0  0  0  0  0  0
  -19.1130   -0.4560  -28.0680 C   0  0  0  0  0  0  0  0  0  0  0  0
  -19.0150    0.7390  -28.6790 N   0  0  0  0  0  0  0  0  0  0  0  0
  -19.5170    0.6510  -29.8680 N   0  0  0  0  0  0  0  0  0  0  0  0
  -18.8390   -1.0730  -26.9120 N   0  0  0  0  0  0  0  0  0  0  0  0
  -19.2810   -2.3250  -27.0680 C   0  0  0  0  0  0  0  0  0  0  0  0
  -19.8400   -2.4960  -28.3420 C   0  0  0  0  0  0  0  0  0  0  0  0
  -20.3780   -3.6490  -28.7040 N   0  0  0  0  0  0  0  0  0  0  0  0
  -20.3540   -4.6710  -27.7930 C   0  0  0  0  0  0  0  0  0  0  0  0
  -20.8490   -5.7810  -28.0990 O   0  0  0  0  0  0  0  0  0  0  0  0
  -19.8200   -4.5420  -26.5730 N   0  0  0  0  0  0  0  0  0  0  0  0
  -19.2770   -3.3770  -26.1820 C   0  0  0  0  0  0  0  0  0  0  0  0
  -18.7670   -3.2180  -25.0430 O   0  0  0  0  0  0  0  0  0  0  0  0
  -21.0930   -3.9280  -29.9230 C   0  0  0  0  0  0  0  0  0  0  0  0
  -18.1990   -0.5090  -25.7450 C   0  0  0  0  0  0  0  0  0  0  0  0
  -18.2140    1.0040  -25.7450 C   0  0  0  0  0  0  0  0  0  0  0  0
  -17.0970    1.5340  -26.3800 O   0  0  0  0  0  0  0  0  0  0  0  0
  -17.2680    2.9170  -26.4360 C   0  0  0  0  0  0  0  0  0  0  0  0
  -22.6040    0.5870  -33.5870 H   0  0  0  0  0  0  0  0  0  0  0  0
  -21.7260    0.8370  -31.3520 H   0  0  0  0  0  0  0  0  0  0  0  0
  -19.5470   -2.7840  -31.7880 H   0  0  0  0  0  0  0  0  0  0  0  0
  -20.4500   -3.0820  -34.0270 H   0  0  0  0  0  0  0  0  0  0  0  0
  -19.8000   -5.3190  -25.8810 H   0  0  0  0  0  0  0  0  0  0  0  0
  -21.7910   -3.1240  -30.2030 H   0  0  0  0  0  0  0  0  0  0  0  0
  -20.4940   -4.3780  -30.7250 H   0  0  0  0  0  0  0  0  0  0  0  0
  -21.8500   -4.7840  -29.7020 H   0  0  0  0  0  0  0  0  0  0  0  0
  -17.1740   -0.8420  -25.6490 H   0  0  0  0  0  0  0  0  0  0  0  0
  -18.7930   -0.8730  -24.8750 H   0  0  0  0  0  0  0  0  0  0  0  0
  -18.2020    1.3600  -24.6840 H   0  0  0  0  0  0  0  0  0  0  0  0
  -19.1470    1.3440  -26.1960 H   0  0  0  0  0  0  0  0  0  0  0  0
  -17.3590    3.3310  -25.4000 H   0  0  0  0  0  0  0  0  0  0  0  0
  -18.1420    3.2160  -27.0510 H   0  0  0  0  0  0  0  0  0  0  0  0
  -16.3710    3.4050  -26.9080 H   0  0  0  0  0  0  0  0  0  0  0  0
  1  2  1  0  0  0  0
  2  7  2  0  0  0  0
  2  3  1  0  0  0  0
  3  4  2  0  0  0  0
  4  5  1  0  0  0  0
  4 28  1  0  0  0  0
  5  8  1  0  0  0  0
  6 29  1  0  0  0  0
  6  5  2  0  0  0  0
  7  6  1  0  0  0  0
  8 12  2  0  0  0  0
  8  9  1  0  0  0  0
  9 15  1  0  0  0  0
  9 10  1  0  0  0  0
 10 13  1  0  0  0  0
 11 10  2  0  0  0  0
 12 11  1  0  0  0  0
 13 23  1  0  0  0  0
 14 13  1  0  0  0  0
 14 20  1  0  0  0  0
 15 14  2  0  0  0  0
 16 15  1  0  0  0  0
 16 17  1  0  0  0  0
 17 19  1  0  0  0  0
 18 17  2  0  0  0  0
 19 20  1  0  0  0  0
 19 31  1  0  0  0  0
 20 21  2  0  0  0  0
 22 34  1  0  0  0  0
 22 16  1  0  0  0  0
 23 24  1  0  0  0  0
 23 35  1  0  0  0  0
 23 36  1  0  0  0  0
 24 37  1  0  0  0  0
 25 24  1  0  0  0  0
 26 25  1  0  0  0  0
 26 39  1  0  0  0  0
 27  3  1  0  0  0  0
 30  7  1  0  0  0  0
 32 22  1  0  0  0  0
 33 22  1  0  0  0  0
 38 24  1  0  0  0  0
 40 26  1  0  0  0  0
 41 26  1  0  0  0  0
M  END
>  <Pose>
1

>  <Score>
-7.45

$$$$
