
 OpenBabel03222201593D

 63 66  0  0  1  0  0  0  0  0999 V2000
  -21.1710    4.7640  -34.9640 B   0  0  0  0  0  0  0  0  0  0  0  0
  -20.8570    2.9000  -34.6190 C   0  0  0  0  0  0  0  0  0  0  0  0
  -19.6160    2.3610  -34.8740 C   0  0  0  0  0  0  0  0  0  0  0  0
  -19.3610    1.0080  -34.6300 C   0  0  0  0  0  0  0  0  0  0  0  0
  -20.3430    0.1790  -34.1300 C   0  0  0  0  0  0  0  0  0  0  0  0
  -21.5690    0.7560  -33.8880 C   0  0  0  0  0  0  0  0  0  0  0  0
  -21.8360    2.0840  -34.1230 C   0  0  0  0  0  0  0  0  0  0  0  0
  -20.0720   -1.2380  -33.8740 C   0  0  2  0  0  0  0  0  0  0  0  0
  -21.0880   -2.1140  -34.3900 N   0  0  0  0  0  0  0  0  0  0  0  0
  -21.6070   -2.9490  -33.3740 C   0  0  0  0  0  0  0  0  0  0  0  0
  -22.4940   -3.8520  -33.4740 O   0  0  0  0  0  0  0  0  0  0  0  0
  -20.9450   -2.6150  -32.0930 C   0  0  0  0  0  0  0  0  0  0  0  0
  -21.1750   -3.1710  -30.9950 O   0  0  0  0  0  0  0  0  0  0  0  0
  -20.0180   -1.5480  -32.4070 C   0  0  0  0  0  0  0  0  0  0  0  0
  -19.2300   -1.0000  -31.5090 C   0  0  0  0  0  0  0  0  0  0  0  0
  -18.3220   -0.0150  -31.9490 O   0  0  0  0  0  0  0  0  0  0  0  0
  -19.2050   -1.3030  -30.1000 C   0  0  0  0  0  0  0  0  0  0  0  0
  -19.6410   -2.4360  -29.5080 C   0  0  0  0  0  0  0  0  0  0  0  0
  -19.5260   -2.6120  -28.1450 C   0  0  0  0  0  0  0  0  0  0  0  0
  -18.9710   -1.6690  -27.3070 C   0  0  0  0  0  0  0  0  0  0  0  0
  -18.5340   -0.5200  -27.9360 C   0  0  0  0  0  0  0  0  0  0  0  0
  -18.6340   -0.3140  -29.2840 C   0  0  0  0  0  0  0  0  0  0  0  0
  -18.8580   -1.8520  -25.9340 O   0  0  0  0  0  0  0  0  0  0  0  0
  -17.8040   -1.2260  -25.2170 C   0  0  0  0  0  0  0  0  0  0  0  0
  -20.0230   -3.8880  -27.5340 C   0  0  0  0  0  0  0  0  0  0  0  0
  -21.5020   -2.1270  -35.7820 C   0  0  0  0  0  0  0  0  0  0  0  0
  -22.5870   -1.1320  -36.0900 C   0  0  0  0  0  0  0  0  0  0  0  0
  -23.3940   -1.5420  -37.2840 C   0  0  0  0  0  0  0  0  0  0  0  0
  -23.5750   -0.4850  -38.2360 N   0  0  0  0  0  4  0  0  0  0  0  0
  -22.4180    0.3770  -38.3650 C   0  0  0  0  0  0  0  0  0  0  0  0
  -22.6750    1.2810  -39.5750 C   0  0  0  0  0  0  0  0  0  0  0  0
  -23.9920    1.1750  -39.9970 O   0  0  0  0  0  0  0  0  0  0  0  0
  -24.8710    1.4020  -38.9150 C   0  0  0  0  0  0  0  0  0  0  0  0
  -24.7670    0.2500  -37.9220 C   0  0  0  0  0  0  0  0  0  0  0  0
  -18.8360    2.9990  -35.2650 H   0  0  0  0  0  0  0  0  0  0  0  0
  -18.3900    0.5820  -34.8280 H   0  0  0  0  0  0  0  0  0  0  0  0
  -22.3450    0.0830  -33.4890 H   0  0  0  0  0  0  0  0  0  0  0  0
  -22.8080    2.4820  -33.9170 H   0  0  0  0  0  0  0  0  0  0  0  0
  -19.1240   -1.5120  -34.3770 H   0  0  0  0  0  0  0  0  0  0  0  0
  -20.1080   -3.1990  -30.1390 H   0  0  0  0  0  0  0  0  0  0  0  0
  -18.0930    0.2330  -27.2620 H   0  0  0  0  0  0  0  0  0  0  0  0
  -18.2670    0.6170  -29.7090 H   0  0  0  0  0  0  0  0  0  0  0  0
  -17.8940   -0.1210  -25.3860 H   0  0  0  0  0  0  0  0  0  0  0  0
  -17.8650   -1.3960  -24.1420 H   0  0  0  0  0  0  0  0  0  0  0  0
  -16.8100   -1.5100  -25.6650 H   0  0  0  0  0  0  0  0  0  0  0  0
  -20.8920   -4.2950  -28.0920 H   0  0  0  0  0  0  0  0  0  0  0  0
  -20.2590   -3.6760  -26.4760 H   0  0  0  0  0  0  0  0  0  0  0  0
  -19.1480   -4.5800  -27.5370 H   0  0  0  0  0  0  0  0  0  0  0  0
  -21.8910   -3.1440  -36.0320 H   0  0  0  0  0  0  0  0  0  0  0  0
  -20.6520   -1.9190  -36.4640 H   0  0  0  0  0  0  0  0  0  0  0  0
  -22.1090   -0.1360  -36.2450 H   0  0  0  0  0  0  0  0  0  0  0  0
  -23.2590   -1.1080  -35.2120 H   0  0  0  0  0  0  0  0  0  0  0  0
  -22.9220   -2.3810  -37.8350 H   0  0  0  0  0  0  0  0  0  0  0  0
  -24.3830   -1.9060  -36.9370 H   0  0  0  0  0  0  0  0  0  0  0  0
  -23.7230   -0.9200  -39.1960 H   0  0  0  0  0  0  0  0  0  0  0  0
  -21.5440   -0.2310  -38.6010 H   0  0  0  0  0  0  0  0  0  0  0  0
  -22.3110    1.0330  -37.4940 H   0  0  0  0  0  0  0  0  0  0  0  0
  -22.4070    2.3250  -39.3640 H   0  0  0  0  0  0  0  0  0  0  0  0
  -22.0480    0.9550  -40.4500 H   0  0  0  0  0  0  0  0  0  0  0  0
  -25.8910    1.3880  -39.3750 H   0  0  0  0  0  0  0  0  0  0  0  0
  -24.7240    2.3810  -38.4530 H   0  0  0  0  0  0  0  0  0  0  0  0
  -24.6710    0.6270  -36.8800 H   0  0  0  0  0  0  0  0  0  0  0  0
  -25.6290   -0.4440  -38.0550 H   0  0  0  0  0  0  0  0  0  0  0  0
  1  2  1  0  0  0  0
  2  7  1  0  0  0  0
  3  4  1  0  0  0  0
  3  2  2  0  0  0  0
  4  5  2  0  0  0  0
  5  6  1  0  0  0  0
  5  8  1  0  0  0  0
  6 37  1  0  0  0  0
  7 38  1  0  0  0  0
  7  6  2  0  0  0  0
  8 39  1  6  0  0  0
  8 14  1  0  0  0  0
  9  8  1  0  0  0  0
  9 10  1  0  0  0  0
 10 12  1  0  0  0  0
 11 10  2  0  0  0  0
 12 13  2  0  0  0  0
 14 12  1  0  0  0  0
 14 15  2  0  0  0  0
 15 17  1  0  0  0  0
 16 15  1  0  0  0  0
 17 18  2  0  0  0  0
 17 22  1  0  0  0  0
 18 19  1  0  0  0  0
 19 25  1  0  0  0  0
 19 20  2  0  0  0  0
 20 23  1  0  0  0  0
 21 20  1  0  0  0  0
 21 41  1  0  0  0  0
 22 21  2  0  0  0  0
 23 24  1  0  0  0  0
 24 44  1  0  0  0  0
 25 47  1  0  0  0  0
 26  9  1  0  0  0  0
 27 26  1  0  0  0  0
 27 52  1  0  0  0  0
 28 54  1  0  0  0  0
 28 27  1  0  0  0  0
 29 34  1  0  0  0  0
 29 28  1  0  0  0  0
 30 29  1  0  0  0  0
 30 57  1  0  0  0  0
 31 58  1  0  0  0  0
 31 30  1  0  0  0  0
 32 31  1  0  0  0  0
 32 33  1  0  0  0  0
 33 61  1  0  0  0  0
 33 34  1  0  0  0  0
 34 62  1  0  0  0  0
 35  3  1  0  0  0  0
 36  4  1  0  0  0  0
 40 18  1  0  0  0  0
 42 22  1  0  0  0  0
 43 24  1  0  0  0  0
 45 24  1  0  0  0  0
 46 25  1  0  0  0  0
 48 25  1  0  0  0  0
 49 26  1  0  0  0  0
 50 26  1  0  0  0  0
 51 27  1  0  0  0  0
 53 28  1  0  0  0  0
 55 29  1  0  0  0  0
 56 30  1  0  0  0  0
 59 31  1  0  0  0  0
 60 33  1  0  0  0  0
 63 34  1  0  0  0  0
M  END
>  <Pose>
1

>  <Score>
-5.54

$$$$
