
 OpenBabel03222201593D

 60 62  0  0  1  0  0  0  0  0999 V2000
  -22.6000   -6.2680  -32.6710 B   0  0  0  0  0  0  0  0  0  0  0  0
  -21.8520   -4.5540  -32.2970 C   0  0  0  0  0  0  0  0  0  0  0  0
  -21.9800   -3.5330  -33.2090 C   0  0  0  0  0  0  0  0  0  0  0  0
  -21.4340   -2.2750  -32.9370 C   0  0  0  0  0  0  0  0  0  0  0  0
  -20.7620   -2.0280  -31.7660 C   0  0  0  0  0  0  0  0  0  0  0  0
  -20.6490   -3.0690  -30.8720 C   0  0  0  0  0  0  0  0  0  0  0  0
  -21.1830   -4.3200  -31.1240 C   0  0  0  0  0  0  0  0  0  0  0  0
  -20.2100   -0.7080  -31.4910 C   0  0  2  0  0  0  0  0  0  0  0  0
  -19.0600   -0.4330  -32.3280 N   0  0  0  0  0  0  0  0  0  0  0  0
  -17.9580   -1.1260  -31.7370 C   0  0  0  0  0  0  0  0  0  0  0  0
  -16.9220   -1.5300  -32.3200 O   0  0  0  0  0  0  0  0  0  0  0  0
  -18.2880   -1.2620  -30.3220 C   0  0  0  0  0  0  0  0  0  0  0  0
  -17.6280   -1.8010  -29.3980 O   0  0  0  0  0  0  0  0  0  0  0  0
  -19.5910   -0.6390  -30.1170 C   0  0  0  0  0  0  0  0  0  0  0  0
  -20.0810   -0.1810  -28.9910 C   0  0  0  0  0  0  0  0  0  0  0  0
  -21.3910    0.3270  -29.0480 O   0  0  0  0  0  0  0  0  0  0  0  0
  -19.3390   -0.1750  -27.7340 C   0  0  0  0  0  0  0  0  0  0  0  0
  -18.6140    0.8990  -27.2690 C   0  0  0  0  0  0  0  0  0  0  0  0
  -17.8910    0.9050  -26.0900 C   0  0  0  0  0  0  0  0  0  0  0  0
  -17.8890   -0.2260  -25.3240 C   0  0  0  0  0  0  0  0  0  0  0  0
  -18.6090   -1.3370  -25.7540 C   0  0  0  0  0  0  0  0  0  0  0  0
  -19.3170   -1.3060  -26.9370 C   0  0  0  0  0  0  0  0  0  0  0  0
  -17.2250    2.0680  -25.7800 O   0  0  0  0  0  0  0  0  0  0  0  0
  -17.7640    3.3280  -25.5720 C   0  0  0  0  0  0  0  0  0  0  0  0
  -19.0100    0.3920  -33.5470 C   0  0  0  0  0  0  0  0  0  0  0  0
  -20.3010    0.2160  -34.3610 C   0  0  0  0  0  0  0  0  0  0  0  0
  -19.9760   -0.4620  -35.6610 C   0  0  0  0  0  0  0  0  0  0  0  0
  -21.1940   -0.6550  -36.4100 N   0  0  0  0  0  4  0  0  0  0  0  0
  -21.5880    0.4790  -37.1860 C   0  0  0  0  0  0  0  0  0  0  0  0
  -22.1120    1.6040  -36.3600 C   0  0  0  0  0  0  0  0  0  0  0  0
  -23.1650    1.1850  -35.5650 O   0  0  0  0  0  0  0  0  0  0  0  0
  -22.6800    0.1970  -34.7070 C   0  0  0  0  0  0  0  0  0  0  0  0
  -22.3120   -1.0070  -35.5520 C   0  0  0  0  0  0  0  0  0  0  0  0
  -22.5100   -3.7480  -34.1220 H   0  0  0  0  0  0  0  0  0  0  0  0
  -21.5630   -1.5220  -33.6780 H   0  0  0  0  0  0  0  0  0  0  0  0
  -20.1150   -2.8470  -29.9580 H   0  0  0  0  0  0  0  0  0  0  0  0
  -21.0790   -5.1080  -30.3980 H   0  0  0  0  0  0  0  0  0  0  0  0
  -20.9980    0.0610  -31.5980 H   0  0  0  0  0  0  0  0  0  0  0  0
  -18.6210    1.8010  -27.8570 H   0  0  0  0  0  0  0  0  0  0  0  0
  -17.3280   -0.2460  -24.3950 H   0  0  0  0  0  0  0  0  0  0  0  0
  -18.5650   -2.2080  -25.0990 H   0  0  0  0  0  0  0  0  0  0  0  0
  -19.8680   -2.2140  -27.2290 H   0  0  0  0  0  0  0  0  0  0  0  0
  -17.1520    4.1480  -26.0430 H   0  0  0  0  0  0  0  0  0  0  0  0
  -18.8030    3.3630  -25.9110 H   0  0  0  0  0  0  0  0  0  0  0  0
  -17.7290    3.5530  -24.4860 H   0  0  0  0  0  0  0  0  0  0  0  0
  -18.2100    0.0130  -34.1810 H   0  0  0  0  0  0  0  0  0  0  0  0
  -18.9060    1.4220  -33.1970 H   0  0  0  0  0  0  0  0  0  0  0  0
  -21.0270   -0.3960  -33.8320 H   0  0  0  0  0  0  0  0  0  0  0  0
  -20.7560    1.2080  -34.5690 H   0  0  0  0  0  0  0  0  0  0  0  0
  -19.2620    0.2100  -36.1910 H   0  0  0  0  0  0  0  0  0  0  0  0
  -19.5000   -1.4210  -35.4680 H   0  0  0  0  0  0  0  0  0  0  0  0
  -21.0550   -1.4680  -37.0540 H   0  0  0  0  0  0  0  0  0  0  0  0
  -20.7230    0.8180  -37.7990 H   0  0  0  0  0  0  0  0  0  0  0  0
  -22.3730    0.1470  -37.9100 H   0  0  0  0  0  0  0  0  0  0  0  0
  -21.3130    1.9750  -35.6700 H   0  0  0  0  0  0  0  0  0  0  0  0
  -22.4030    2.4370  -37.0400 H   0  0  0  0  0  0  0  0  0  0  0  0
  -23.4200   -0.1090  -33.9420 H   0  0  0  0  0  0  0  0  0  0  0  0
  -21.7690    0.5260  -34.1610 H   0  0  0  0  0  0  0  0  0  0  0  0
  -23.1840   -1.2090  -36.2040 H   0  0  0  0  0  0  0  0  0  0  0  0
  -22.0970   -1.8820  -34.9220 H   0  0  0  0  0  0  0  0  0  0  0  0
  1  2  1  0  0  0  0
  2  7  1  0  0  0  0
  3  4  1  0  0  0  0
  3  2  2  0  0  0  0
  4  5  2  0  0  0  0
  5  8  1  0  0  0  0
  5  6  1  0  0  0  0
  6 36  1  0  0  0  0
  7  6  2  0  0  0  0
  7 37  1  0  0  0  0
  8 38  1  6  0  0  0
  8 14  1  0  0  0  0
  9 10  1  0  0  0  0
  9  8  1  0  0  0  0
 10 12  1  0  0  0  0
 11 10  2  0  0  0  0
 12 14  1  0  0  0  0
 12 13  2  0  0  0  0
 14 15  2  0  0  0  0
 15 17  1  0  0  0  0
 16 15  1  0  0  0  0
 17 18  2  0  0  0  0
 17 22  1  0  0  0  0
 18 19  1  0  0  0  0
 19 23  1  0  0  0  0
 19 20  2  0  0  0  0
 20 40  1  0  0  0  0
 21 20  1  0  0  0  0
 21 41  1  0  0  0  0
 22 21  2  0  0  0  0
 23 24  1  0  0  0  0
 24 45  1  0  0  0  0
 25 47  1  0  0  0  0
 25  9  1  0  0  0  0
 26 48  1  0  0  0  0
 27 51  1  0  0  0  0
 27 26  1  0  0  0  0
 28 27  1  0  0  0  0
 28 33  1  0  0  0  0
 29 28  1  0  0  0  0
 29 30  1  0  0  0  0
 30 55  1  0  0  0  0
 30 31  1  0  0  0  0
 31 32  1  0  0  0  0
 32 58  1  0  0  0  0
 32 57  1  0  0  0  0
 33 60  1  0  0  0  0
 33 32  1  0  0  0  0
 34  3  1  0  0  0  0
 35  4  1  0  0  0  0
 39 18  1  0  0  0  0
 42 22  1  0  0  0  0
 43 24  1  0  0  0  0
 44 24  1  0  0  0  0
 46 25  1  0  0  0  0
 49 26  1  0  0  0  0
 50 27  1  0  0  0  0
 52 28  1  0  0  0  0
 53 29  1  0  0  0  0
 54 29  1  0  0  0  0
 56 30  1  0  0  0  0
 59 33  1  0  0  0  0
M  END
>  <Pose>
1

>  <Score>
-6.21

$$$$
