
 OpenBabel03222201593D

 56 59  0  0  1  0  0  0  0  0999 V2000
  -23.4620   -7.4400  -32.7280 B   0  0  0  0  0  0  0  0  0  0  0  0
  -22.4360   -5.8220  -32.7090 C   0  0  0  0  0  0  0  0  0  0  0  0
  -21.4060   -5.6280  -31.8150 C   0  0  0  0  0  0  0  0  0  0  0  0
  -20.6880   -4.4670  -31.8200 C   0  0  0  0  0  0  0  0  0  0  0  0
  -20.9540   -3.4230  -32.7190 C   0  0  0  0  0  0  0  0  0  0  0  0
  -21.9640   -3.6190  -33.5930 C   0  0  0  0  0  0  0  0  0  0  0  0
  -22.7020   -4.8040  -33.5920 C   0  0  0  0  0  0  0  0  0  0  0  0
  -20.1390   -2.2730  -32.6380 C   0  0  1  0  0  0  0  0  0  0  0  0
  -20.2620   -1.0710  -33.3440 N   0  0  0  0  0  0  0  0  0  0  0  0
  -19.0060   -0.3580  -33.0300 C   0  0  0  0  0  0  0  0  0  0  0  0
  -18.3930    0.4640  -33.7660 O   0  0  0  0  0  0  0  0  0  0  0  0
  -18.6510   -0.8220  -31.6850 C   0  0  0  0  0  0  0  0  0  0  0  0
  -17.6550   -0.4850  -30.9750 O   0  0  0  0  0  0  0  0  0  0  0  0
  -19.7070   -1.7780  -31.3010 C   0  0  0  0  0  0  0  0  0  0  0  0
  -20.1490   -2.0460  -30.0930 C   0  0  0  0  0  0  0  0  0  0  0  0
  -21.2070   -2.9280  -29.9100 O   0  0  0  0  0  0  0  0  0  0  0  0
  -19.5740   -1.4630  -28.8910 C   0  0  0  0  0  0  0  0  0  0  0  0
  -19.4070   -0.1370  -28.6440 C   0  0  0  0  0  0  0  0  0  0  0  0
  -18.8840    0.2910  -27.4310 C   0  0  0  0  0  0  0  0  0  0  0  0
  -18.5280   -0.6210  -26.4640 C   0  0  0  0  0  0  0  0  0  0  0  0
  -18.6820   -1.9710  -26.6750 C   0  0  0  0  0  0  0  0  0  0  0  0
  -19.2060   -2.3750  -27.8950 C   0  0  0  0  0  0  0  0  0  0  0  0
  -17.9630   -0.1980  -25.1480 C   0  0  0  0  0  0  0  0  0  0  0  0
  -21.2040   -0.4290  -34.2490 C   0  0  0  0  0  0  0  0  0  0  0  0
  -20.6910   -0.2680  -35.6560 C   0  0  0  0  0  0  0  0  0  0  0  0
  -21.5500   -0.8210  -36.6510 N   0  0  0  0  0  4  0  0  0  0  0  0
  -22.2160    0.2380  -37.3850 C   0  0  0  0  0  0  0  0  0  0  0  0
  -23.0780   -0.3830  -38.4510 C   0  0  0  0  0  0  0  0  0  0  0  0
  -24.1320   -1.0250  -37.7820 O   0  0  0  0  0  0  0  0  0  0  0  0
  -23.5930   -2.0450  -37.0320 C   0  0  0  0  0  0  0  0  0  0  0  0
  -22.6380   -1.5550  -35.9750 C   0  0  0  0  0  0  0  0  0  0  0  0
  -21.2050   -6.4440  -31.1180 H   0  0  0  0  0  0  0  0  0  0  0  0
  -19.8730   -4.3580  -31.0850 H   0  0  0  0  0  0  0  0  0  0  0  0
  -22.2910   -2.9220  -34.3540 H   0  0  0  0  0  0  0  0  0  0  0  0
  -23.5190   -4.9750  -34.2910 H   0  0  0  0  0  0  0  0  0  0  0  0
  -19.0890   -2.6780  -33.0500 H   0  0  0  0  0  0  0  0  0  0  0  0
  -19.6580    0.5870  -29.4210 H   0  0  0  0  0  0  0  0  0  0  0  0
  -18.7580    1.3500  -27.2470 H   0  0  0  0  0  0  0  0  0  0  0  0
  -18.4040   -2.7150  -25.9190 H   0  0  0  0  0  0  0  0  0  0  0  0
  -19.3460   -3.4330  -28.1090 H   0  0  0  0  0  0  0  0  0  0  0  0
  -16.9060   -0.5070  -25.0310 H   0  0  0  0  0  0  0  0  0  0  0  0
  -18.0080    0.9230  -25.0660 H   0  0  0  0  0  0  0  0  0  0  0  0
  -18.5640   -0.5950  -24.3040 H   0  0  0  0  0  0  0  0  0  0  0  0
  -22.1030   -1.1060  -34.3450 H   0  0  0  0  0  0  0  0  0  0  0  0
  -21.5150    0.5490  -33.8960 H   0  0  0  0  0  0  0  0  0  0  0  0
  -20.5950    0.8440  -35.8910 H   0  0  0  0  0  0  0  0  0  0  0  0
  -19.6520   -0.6970  -35.7380 H   0  0  0  0  0  0  0  0  0  0  0  0
  -21.0690   -1.4710  -37.2900 H   0  0  0  0  0  0  0  0  0  0  0  0
  -21.5520    0.9660  -37.8520 H   0  0  0  0  0  0  0  0  0  0  0  0
  -22.8570    0.8100  -36.6760 H   0  0  0  0  0  0  0  0  0  0  0  0
  -22.5180   -1.1050  -39.0590 H   0  0  0  0  0  0  0  0  0  0  0  0
  -23.5040    0.3910  -39.1160 H   0  0  0  0  0  0  0  0  0  0  0  0
  -24.4490   -2.5540  -36.5130 H   0  0  0  0  0  0  0  0  0  0  0  0
  -23.0960   -2.7730  -37.6810 H   0  0  0  0  0  0  0  0  0  0  0  0
  -23.1280   -0.8250  -35.3080 H   0  0  0  0  0  0  0  0  0  0  0  0
  -22.2710   -2.4150  -35.4080 H   0  0  0  0  0  0  0  0  0  0  0  0
  1  2  1  0  0  0  0
  2  3  1  0  0  0  0
  3 32  1  0  0  0  0
  4  3  2  0  0  0  0
  4 33  1  0  0  0  0
  5  8  1  0  0  0  0
  5  4  1  0  0  0  0
  6  7  1  0  0  0  0
  6  5  2  0  0  0  0
  7  2  2  0  0  0  0
  8 36  1  6  0  0  0
  8 14  1  0  0  0  0
  9 10  1  0  0  0  0
  9  8  1  0  0  0  0
 10 12  1  0  0  0  0
 11 10  2  0  0  0  0
 12 14  1  0  0  0  0
 12 13  2  0  0  0  0
 14 15  2  0  0  0  0
 15 16  1  0  0  0  0
 15 17  1  0  0  0  0
 17 18  2  0  0  0  0
 17 22  1  0  0  0  0
 18 19  1  0  0  0  0
 19 38  1  0  0  0  0
 19 20  2  0  0  0  0
 20 23  1  0  0  0  0
 21 20  1  0  0  0  0
 21 39  1  0  0  0  0
 22 21  2  0  0  0  0
 23 42  1  0  0  0  0
 23 41  1  0  0  0  0
 23 43  1  0  0  0  0
 24 45  1  0  0  0  0
 24  9  1  0  0  0  0
 25 24  1  0  0  0  0
 26 31  1  0  0  0  0
 26 25  1  0  0  0  0
 27 50  1  0  0  0  0
 27 26  1  0  0  0  0
 28 29  1  0  0  0  0
 28 27  1  0  0  0  0
 29 30  1  0  0  0  0
 30 53  1  0  0  0  0
 30 31  1  0  0  0  0
 31 56  1  0  0  0  0
 31 55  1  0  0  0  0
 34  6  1  0  0  0  0
 35  7  1  0  0  0  0
 37 18  1  0  0  0  0
 40 22  1  0  0  0  0
 44 24  1  0  0  0  0
 46 25  1  0  0  0  0
 47 25  1  0  0  0  0
 48 26  1  0  0  0  0
 49 27  1  0  0  0  0
 51 28  1  0  0  0  0
 52 28  1  0  0  0  0
 54 30  1  0  0  0  0
M  END
>  <Pose>
1

>  <Score>
-6.19

$$$$
