
 OpenBabel03222201593D

 54 57  0  0  1  0  0  0  0  0999 V2000
  -23.3160   -2.9080  -39.8640 B   0  0  0  0  0  0  0  0  0  0  0  0
  -22.7490   -1.9110  -38.3360 C   0  0  0  0  0  0  0  0  0  0  0  0
  -23.4340   -2.0560  -37.1640 C   0  0  0  0  0  0  0  0  0  0  0  0
  -23.0370   -1.3440  -36.0560 C   0  0  0  0  0  0  0  0  0  0  0  0
  -21.9720   -0.4720  -36.0380 C   0  0  0  0  0  0  0  0  0  0  0  0
  -21.2940   -0.3470  -37.2510 C   0  0  0  0  0  0  0  0  0  0  0  0
  -21.6770   -1.0510  -38.3680 C   0  0  0  0  0  0  0  0  0  0  0  0
  -21.5720    0.2820  -34.8190 C   0  0  1  0  0  0  0  0  0  0  0  0
  -22.4240    1.4130  -34.5780 N   0  0  0  0  0  0  0  0  0  0  0  0
  -23.2720    1.0830  -33.4910 C   0  0  0  0  0  0  0  0  0  0  0  0
  -24.2840    1.7430  -33.1200 O   0  0  0  0  0  0  0  0  0  0  0  0
  -22.7910   -0.1500  -32.8640 C   0  0  0  0  0  0  0  0  0  0  0  0
  -23.2800   -0.7480  -31.8730 O   0  0  0  0  0  0  0  0  0  0  0  0
  -21.6160   -0.5660  -33.6080 C   0  0  0  0  0  0  0  0  0  0  0  0
  -20.7430   -1.4830  -33.2240 C   0  0  0  0  0  0  0  0  0  0  0  0
  -19.6220   -1.6900  -34.0520 O   0  0  0  0  0  0  0  0  0  0  0  0
  -20.8290   -2.3030  -32.0410 C   0  0  0  0  0  0  0  0  0  0  0  0
  -20.4060   -2.1400  -30.7810 N   0  0  0  0  0  0  0  0  0  0  0  0
  -20.6910   -3.2210  -30.0350 C   0  0  0  0  0  0  0  0  0  0  0  0
  -21.3150   -4.0980  -30.8390 N   0  0  0  0  0  0  0  0  0  0  0  0
  -21.4160   -3.5750  -32.0620 C   0  0  0  0  0  0  0  0  0  0  0  0
  -22.0490   -4.2450  -33.2330 C   0  0  0  0  0  0  0  0  0  0  0  0
  -20.3830   -3.3250  -28.6830 C   0  0  0  0  0  0  0  0  0  0  0  0
  -19.7560   -2.2700  -28.0790 C   0  0  0  0  0  0  0  0  0  0  0  0
  -19.4630   -1.1550  -28.8440 C   0  0  0  0  0  0  0  0  0  0  0  0
  -19.7880   -1.1010  -30.1790 C   0  0  0  0  0  0  0  0  0  0  0  0
  -22.4240    2.6940  -35.3190 C   0  0  0  0  0  0  0  0  0  0  0  0
  -21.3500    3.6070  -34.7690 C   0  0  0  0  0  0  0  0  0  0  0  0
  -21.6680    4.9880  -34.8830 N   0  0  0  0  0  4  0  0  0  0  0  0
  -21.2080    5.6520  -33.6640 C   0  0  0  0  0  0  0  0  0  0  0  0
  -21.0960    5.6550  -36.0120 C   0  0  0  0  0  0  0  0  0  0  0  0
  -24.2990   -2.7310  -37.0810 H   0  0  0  0  0  0  0  0  0  0  0  0
  -23.6040   -1.4860  -35.1490 H   0  0  0  0  0  0  0  0  0  0  0  0
  -20.4460    0.3190  -37.3210 H   0  0  0  0  0  0  0  0  0  0  0  0
  -21.1430   -0.9440  -39.3010 H   0  0  0  0  0  0  0  0  0  0  0  0
  -20.5480    0.6670  -35.0270 H   0  0  0  0  0  0  0  0  0  0  0  0
  -23.0130   -3.7590  -33.5020 H   0  0  0  0  0  0  0  0  0  0  0  0
  -21.3230   -4.1240  -34.0810 H   0  0  0  0  0  0  0  0  0  0  0  0
  -22.1470   -5.3130  -33.0400 H   0  0  0  0  0  0  0  0  0  0  0  0
  -20.6540   -4.2440  -28.1640 H   0  0  0  0  0  0  0  0  0  0  0  0
  -19.5150   -2.3460  -27.0270 H   0  0  0  0  0  0  0  0  0  0  0  0
  -18.9640   -0.2980  -28.3880 H   0  0  0  0  0  0  0  0  0  0  0  0
  -19.5700   -0.2410  -30.8020 H   0  0  0  0  0  0  0  0  0  0  0  0
  -23.4200    3.1720  -35.2510 H   0  0  0  0  0  0  0  0  0  0  0  0
  -22.2090    2.4320  -36.3620 H   0  0  0  0  0  0  0  0  0  0  0  0
  -20.4130    3.3600  -35.3320 H   0  0  0  0  0  0  0  0  0  0  0  0
  -21.1400    3.2850  -33.7130 H   0  0  0  0  0  0  0  0  0  0  0  0
  -22.7130    5.1520  -34.9220 H   0  0  0  0  0  0  0  0  0  0  0  0
  -20.1110    5.6360  -33.5940 H   0  0  0  0  0  0  0  0  0  0  0  0
  -21.6130    6.7020  -33.6190 H   0  0  0  0  0  0  0  0  0  0  0  0
  -21.5970    5.1530  -32.7510 H   0  0  0  0  0  0  0  0  0  0  0  0
  -20.8800    6.7100  -35.7110 H   0  0  0  0  0  0  0  0  0  0  0  0
  -20.1250    5.2250  -36.3350 H   0  0  0  0  0  0  0  0  0  0  0  0
  -21.8270    5.7400  -36.8540 H   0  0  0  0  0  0  0  0  0  0  0  0
  1  2  1  0  0  0  0
  2  3  1  0  0  0  0
  3 32  1  0  0  0  0
  3  4  2  0  0  0  0
  4  5  1  0  0  0  0
  4 33  1  0  0  0  0
  5  8  1  0  0  0  0
  6  5  2  0  0  0  0
  7  2  2  0  0  0  0
  7  6  1  0  0  0  0
  8 36  1  6  0  0  0
  8  9  1  0  0  0  0
  8 14  1  0  0  0  0
  9 10  1  0  0  0  0
 10 11  2  0  0  0  0
 10 12  1  0  0  0  0
 12 13  2  0  0  0  0
 14 15  2  0  0  0  0
 14 12  1  0  0  0  0
 15 17  1  0  0  0  0
 16 15  1  0  0  0  0
 17 18  1  0  0  0  0
 18 26  1  0  0  0  0
 18 19  1  0  0  0  0
 19 23  1  0  0  0  0
 20 19  2  0  0  0  0
 21 17  2  0  0  0  0
 21 20  1  0  0  0  0
 22 39  1  0  0  0  0
 22 21  1  0  0  0  0
 23 40  1  0  0  0  0
 23 24  2  0  0  0  0
 24 41  1  0  0  0  0
 25 42  1  0  0  0  0
 25 24  1  0  0  0  0
 26 25  2  0  0  0  0
 27 44  1  0  0  0  0
 27 28  1  0  0  0  0
 27  9  1  0  0  0  0
 28 47  1  0  0  0  0
 29 28  1  0  0  0  0
 29 30  1  0  0  0  0
 30 50  1  0  0  0  0
 30 49  1  0  0  0  0
 30 51  1  0  0  0  0
 31 52  1  0  0  0  0
 31 29  1  0  0  0  0
 34  6  1  0  0  0  0
 35  7  1  0  0  0  0
 37 22  1  0  0  0  0
 38 22  1  0  0  0  0
 43 26  1  0  0  0  0
 45 27  1  0  0  0  0
 46 28  1  0  0  0  0
 48 29  1  0  0  0  0
 53 31  1  0  0  0  0
 54 31  1  0  0  0  0
M  END
>  <Pose>
1

>  <Score>
-6.33

$$$$
