
 OpenBabel03222201593D

 47 50  0  0  1  0  0  0  0  0999 V2000
  -12.2340    7.6800  -21.8670 B   0  0  0  0  0  0  0  0  0  0  0  0
  -13.3930    6.5200  -22.8650 C   0  0  0  0  0  0  0  0  0  0  0  0
  -13.3130    5.1560  -22.7340 C   0  0  0  0  0  0  0  0  0  0  0  0
  -14.1180    4.3310  -23.4320 C   0  0  0  0  0  0  0  0  0  0  0  0
  -15.0960    4.8350  -24.3470 C   0  0  0  0  0  0  0  0  0  0  0  0
  -15.1430    6.2080  -24.4480 C   0  0  0  0  0  0  0  0  0  0  0  0
  -14.3230    7.0470  -23.7350 C   0  0  0  0  0  0  0  0  0  0  0  0
  -15.8040    3.8990  -25.0580 N   0  0  0  0  0  0  0  0  0  0  0  0
  -16.4850    2.9960  -25.7440 C   0  0  0  0  0  0  0  0  0  0  0  0
  -16.2180    2.4090  -26.8670 O   0  0  0  0  0  0  0  0  0  0  0  0
  -17.8410    2.4890  -25.2080 C   0  0  2  0  0  0  0  0  0  0  0  0
  -17.6340    2.2990  -23.7350 C   0  0  0  0  0  0  0  0  0  0  0  0
  -17.2530    0.9360  -23.3420 C   0  0  0  0  0  0  0  0  0  0  0  0
  -16.5210    0.7980  -22.3240 O   0  0  0  0  0  0  0  0  0  0  0  0
  -17.7010   -0.1750  -24.0970 N   0  0  0  0  0  0  0  0  0  0  0  0
  -18.2260    0.0170  -25.3940 C   0  0  0  0  0  0  0  0  0  0  0  0
  -18.6650   -1.0710  -26.1000 N   0  0  0  0  0  0  0  0  0  0  0  0
  -19.1850   -0.9610  -27.3240 C   0  0  0  0  0  0  0  0  0  0  0  0
  -19.2670    0.2650  -27.8570 N   0  0  0  0  0  0  0  0  0  0  0  0
  -18.8420    1.3820  -27.1970 C   0  0  0  0  0  0  0  0  0  0  0  0
  -18.3010    1.2950  -25.9290 C   0  0  0  0  0  0  0  0  0  0  0  0
  -18.9390    2.6620  -27.8110 N   0  0  0  0  0  0  0  0  0  0  0  0
  -19.6400   -2.1250  -28.0520 N   0  0  0  0  0  0  0  0  0  0  0  0
  -19.9400   -1.9510  -29.4300 C   0  0  0  0  0  0  0  0  0  0  0  0
  -19.9670   -3.2250  -30.2230 C   0  0  0  0  0  0  0  0  0  0  0  0
  -19.6000   -4.3310  -29.4650 O   0  0  0  0  0  0  0  0  0  0  0  0
  -20.3170   -4.4070  -28.2790 C   0  0  0  0  0  0  0  0  0  0  0  0
  -19.7520   -3.3780  -27.3340 C   0  0  0  0  0  0  0  0  0  0  0  0
  -12.5670    4.7430  -22.0420 H   0  0  0  0  0  0  0  0  0  0  0  0
  -14.0540    3.2450  -23.3360 H   0  0  0  0  0  0  0  0  0  0  0  0
  -15.8690    6.6690  -25.1450 H   0  0  0  0  0  0  0  0  0  0  0  0
  -14.3910    8.1360  -23.8380 H   0  0  0  0  0  0  0  0  0  0  0  0
  -14.6350    3.3680  -25.5120 H   0  0  0  0  0  0  0  0  0  0  0  0
  -18.5630    3.3580  -25.3320 H   0  0  0  0  0  0  0  0  0  0  0  0
  -18.5890    2.5910  -23.2160 H   0  0  0  0  0  0  0  0  0  0  0  0
  -16.8340    3.0100  -23.4010 H   0  0  0  0  0  0  0  0  0  0  0  0
  -17.6550   -1.1640  -23.7150 H   0  0  0  0  0  0  0  0  0  0  0  0
  -19.8010    3.2170  -27.8220 H   0  0  0  0  0  0  0  0  0  0  0  0
  -18.0860    3.0570  -28.2830 H   0  0  0  0  0  0  0  0  0  0  0  0
  -20.9690   -1.4890  -29.4720 H   0  0  0  0  0  0  0  0  0  0  0  0
  -19.2490   -1.1750  -29.8520 H   0  0  0  0  0  0  0  0  0  0  0  0
  -20.9730   -3.4140  -30.6740 H   0  0  0  0  0  0  0  0  0  0  0  0
  -19.2520   -3.1410  -31.0590 H   0  0  0  0  0  0  0  0  0  0  0  0
  -20.1410   -5.4510  -27.8880 H   0  0  0  0  0  0  0  0  0  0  0  0
  -21.4000   -4.2670  -28.4600 H   0  0  0  0  0  0  0  0  0  0  0  0
  -20.3730   -3.2640  -26.4180 H   0  0  0  0  0  0  0  0  0  0  0  0
  -18.7510   -3.7470  -26.9850 H   0  0  0  0  0  0  0  0  0  0  0  0
  2  3  1  0  0  0  0
  2  1  1  0  0  0  0
  3 29  1  0  0  0  0
  4 30  1  0  0  0  0
  4  3  2  0  0  0  0
  5  4  1  0  0  0  0
  6  5  2  0  0  0  0
  6  7  1  0  0  0  0
  7  2  2  0  0  0  0
  8  5  1  0  0  0  0
  9 11  1  0  0  0  0
  9  8  1  0  0  0  0
 10  9  2  0  0  0  0
 11 34  1  6  0  0  0
 11 12  1  0  0  0  0
 12 36  1  0  0  0  0
 12 13  1  0  0  0  0
 12 35  1  0  0  0  0
 13 14  2  0  0  0  0
 15 37  1  0  0  0  0
 15 13  1  0  0  0  0
 16 15  1  0  0  0  0
 17 16  1  0  0  0  0
 18 17  2  0  0  0  0
 19 18  1  0  0  0  0
 19 20  2  0  0  0  0
 20 21  1  0  0  0  0
 21 16  2  0  0  0  0
 21 11  1  0  0  0  0
 22 20  1  0  0  0  0
 23 28  1  0  0  0  0
 23 18  1  0  0  0  0
 24 23  1  0  0  0  0
 25 26  1  0  0  0  0
 25 24  1  0  0  0  0
 26 27  1  0  0  0  0
 27 44  1  0  0  0  0
 27 28  1  0  0  0  0
 28 47  1  0  0  0  0
 28 46  1  0  0  0  0
 31  6  1  0  0  0  0
 32  7  1  0  0  0  0
 33  8  1  0  0  0  0
 38 22  1  0  0  0  0
 39 22  1  0  0  0  0
 40 24  1  0  0  0  0
 41 24  1  0  0  0  0
 42 25  1  0  0  0  0
 43 25  1  0  0  0  0
 45 27  1  0  0  0  0
M  END
>  <Pose>
1

>  <Score>
-7.51

$$$$
