
 OpenBabel03222201593D

 42 45  0  0  0  0  0  0  0  0999 V2000
  -23.4410    0.9210  -37.1890 B   0  0  0  0  0  0  0  0  0  0  0  0
  -22.4960    0.4800  -35.5860 C   0  0  0  0  0  0  0  0  0  0  0  0
  -21.3250   -0.2450  -35.6420 C   0  0  0  0  0  0  0  0  0  0  0  0
  -20.6560   -0.5550  -34.4750 C   0  0  0  0  0  0  0  0  0  0  0  0
  -21.1030   -0.1710  -33.2240 C   0  0  0  0  0  0  0  0  0  0  0  0
  -22.2780    0.5570  -33.1850 C   0  0  0  0  0  0  0  0  0  0  0  0
  -22.9580    0.8740  -34.3440 C   0  0  0  0  0  0  0  0  0  0  0  0
  -20.3910   -0.5040  -32.0300 N   0  0  0  0  0  0  0  0  0  0  0  0
  -19.6770    0.3250  -31.3100 N   0  0  0  0  0  0  0  0  0  0  0  0
  -19.1200   -0.2710  -30.2370 C   0  0  0  0  0  0  0  0  0  0  0  0
  -19.5170   -1.5790  -30.2890 C   0  0  0  0  0  0  0  0  0  0  0  0
  -20.3070   -1.7010  -31.4120 C   0  0  0  0  0  0  0  0  0  0  0  0
  -20.9520   -2.9090  -31.8740 N   0  0  0  0  0  0  0  0  0  0  0  0
  -21.4710   -3.1610  -33.0660 C   0  0  0  0  0  0  0  0  0  0  0  0
  -21.9940   -4.4330  -33.1060 C   0  0  0  0  0  0  0  0  0  0  0  0
  -21.7680   -4.9590  -31.8570 C   0  0  0  0  0  0  0  0  0  0  0  0
  -21.1210   -4.0000  -31.1090 C   0  0  0  0  0  0  0  0  0  0  0  0
  -19.1520   -2.6080  -29.3230 C   0  0  0  0  0  0  0  0  0  0  0  0
  -18.1160   -3.2700  -29.5750 O   0  0  0  0  0  0  0  0  0  0  0  0
  -19.8950   -2.8780  -28.1530 N   0  0  0  0  0  0  0  0  0  0  0  0
  -20.7650   -4.0290  -28.1260 C   0  0  0  0  0  0  0  0  0  0  0  0
  -20.2060   -5.0080  -27.1360 C   0  0  0  0  0  0  0  0  0  0  0  0
  -19.3160   -4.3700  -26.1730 N   0  0  0  0  0  0  0  0  0  0  0  0
  -19.3840   -2.9810  -25.8690 C   0  0  0  0  0  0  0  0  0  0  0  0
  -19.0440   -2.5730  -24.7320 O   0  0  0  0  0  0  0  0  0  0  0  0
  -19.8640   -2.0840  -26.9460 C   0  0  0  0  0  0  0  0  0  0  0  0
  -20.9440   -0.5660  -36.6220 H   0  0  0  0  0  0  0  0  0  0  0  0
  -19.7400   -1.1250  -34.5440 H   0  0  0  0  0  0  0  0  0  0  0  0
  -22.6320    0.8600  -32.2020 H   0  0  0  0  0  0  0  0  0  0  0  0
  -23.8690    1.4380  -34.3030 H   0  0  0  0  0  0  0  0  0  0  0  0
  -18.4860    0.2370  -29.5050 H   0  0  0  0  0  0  0  0  0  0  0  0
  -21.4860   -2.4690  -33.9030 H   0  0  0  0  0  0  0  0  0  0  0  0
  -22.4900   -4.9260  -33.9570 H   0  0  0  0  0  0  0  0  0  0  0  0
  -22.0480   -5.9500  -31.5220 H   0  0  0  0  0  0  0  0  0  0  0  0
  -20.8030   -4.1200  -30.0590 H   0  0  0  0  0  0  0  0  0  0  0  0
  -20.9650   -4.4520  -29.1180 H   0  0  0  0  0  0  0  0  0  0  0  0
  -21.7640   -3.6990  -27.7160 H   0  0  0  0  0  0  0  0  0  0  0  0
  -19.6740   -5.8230  -27.6650 H   0  0  0  0  0  0  0  0  0  0  0  0
  -21.0100   -5.4970  -26.5280 H   0  0  0  0  0  0  0  0  0  0  0  0
  -18.5950   -4.9860  -25.6900 H   0  0  0  0  0  0  0  0  0  0  0  0
  -20.9010   -1.7610  -26.7220 H   0  0  0  0  0  0  0  0  0  0  0  0
  -19.2630   -1.1670  -27.0460 H   0  0  0  0  0  0  0  0  0  0  0  0
  1  2  1  0  0  0  0
  2  7  1  0  0  0  0
  3  2  2  0  0  0  0
  3  4  1  0  0  0  0
  4  5  2  0  0  0  0
  5  6  1  0  0  0  0
  5  8  1  0  0  0  0
  6 29  1  0  0  0  0
  7 30  1  0  0  0  0
  7  6  2  0  0  0  0
  8 12  1  0  0  0  0
  8  9  1  0  0  0  0
  9 10  2  0  0  0  0
 10 31  1  0  0  0  0
 11 10  1  0  0  0  0
 11 18  1  0  0  0  0
 12 11  2  0  0  0  0
 13 12  1  0  0  0  0
 13 17  1  0  0  0  0
 14 13  1  0  0  0  0
 15 14  2  0  0  0  0
 15 16  1  0  0  0  0
 16 34  1  0  0  0  0
 16 17  2  0  0  0  0
 17 35  1  0  0  0  0
 18 20  1  0  0  0  0
 19 18  2  0  0  0  0
 20 21  1  0  0  0  0
 20 26  1  0  0  0  0
 21 37  1  0  0  0  0
 21 22  1  0  0  0  0
 22 39  1  0  0  0  0
 22 23  1  0  0  0  0
 23 24  1  0  0  0  0
 23 40  1  0  0  0  0
 24 25  2  0  0  0  0
 26 41  1  0  0  0  0
 26 24  1  0  0  0  0
 27  3  1  0  0  0  0
 28  4  1  0  0  0  0
 32 14  1  0  0  0  0
 33 15  1  0  0  0  0
 36 21  1  0  0  0  0
 38 22  1  0  0  0  0
 42 26  1  0  0  0  0
M  END
>  <Pose>
1

>  <Score>
-6.42

$$$$
