
 OpenBabel03222201593D

 47 50  0  0  1  0  0  0  0  0999 V2000
  -21.3650   -0.6080  -41.4320 B   0  0  0  0  0  0  0  0  0  0  0  0
  -21.4980   -0.5300  -39.5230 C   0  0  0  0  0  0  0  0  0  0  0  0
  -22.6100   -0.9750  -38.8620 C   0  0  0  0  0  0  0  0  0  0  0  0
  -22.7010   -0.9150  -37.4670 C   0  0  0  0  0  0  0  0  0  0  0  0
  -21.6850   -0.4100  -36.7080 C   0  0  0  0  0  0  0  0  0  0  0  0
  -20.5740    0.0370  -37.3640 C   0  0  0  0  0  0  0  0  0  0  0  0
  -20.4720   -0.0180  -38.7620 C   0  0  0  0  0  0  0  0  0  0  0  0
  -21.7730   -0.3480  -35.2830 N   0  0  0  0  0  0  0  0  0  0  0  0
  -21.5290   -1.3700  -34.3240 C   0  0  0  0  0  0  0  0  0  0  0  0
  -21.2910   -2.5660  -34.5960 O   0  0  0  0  0  0  0  0  0  0  0  0
  -21.5920   -0.8420  -32.9530 C   0  0  2  0  0  0  0  0  0  0  0  0
  -22.4640    0.3960  -33.1290 C   0  0  0  0  0  0  0  0  0  0  0  0
  -22.1390    0.8230  -34.5270 C   0  0  0  0  0  0  0  0  0  0  0  0
  -22.2070    2.0190  -34.8660 O   0  0  0  0  0  0  0  0  0  0  0  0
  -20.3190   -0.4800  -32.3730 N   0  0  0  0  0  4  0  0  0  0  0  0
  -20.4470    0.5260  -31.3460 C   0  0  0  0  0  0  0  0  0  0  0  0
  -20.4670   -0.0190  -29.9360 C   0  0  0  0  0  0  0  0  0  0  0  0
  -19.5090   -1.0820  -29.7700 N   0  0  0  0  0  0  0  0  0  0  0  0
  -18.5880   -1.2330  -30.8720 C   0  0  0  0  0  0  0  0  0  0  0  0
  -19.4910   -1.5910  -32.0670 C   0  0  0  0  0  0  0  0  0  0  0  0
  -19.4630   -1.9250  -28.6550 C   0  0  0  0  0  0  0  0  0  0  0  0
  -19.9860   -3.2010  -28.5940 C   0  0  0  0  0  0  0  0  0  0  0  0
  -19.9340   -3.9870  -27.4540 C   0  0  0  0  0  0  0  0  0  0  0  0
  -19.3450   -3.5060  -26.3160 C   0  0  0  0  0  0  0  0  0  0  0  0
  -18.8060   -2.2350  -26.3200 C   0  0  0  0  0  0  0  0  0  0  0  0
  -18.8700   -1.4700  -27.4710 C   0  0  0  0  0  0  0  0  0  0  0  0
  -19.2600   -4.2440  -25.1350 O   0  0  0  0  0  0  0  0  0  0  0  0
  -23.4170   -1.3750  -39.4350 H   0  0  0  0  0  0  0  0  0  0  0  0
  -23.6010   -1.2850  -37.0450 H   0  0  0  0  0  0  0  0  0  0  0  0
  -19.7250    0.4500  -36.8800 H   0  0  0  0  0  0  0  0  0  0  0  0
  -19.5910    0.3350  -39.2730 H   0  0  0  0  0  0  0  0  0  0  0  0
  -22.1720   -1.5020  -32.2650 H   0  0  0  0  0  0  0  0  0  0  0  0
  -23.5330    0.1550  -33.0110 H   0  0  0  0  0  0  0  0  0  0  0  0
  -22.1430    1.1560  -32.3960 H   0  0  0  0  0  0  0  0  0  0  0  0
  -19.8200    0.0410  -33.1720 H   0  0  0  0  0  0  0  0  0  0  0  0
  -21.4060    1.0640  -31.5110 H   0  0  0  0  0  0  0  0  0  0  0  0
  -19.6420    1.2930  -31.4080 H   0  0  0  0  0  0  0  0  0  0  0  0
  -20.1310    0.8290  -29.2690 H   0  0  0  0  0  0  0  0  0  0  0  0
  -21.4930   -0.2430  -29.6830 H   0  0  0  0  0  0  0  0  0  0  0  0
  -18.1340   -0.2450  -31.0900 H   0  0  0  0  0  0  0  0  0  0  0  0
  -17.8090   -1.9670  -30.7560 H   0  0  0  0  0  0  0  0  0  0  0  0
  -20.1410   -2.4570  -31.7880 H   0  0  0  0  0  0  0  0  0  0  0  0
  -18.8850   -1.8710  -32.9380 H   0  0  0  0  0  0  0  0  0  0  0  0
  -20.4580   -3.6030  -29.5070 H   0  0  0  0  0  0  0  0  0  0  0  0
  -20.3570   -4.9590  -27.4820 H   0  0  0  0  0  0  0  0  0  0  0  0
  -18.3350   -1.8240  -25.4340 H   0  0  0  0  0  0  0  0  0  0  0  0
  -18.4530   -0.4640  -27.5010 H   0  0  0  0  0  0  0  0  0  0  0  0
  1  2  1  0  0  0  0
  2  3  2  0  0  0  0
  2  7  1  0  0  0  0
  3  4  1  0  0  0  0
  4 29  1  0  0  0  0
  4  5  2  0  0  0  0
  5  8  1  0  0  0  0
  6 30  1  0  0  0  0
  6  5  1  0  0  0  0
  7  6  2  0  0  0  0
  8 13  1  0  0  0  0
  8  9  1  0  0  0  0
  9 11  1  0  0  0  0
 10  9  2  0  0  0  0
 11 15  1  0  0  0  0
 11 32  1  1  0  0  0
 12 33  1  0  0  0  0
 12 11  1  0  0  0  0
 12 34  1  0  0  0  0
 13 12  1  0  0  0  0
 14 13  2  0  0  0  0
 15 20  1  0  0  0  0
 15 16  1  0  0  0  0
 16 17  1  0  0  0  0
 17 18  1  0  0  0  0
 17 39  1  0  0  0  0
 17 38  1  0  0  0  0
 18 21  1  0  0  0  0
 19 41  1  0  0  0  0
 19 18  1  0  0  0  0
 20 42  1  0  0  0  0
 20 19  1  0  0  0  0
 21 22  2  0  0  0  0
 21 26  1  0  0  0  0
 22 23  1  0  0  0  0
 23 24  2  0  0  0  0
 24 27  1  0  0  0  0
 25 24  1  0  0  0  0
 25 46  1  0  0  0  0
 26 25  2  0  0  0  0
 28  3  1  0  0  0  0
 31  7  1  0  0  0  0
 35 15  1  0  0  0  0
 36 16  1  0  0  0  0
 37 16  1  0  0  0  0
 40 19  1  0  0  0  0
 43 20  1  0  0  0  0
 44 22  1  0  0  0  0
 45 23  1  0  0  0  0
 47 26  1  0  0  0  0
M  END
>  <Pose>
1

>  <Score>
-5.70

$$$$
