
 OpenBabel03222201593D

 50 53  0  0  0  0  0  0  0  0999 V2000
  -17.7270    4.3780  -27.8150 B   0  0  0  0  0  0  0  0  0  0  0  0
  -18.1520    2.5360  -27.6130 C   0  0  0  0  0  0  0  0  0  0  0  0
  -17.4020    1.6690  -26.8460 C   0  0  0  0  0  0  0  0  0  0  0  0
  -17.7320    0.3550  -26.7210 C   0  0  0  0  0  0  0  0  0  0  0  0
  -18.8420   -0.1700  -27.3650 C   0  0  0  0  0  0  0  0  0  0  0  0
  -19.5960    0.6820  -28.1310 C   0  0  0  0  0  0  0  0  0  0  0  0
  -19.2510    2.0010  -28.2470 C   0  0  0  0  0  0  0  0  0  0  0  0
  -19.1560   -1.5520  -27.2110 N   0  0  0  0  0  0  0  0  0  0  0  0
  -19.4790   -2.3690  -28.2450 C   0  0  0  0  0  0  0  0  0  0  0  0
  -19.5470   -2.0380  -29.4690 O   0  0  0  0  0  0  0  0  0  0  0  0
  -19.7280   -3.6440  -27.7670 C   0  0  0  0  0  0  0  0  0  0  0  0
  -19.5510   -3.5740  -26.4500 C   0  0  0  0  0  0  0  0  0  0  0  0
  -19.7900   -4.8130  -25.9570 N   0  0  0  0  0  0  0  0  0  0  0  0
  -20.1030   -5.5960  -26.9840 N   0  0  0  0  0  0  0  0  0  0  0  0
  -20.0760   -4.9130  -28.1120 N   0  0  0  0  0  0  0  0  0  0  0  0
  -20.3490   -5.3640  -29.4720 C   0  0  0  0  0  0  0  0  0  0  0  0
  -20.8220   -4.1900  -30.2940 C   0  0  0  0  0  0  0  0  0  0  0  0
  -21.2990   -3.2680  -29.5870 O   0  0  0  0  0  0  0  0  0  0  0  0
  -20.7000   -4.2190  -31.6820 N   0  0  0  0  0  0  0  0  0  0  0  0
  -21.0180   -3.1810  -32.5930 C   0  0  0  0  0  0  0  0  0  0  0  0
  -20.1930   -2.1300  -32.9160 C   0  0  0  0  0  0  0  0  0  0  0  0
  -20.5820   -1.1400  -33.8290 C   0  0  0  0  0  0  0  0  0  0  0  0
  -21.8100   -1.1780  -34.4450 C   0  0  0  0  0  0  0  0  0  0  0  0
  -22.6420   -2.2240  -34.1300 C   0  0  0  0  0  0  0  0  0  0  0  0
  -22.2570   -3.1980  -33.2290 C   0  0  0  0  0  0  0  0  0  0  0  0
  -22.1720   -0.1250  -35.3890 C   0  0  0  0  0  0  0  0  0  0  0  0
  -22.9770   -0.4090  -36.3110 O   0  0  0  0  0  0  0  0  0  0  0  0
  -21.6930    1.1540  -35.3400 O   0  0  0  0  0  0  0  0  0  0  0  0
  -22.2820    2.2350  -34.6760 C   0  0  0  0  0  0  0  0  0  0  0  0
  -21.3130    3.4160  -34.8220 C   0  0  0  0  0  0  0  0  0  0  0  0
  -19.1990   -2.2930  -26.0950 C   0  0  0  0  0  0  0  0  0  0  0  0
  -18.9570   -1.8680  -24.9440 O   0  0  0  0  0  0  0  0  0  0  0  0
  -16.5340    2.0800  -26.3420 H   0  0  0  0  0  0  0  0  0  0  0  0
  -17.1060   -0.3050  -26.0990 H   0  0  0  0  0  0  0  0  0  0  0  0
  -20.4690    0.3050  -28.6470 H   0  0  0  0  0  0  0  0  0  0  0  0
  -19.8460    2.6930  -28.8560 H   0  0  0  0  0  0  0  0  0  0  0  0
  -19.7340   -5.0860  -24.9550 H   0  0  0  0  0  0  0  0  0  0  0  0
  -20.3360   -6.6020  -26.9020 H   0  0  0  0  0  0  0  0  0  0  0  0
  -19.4650   -5.8440  -29.9290 H   0  0  0  0  0  0  0  0  0  0  0  0
  -21.1400   -6.1390  -29.3930 H   0  0  0  0  0  0  0  0  0  0  0  0
  -20.3230   -5.1310  -32.0930 H   0  0  0  0  0  0  0  0  0  0  0  0
  -19.2310   -2.0750  -32.4520 H   0  0  0  0  0  0  0  0  0  0  0  0
  -19.8980   -0.3200  -34.0600 H   0  0  0  0  0  0  0  0  0  0  0  0
  -23.6140   -2.2440  -34.6250 H   0  0  0  0  0  0  0  0  0  0  0  0
  -22.9500   -4.0210  -33.0020 H   0  0  0  0  0  0  0  0  0  0  0  0
  -23.2430    2.5630  -35.1160 H   0  0  0  0  0  0  0  0  0  0  0  0
  -22.4530    2.0660  -33.5960 H   0  0  0  0  0  0  0  0  0  0  0  0
  -21.3440    3.7590  -35.8970 H   0  0  0  0  0  0  0  0  0  0  0  0
  -20.2730    3.1060  -34.6270 H   0  0  0  0  0  0  0  0  0  0  0  0
  -21.5620    4.2400  -34.1510 H   0  0  0  0  0  0  0  0  0  0  0  0
  1  2  1  0  0  0  0
  2  3  1  0  0  0  0
  3  4  2  0  0  0  0
  3 33  1  0  0  0  0
  4 34  1  0  0  0  0
  5  8  1  0  0  0  0
  5  4  1  0  0  0  0
  6  5  2  0  0  0  0
  7  6  1  0  0  0  0
  7  2  2  0  0  0  0
  8 31  1  0  0  0  0
  9 11  1  0  0  0  0
  9  8  1  0  0  0  0
 10  9  2  0  0  0  0
 11 12  2  0  0  0  0
 12 31  1  0  0  0  0
 12 13  1  0  0  0  0
 13 37  1  0  0  0  0
 14 38  1  0  0  0  0
 14 13  1  0  0  0  0
 15 11  1  0  0  0  0
 15 14  1  0  0  0  0
 16 40  1  0  0  0  0
 16 15  1  0  0  0  0
 17 18  2  0  0  0  0
 17 16  1  0  0  0  0
 19 17  1  0  0  0  0
 20 19  1  0  0  0  0
 21 20  1  0  0  0  0
 21 42  1  0  0  0  0
 22 21  2  0  0  0  0
 23 24  2  0  0  0  0
 23 22  1  0  0  0  0
 24 25  1  0  0  0  0
 25 45  1  0  0  0  0
 25 20  2  0  0  0  0
 26 28  1  0  0  0  0
 26 23  1  0  0  0  0
 27 26  2  0  0  0  0
 28 29  1  0  0  0  0
 29 47  1  0  0  0  0
 30 29  1  0  0  0  0
 30 49  1  0  0  0  0
 30 50  1  0  0  0  0
 31 32  2  0  0  0  0
 35  6  1  0  0  0  0
 36  7  1  0  0  0  0
 39 16  1  0  0  0  0
 41 19  1  0  0  0  0
 43 22  1  0  0  0  0
 44 24  1  0  0  0  0
 46 29  1  0  0  0  0
 48 30  1  0  0  0  0
M  END
>  <Pose>
1

>  <Score>
-7.37

$$$$
