
 OpenBabel03222201593D

 38 42  0  0  1  0  0  0  0  0999 V2000
  -19.2830   -2.0330  -27.7020 B   0  0  0  0  0  0  0  0  0  0  0  0
  -19.8450   -1.9230  -29.5100 C   0  0  0  0  0  0  0  0  0  0  0  0
  -20.1110   -3.0760  -30.2090 C   0  0  0  0  0  0  0  0  0  0  0  0
  -20.5180   -2.9660  -31.5200 C   0  0  0  0  0  0  0  0  0  0  0  0
  -20.6640   -1.7470  -32.1430 C   0  0  0  0  0  0  0  0  0  0  0  0
  -20.3980   -0.5810  -31.4390 C   0  0  0  0  0  0  0  0  0  0  0  0
  -19.9850   -0.6960  -30.1100 C   0  0  0  0  0  0  0  0  0  0  0  0
  -21.0920   -1.6460  -33.5080 N   0  0  0  0  0  0  0  0  0  0  0  0
  -20.4310   -0.8310  -34.4630 C   0  0  0  0  0  0  0  0  0  0  0  0
  -19.2580   -0.4050  -34.3340 O   0  0  0  0  0  0  0  0  0  0  0  0
  -21.3480   -0.5810  -35.6070 C   0  0  2  0  0  0  0  0  0  0  0  0
  -22.1010    0.7050  -35.4580 C   0  0  1  0  0  0  0  0  0  0  0  0
  -23.3060    0.3740  -36.1160 O   0  0  0  0  0  0  0  0  0  0  0  0
  -23.6660   -0.7100  -35.2760 C   0  0  1  0  0  0  0  0  0  0  0  0
  -22.4780   -1.5960  -35.4250 C   0  0  2  0  0  0  0  0  0  0  0  0
  -22.1910   -2.2960  -34.1440 C   0  0  0  0  0  0  0  0  0  0  0  0
  -22.8140   -3.2740  -33.7230 O   0  0  0  0  0  0  0  0  0  0  0  0
  -23.5850   -0.0300  -33.9570 C   0  0  0  0  0  0  0  0  0  0  0  0
  -22.5590    0.8090  -34.0630 C   0  0  0  0  0  0  0  0  0  0  0  0
  -21.4480    1.8930  -36.0230 C   0  0  0  0  0  0  0  0  0  0  0  0
  -20.2600    2.2140  -35.4240 O   0  0  0  0  0  0  0  0  0  0  0  0
  -20.4230    3.3780  -34.7160 C   0  0  0  0  0  0  0  0  0  0  0  0
  -21.8410    3.8000  -34.9170 C   0  0  0  0  0  0  0  0  0  0  0  0
  -22.2690    3.0050  -35.9740 O   0  0  0  0  0  0  0  0  0  0  0  0
  -20.0100   -4.0690  -29.7610 H   0  0  0  0  0  0  0  0  0  0  0  0
  -20.7380   -3.8700  -32.1070 H   0  0  0  0  0  0  0  0  0  0  0  0
  -20.5170    0.3650  -31.9390 H   0  0  0  0  0  0  0  0  0  0  0  0
  -19.7770    0.2120  -29.5620 H   0  0  0  0  0  0  0  0  0  0  0  0
  -20.8220   -0.6870  -36.5540 H   0  0  0  0  0  0  0  0  0  0  0  0
  -24.6240   -1.1370  -35.5160 H   0  0  0  0  0  0  0  0  0  0  0  0
  -22.5230   -2.2910  -36.2630 H   0  0  0  0  0  0  0  0  0  0  0  0
  -24.2580   -0.2330  -33.1350 H   0  0  0  0  0  0  0  0  0  0  0  0
  -22.2130    1.4010  -33.2210 H   0  0  0  0  0  0  0  0  0  0  0  0
  -21.2510    1.6890  -37.1090 H   0  0  0  0  0  0  0  0  0  0  0  0
  -19.7390    4.1890  -35.0340 H   0  0  0  0  0  0  0  0  0  0  0  0
  -20.2810    3.1390  -33.6300 H   0  0  0  0  0  0  0  0  0  0  0  0
  -21.8970    4.8940  -35.1900 H   0  0  0  0  0  0  0  0  0  0  0  0
  -22.4930    3.6010  -34.0280 H   0  0  0  0  0  0  0  0  0  0  0  0
  2  1  1  0  0  0  0
  3 25  1  0  0  0  0
  3  2  2  0  0  0  0
  4  3  1  0  0  0  0
  5  4  2  0  0  0  0
  5  6  1  0  0  0  0
  6  7  2  0  0  0  0
  7 28  1  0  0  0  0
  7  2  1  0  0  0  0
  8  5  1  0  0  0  0
  9 10  2  0  0  0  0
  9  8  1  0  0  0  0
 11 29  1  6  0  0  0
 11 12  1  0  0  0  0
 11 15  1  0  0  0  0
 11  9  1  0  0  0  0
 12 20  1  6  0  0  0
 12 19  1  0  0  0  0
 13 12  1  0  0  0  0
 13 14  1  0  0  0  0
 14 30  1  6  0  0  0
 14 18  1  0  0  0  0
 15 31  1  6  0  0  0
 15 14  1  0  0  0  0
 15 16  1  0  0  0  0
 16 17  2  0  0  0  0
 16  8  1  0  0  0  0
 18 32  1  0  0  0  0
 19 18  2  0  0  0  0
 19 33  1  0  0  0  0
 20 24  1  0  0  0  0
 20 21  1  0  0  0  0
 21 22  1  0  0  0  0
 22 36  1  0  0  0  0
 23 22  1  0  0  0  0
 23 38  1  0  0  0  0
 24 23  1  0  0  0  0
 26  4  1  0  0  0  0
 27  6  1  0  0  0  0
 34 20  1  0  0  0  0
 35 22  1  0  0  0  0
 37 23  1  0  0  0  0
M  END
>  <Pose>
1

>  <Score>
-4.92

$$$$
