
 OpenBabel03222201593D

 45 48  0  0  1  0  0  0  0  0999 V2000
  -20.2070   -1.9950  -32.4620 B   0  0  0  0  0  0  0  0  0  0  0  0
  -19.7690   -1.0450  -30.8670 C   0  0  0  0  0  0  0  0  0  0  0  0
  -18.4720   -1.0400  -30.4290 C   0  0  0  0  0  0  0  0  0  0  0  0
  -18.1460   -0.3510  -29.2680 C   0  0  0  0  0  0  0  0  0  0  0  0
  -19.0930    0.3330  -28.5390 C   0  0  0  0  0  0  0  0  0  0  0  0
  -20.3920    0.3140  -28.9970 C   0  0  0  0  0  0  0  0  0  0  0  0
  -20.7420   -0.3650  -30.1520 C   0  0  0  0  0  0  0  0  0  0  0  0
  -18.6680    1.0110  -27.3660 N   0  0  0  0  0  0  0  0  0  0  0  0
  -18.3420    0.2720  -26.1750 C   0  0  0  0  0  0  0  0  0  0  0  0
  -18.4370   -0.9870  -26.1790 O   0  0  0  0  0  0  0  0  0  0  0  0
  -17.9260    1.0140  -25.0510 N   0  0  0  0  0  0  0  0  0  0  0  0
  -17.8220    2.2780  -25.0250 C   0  0  0  0  0  0  0  0  0  0  0  0
  -18.1130    3.2010  -26.1490 C   0  0  1  0  0  0  0  0  0  0  0  0
  -19.1080    4.2060  -25.6800 C   0  0  0  0  0  0  0  0  0  0  0  0
  -19.0800    5.4810  -26.3020 N   0  0  0  0  0  4  0  0  0  0  0  0
  -18.2850    5.5850  -27.4610 C   0  0  0  0  0  0  0  0  0  0  0  0
  -17.1130    4.8300  -27.5880 C   0  0  0  0  0  0  0  0  0  0  0  0
  -16.3550    4.9450  -28.7190 C   0  0  0  0  0  0  0  0  0  0  0  0
  -16.6740    5.7750  -29.7700 C   0  0  0  0  0  0  0  0  0  0  0  0
  -17.8290    6.5160  -29.6410 C   0  0  0  0  0  0  0  0  0  0  0  0
  -18.6200    6.4210  -28.5030 C   0  0  0  0  0  0  0  0  0  0  0  0
  -15.8270    5.8710  -30.9820 C   0  0  0  0  0  0  0  0  0  0  0  0
  -16.8060    3.9480  -26.4320 C   0  0  0  0  0  0  0  0  0  0  0  0
  -18.7490    6.5570  -25.3530 C   0  0  0  0  0  0  0  0  0  0  0  0
  -18.5510    2.4290  -27.3320 C   0  0  0  0  0  0  0  0  0  0  0  0
  -18.8570    3.0230  -28.4180 O   0  0  0  0  0  0  0  0  0  0  0  0
  -17.3920    2.8930  -23.8290 O   0  0  0  0  0  0  0  0  0  0  0  0
  -17.7350   -1.5800  -31.0090 H   0  0  0  0  0  0  0  0  0  0  0  0
  -17.1010   -0.3860  -28.9760 H   0  0  0  0  0  0  0  0  0  0  0  0
  -21.1640    0.8420  -28.4490 H   0  0  0  0  0  0  0  0  0  0  0  0
  -21.7490   -0.3980  -30.5370 H   0  0  0  0  0  0  0  0  0  0  0  0
  -20.1150    3.7280  -25.7150 H   0  0  0  0  0  0  0  0  0  0  0  0
  -18.9170    4.3680  -24.5780 H   0  0  0  0  0  0  0  0  0  0  0  0
  -20.0740    5.7080  -26.6050 H   0  0  0  0  0  0  0  0  0  0  0  0
  -15.4500    4.3410  -28.7810 H   0  0  0  0  0  0  0  0  0  0  0  0
  -18.1150    7.1840  -30.4470 H   0  0  0  0  0  0  0  0  0  0  0  0
  -19.5190    7.0120  -28.4250 H   0  0  0  0  0  0  0  0  0  0  0  0
  -15.9630    6.7940  -31.5390 H   0  0  0  0  0  0  0  0  0  0  0  0
  -14.7800    5.6610  -30.6860 H   0  0  0  0  0  0  0  0  0  0  0  0
  -16.1400    5.0110  -31.6410 H   0  0  0  0  0  0  0  0  0  0  0  0
  -15.9820    3.2520  -26.6390 H   0  0  0  0  0  0  0  0  0  0  0  0
  -16.6280    4.5890  -25.5490 H   0  0  0  0  0  0  0  0  0  0  0  0
  -17.6620    6.7410  -25.3120 H   0  0  0  0  0  0  0  0  0  0  0  0
  -19.1780    6.3040  -24.3680 H   0  0  0  0  0  0  0  0  0  0  0  0
  -19.2230    7.4930  -25.7140 H   0  0  0  0  0  0  0  0  0  0  0  0
  1  2  1  0  0  0  0
  2  3  2  0  0  0  0
  2  7  1  0  0  0  0
  3  4  1  0  0  0  0
  4 29  1  0  0  0  0
  4  5  2  0  0  0  0
  5  8  1  0  0  0  0
  6  5  1  0  0  0  0
  6 30  1  0  0  0  0
  7  6  2  0  0  0  0
  8 25  1  0  0  0  0
  8  9  1  0  0  0  0
  9 11  1  0  0  0  0
 10  9  2  0  0  0  0
 11 12  1  0  0  0  0
 12 27  2  0  0  0  0
 13 25  1  6  0  0  0
 13 14  1  0  0  0  0
 13 12  1  0  0  0  0
 14 33  1  0  0  0  0
 15 14  1  0  0  0  0
 15 24  1  0  0  0  0
 16 15  1  0  0  0  0
 17 16  1  0  0  0  0
 17 23  1  0  0  0  0
 18 17  2  0  0  0  0
 19 20  2  0  0  0  0
 19 18  1  0  0  0  0
 20 21  1  0  0  0  0
 21 37  1  0  0  0  0
 21 16  2  0  0  0  0
 22 39  1  0  0  0  0
 22 19  1  0  0  0  0
 23 13  1  0  0  0  0
 23 42  1  0  0  0  0
 24 43  1  0  0  0  0
 24 44  1  0  0  0  0
 26 25  2  0  0  0  0
 28  3  1  0  0  0  0
 31  7  1  0  0  0  0
 32 14  1  0  0  0  0
 34 15  1  0  0  0  0
 35 18  1  0  0  0  0
 36 20  1  0  0  0  0
 38 22  1  0  0  0  0
 40 22  1  0  0  0  0
 41 23  1  0  0  0  0
 45 24  1  0  0  0  0
M  END
>  <Pose>
1

>  <Score>
-5.90

$$$$
