
 OpenBabel03222201593D

 44 47  0  0  0  0  0  0  0  0999 V2000
  -20.2880   -4.8340  -28.0950 B   0  0  0  0  0  0  0  0  0  0  0  0
  -19.7550   -3.0730  -27.6820 C   0  0  0  0  0  0  0  0  0  0  0  0
  -19.0920   -2.7590  -26.5140 C   0  0  0  0  0  0  0  0  0  0  0  0
  -18.7080   -1.4470  -26.2310 C   0  0  0  0  0  0  0  0  0  0  0  0
  -18.9910   -0.4420  -27.1270 C   0  0  0  0  0  0  0  0  0  0  0  0
  -19.6530   -0.7920  -28.2810 C   0  0  0  0  0  0  0  0  0  0  0  0
  -20.0420   -2.0690  -28.5850 C   0  0  0  0  0  0  0  0  0  0  0  0
  -18.6460    0.9140  -26.9300 N   0  0  0  0  0  0  0  0  0  0  0  0
  -18.9460    1.8780  -27.9690 C   0  0  0  0  0  0  0  0  0  0  0  0
  -18.4570    3.2700  -27.6420 C   0  0  0  0  0  0  0  0  0  0  0  0
  -17.0320    3.1220  -27.0860 C   0  0  0  0  0  0  0  0  0  0  0  0
  -17.1990    2.5040  -25.7960 N   0  0  0  0  0  0  0  0  0  0  0  0
  -18.0110    1.4050  -25.7550 C   0  0  0  0  0  0  0  0  0  0  0  0
  -18.0580    0.9580  -24.4890 N   0  0  0  0  0  0  0  0  0  0  0  0
  -17.2710    1.7880  -23.7580 C   0  0  0  0  0  0  0  0  0  0  0  0
  -16.7250    2.7660  -24.5750 C   0  0  0  0  0  0  0  0  0  0  0  0
  -15.8860    3.7310  -24.0540 C   0  0  0  0  0  0  0  0  0  0  0  0
  -15.4030    4.6130  -24.8400 O   0  0  0  0  0  0  0  0  0  0  0  0
  -15.5980    3.7150  -22.7400 N   0  0  0  0  0  0  0  0  0  0  0  0
  -16.1410    2.7560  -21.9710 C   0  0  0  0  0  0  0  0  0  0  0  0
  -15.8460    2.7780  -20.7460 O   0  0  0  0  0  0  0  0  0  0  0  0
  -16.9540    1.8150  -22.4520 N   0  0  0  0  0  0  0  0  0  0  0  0
  -17.5250    0.7910  -21.5890 C   0  0  0  0  0  0  0  0  0  0  0  0
  -14.7160    4.7250  -22.1830 C   0  0  0  0  0  0  0  0  0  0  0  0
  -13.3520    4.1240  -22.0100 C   0  0  0  0  0  0  0  0  0  0  0  0
  -12.3660    4.8490  -21.7420 O   0  0  0  0  0  0  0  0  0  0  0  0
  -13.1390    2.7330  -22.1420 N   0  0  0  0  0  0  0  0  0  0  0  0
  -18.8580   -3.5350  -25.7920 H   0  0  0  0  0  0  0  0  0  0  0  0
  -18.1890   -1.2470  -25.3050 H   0  0  0  0  0  0  0  0  0  0  0  0
  -19.9020   -0.0250  -29.0300 H   0  0  0  0  0  0  0  0  0  0  0  0
  -20.5590   -2.2830  -29.5080 H   0  0  0  0  0  0  0  0  0  0  0  0
  -18.4030    1.5760  -28.9110 H   0  0  0  0  0  0  0  0  0  0  0  0
  -20.0300    1.8830  -28.2290 H   0  0  0  0  0  0  0  0  0  0  0  0
  -19.1130    3.7270  -26.8510 H   0  0  0  0  0  0  0  0  0  0  0  0
  -18.4220    3.8760  -28.5430 H   0  0  0  0  0  0  0  0  0  0  0  0
  -16.5040    4.0750  -27.0530 H   0  0  0  0  0  0  0  0  0  0  0  0
  -16.5430    2.3650  -27.7610 H   0  0  0  0  0  0  0  0  0  0  0  0
  -18.3710    0.2980  -22.0650 H   0  0  0  0  0  0  0  0  0  0  0  0
  -16.7330    0.1160  -21.2240 H   0  0  0  0  0  0  0  0  0  0  0  0
  -17.9020    1.3450  -20.6830 H   0  0  0  0  0  0  0  0  0  0  0  0
  -15.1030    5.0850  -21.2170 H   0  0  0  0  0  0  0  0  0  0  0  0
  -14.6360    5.5550  -22.9000 H   0  0  0  0  0  0  0  0  0  0  0  0
  -12.5900    2.3180  -22.9290 H   0  0  0  0  0  0  0  0  0  0  0  0
  -13.5290    2.0520  -21.4450 H   0  0  0  0  0  0  0  0  0  0  0  0
  1  2  1  0  0  0  0
  2  3  1  0  0  0  0
  3  4  2  0  0  0  0
  3 28  1  0  0  0  0
  4 29  1  0  0  0  0
  5  8  1  0  0  0  0
  5  4  1  0  0  0  0
  6  5  2  0  0  0  0
  7  6  1  0  0  0  0
  7  2  2  0  0  0  0
  8 13  1  0  0  0  0
  9 10  1  0  0  0  0
  9  8  1  0  0  0  0
 10 11  1  0  0  0  0
 10 34  1  0  0  0  0
 11 36  1  0  0  0  0
 11 12  1  0  0  0  0
 12 13  1  0  0  0  0
 12 16  1  0  0  0  0
 13 14  2  0  0  0  0
 14 15  1  0  0  0  0
 15 22  1  0  0  0  0
 16 17  1  0  0  0  0
 16 15  2  0  0  0  0
 17 19  1  0  0  0  0
 18 17  2  0  0  0  0
 19 24  1  0  0  0  0
 19 20  1  0  0  0  0
 20 21  2  0  0  0  0
 22 20  1  0  0  0  0
 22 23  1  0  0  0  0
 23 39  1  0  0  0  0
 23 40  1  0  0  0  0
 24 25  1  0  0  0  0
 24 41  1  0  0  0  0
 25 26  2  0  0  0  0
 27 25  1  0  0  0  0
 27 44  1  0  0  0  0
 30  6  1  0  0  0  0
 31  7  1  0  0  0  0
 32  9  1  0  0  0  0
 33  9  1  0  0  0  0
 35 10  1  0  0  0  0
 37 11  1  0  0  0  0
 38 23  1  0  0  0  0
 42 24  1  0  0  0  0
 43 27  1  0  0  0  0
M  END
>  <Pose>
1

>  <Score>
-6.34

$$$$
