
 OpenBabel03222201593D

 49 52  0  0  1  0  0  0  0  0999 V2000
  -17.5340    2.8500  -26.3260 B   0  0  0  0  0  0  0  0  0  0  0  0
  -17.9320    0.9720  -26.3260 C   0  0  0  0  0  0  0  0  0  0  0  0
  -17.8950    0.2670  -25.1430 C   0  0  0  0  0  0  0  0  0  0  0  0
  -18.1850   -1.1000  -25.1440 C   0  0  0  0  0  0  0  0  0  0  0  0
  -18.5080   -1.7550  -26.3090 C   0  0  0  0  0  0  0  0  0  0  0  0
  -18.5410   -1.0340  -27.4770 C   0  0  0  0  0  0  0  0  0  0  0  0
  -18.2580    0.3120  -27.4930 C   0  0  0  0  0  0  0  0  0  0  0  0
  -18.7930   -3.1020  -26.2990 O   0  0  0  0  0  0  0  0  0  0  0  0
  -18.6420   -3.8490  -27.4720 C   0  0  0  0  0  0  0  0  0  0  0  0
  -19.8780   -3.9310  -28.2720 C   0  0  0  0  0  0  0  0  0  0  0  0
  -20.8020   -3.1230  -28.0730 O   0  0  0  0  0  0  0  0  0  0  0  0
  -20.0030   -4.9250  -29.2630 N   0  0  0  0  0  0  0  0  0  0  0  0
  -20.6400   -4.6880  -30.5170 C   0  0  0  0  0  0  0  0  0  0  0  0
  -20.6230   -3.4700  -31.0890 N   0  0  0  0  0  0  0  0  0  0  0  0
  -21.2210   -3.2870  -32.2550 C   0  0  0  0  0  0  0  0  0  0  0  0
  -21.3380   -2.1870  -33.0120 N   0  0  0  0  0  0  0  0  0  0  0  0
  -22.0470   -2.5670  -34.1000 C   0  0  0  0  0  0  0  0  0  0  0  0
  -22.3580   -3.8640  -34.0170 N   0  0  0  0  0  0  0  0  0  0  0  0
  -21.8650   -4.3610  -32.8810 C   0  0  0  0  0  0  0  0  0  0  0  0
  -21.8870   -5.6140  -32.2990 C   0  0  0  0  0  0  0  0  0  0  0  0
  -21.2670   -5.7390  -31.1220 N   0  0  0  0  0  0  0  0  0  0  0  0
  -22.5390   -6.6430  -32.9630 O   0  0  0  0  0  0  0  0  0  0  0  0
  -20.8690   -0.8690  -32.8200 C   0  0  2  0  0  0  0  0  0  0  0  0
  -20.8470   -0.1420  -34.0170 O   0  0  0  0  0  0  0  0  0  0  0  0
  -19.5150   -0.2390  -34.4090 C   0  0  2  0  0  0  0  0  0  0  0  0
  -18.8230    0.1950  -33.1250 C   0  0  1  0  0  0  0  0  0  0  0  0
  -19.5780   -0.6930  -32.1390 C   0  0  1  0  0  0  0  0  0  0  0  0
  -19.7160   -0.0260  -30.9010 O   0  0  0  0  0  0  0  0  0  0  0  0
  -17.4730   -0.0210  -33.1290 O   0  0  0  0  0  0  0  0  0  0  0  0
  -19.1870    0.6640  -35.5620 C   0  0  0  0  0  0  0  0  0  0  0  0
  -18.0140    0.3520  -36.1950 O   0  0  0  0  0  0  0  0  0  0  0  0
  -17.6410    0.7860  -24.2370 H   0  0  0  0  0  0  0  0  0  0  0  0
  -18.1350   -1.5840  -24.1830 H   0  0  0  0  0  0  0  0  0  0  0  0
  -18.7890   -1.4840  -28.4430 H   0  0  0  0  0  0  0  0  0  0  0  0
  -18.2770    0.9020  -28.4020 H   0  0  0  0  0  0  0  0  0  0  0  0
  -18.3920   -4.9020  -27.1650 H   0  0  0  0  0  0  0  0  0  0  0  0
  -17.7790   -3.5190  -28.0850 H   0  0  0  0  0  0  0  0  0  0  0  0
  -19.6190   -5.9000  -29.0960 H   0  0  0  0  0  0  0  0  0  0  0  0
  -22.3410   -1.9300  -34.9460 H   0  0  0  0  0  0  0  0  0  0  0  0
  -23.3000   -7.0950  -32.4430 H   0  0  0  0  0  0  0  0  0  0  0  0
  -21.6440   -0.3170  -32.2020 H   0  0  0  0  0  0  0  0  0  0  0  0
  -19.1960   -1.2850  -34.5860 H   0  0  0  0  0  0  0  0  0  0  0  0
  -19.0860    1.2470  -32.8870 H   0  0  0  0  0  0  0  0  0  0  0  0
  -18.9770   -1.5650  -31.9490 H   0  0  0  0  0  0  0  0  0  0  0  0
  -18.8120    0.3170  -30.6860 H   0  0  0  0  0  0  0  0  0  0  0  0
  -17.1810   -0.7050  -33.8130 H   0  0  0  0  0  0  0  0  0  0  0  0
  -19.2450    1.7050  -35.1890 H   0  0  0  0  0  0  0  0  0  0  0  0
  -20.0230    0.5610  -36.2980 H   0  0  0  0  0  0  0  0  0  0  0  0
  -17.4990   -0.2680  -35.6160 H   0  0  0  0  0  0  0  0  0  0  0  0
  1  2  1  0  0  0  0
  2  3  1  0  0  0  0
  3 32  1  0  0  0  0
  4  3  2  0  0  0  0
  4 33  1  0  0  0  0
  5  8  1  0  0  0  0
  5  4  1  0  0  0  0
  6  5  2  0  0  0  0
  7  6  1  0  0  0  0
  7  2  2  0  0  0  0
  9 36  1  0  0  0  0
  9  8  1  0  0  0  0
 10 11  2  0  0  0  0
 10  9  1  0  0  0  0
 12 38  1  0  0  0  0
 12 10  1  0  0  0  0
 13 12  1  0  0  0  0
 14 13  2  0  0  0  0
 15 14  1  0  0  0  0
 16 23  1  0  0  0  0
 16 15  1  0  0  0  0
 17 18  2  0  0  0  0
 17 16  1  0  0  0  0
 18 19  1  0  0  0  0
 19 20  1  0  0  0  0
 19 15  2  0  0  0  0
 20 21  2  0  0  0  0
 21 13  1  0  0  0  0
 22 40  1  0  0  0  0
 22 20  1  0  0  0  0
 23 41  1  1  0  0  0
 23 27  1  0  0  0  0
 24 23  1  0  0  0  0
 25 42  1  6  0  0  0
 25 24  1  0  0  0  0
 25 26  1  0  0  0  0
 26 43  1  1  0  0  0
 26 27  1  0  0  0  0
 27 44  1  1  0  0  0
 27 28  1  0  0  0  0
 28 45  1  0  0  0  0
 29 26  1  0  0  0  0
 30 47  1  0  0  0  0
 30 25  1  0  0  0  0
 31 49  1  0  0  0  0
 31 30  1  0  0  0  0
 34  6  1  0  0  0  0
 35  7  1  0  0  0  0
 37  9  1  0  0  0  0
 39 17  1  0  0  0  0
 46 29  1  0  0  0  0
 48 30  1  0  0  0  0
M  END
>  <Pose>
1

>  <Score>
-8.67

$$$$
