
 OpenBabel03222201593D

 56 59  0  0  1  0  0  0  0  0999 V2000
  -24.5910    1.0880  -38.3870 B   0  0  0  0  0  0  0  0  0  0  0  0
  -23.8660   -0.1410  -37.1330 C   0  0  0  0  0  0  0  0  0  0  0  0
  -23.8030    0.2190  -35.8140 C   0  0  0  0  0  0  0  0  0  0  0  0
  -23.2780   -0.6690  -34.9000 C   0  0  0  0  0  0  0  0  0  0  0  0
  -22.8110   -1.9150  -35.2670 C   0  0  0  0  0  0  0  0  0  0  0  0
  -22.8890   -2.2560  -36.6360 C   0  0  0  0  0  0  0  0  0  0  0  0
  -23.4060   -1.3790  -37.5310 C   0  0  0  0  0  0  0  0  0  0  0  0
  -22.3050   -2.8000  -34.4430 O   0  0  0  0  0  0  0  0  0  0  0  0
  -22.3200   -3.8240  -33.6160 C   0  0  0  0  0  0  0  0  0  0  0  0
  -21.9240   -3.5220  -32.2050 C   0  0  1  0  0  0  0  0  0  0  0  0
  -22.7720   -4.2560  -31.3640 O   0  0  0  0  0  0  0  0  0  0  0  0
  -20.4770   -3.7080  -31.8530 C   0  0  0  0  0  0  0  0  0  0  0  0
  -20.0080   -2.9430  -30.7180 N   0  0  0  0  0  0  0  0  0  0  0  0
  -19.9080   -3.3890  -29.4450 C   0  0  0  0  0  0  0  0  0  0  0  0
  -19.4850   -2.3470  -28.6520 C   0  0  0  0  0  0  0  0  0  0  0  0
  -19.3440   -1.3230  -29.4680 N   0  0  0  0  0  0  0  0  0  0  0  0
  -19.6560   -1.6480  -30.7620 C   0  0  0  0  0  0  0  0  0  0  0  0
  -19.5220   -0.7360  -31.8690 N   0  0  0  0  0  0  0  0  0  0  0  0
  -18.1200   -0.3520  -32.1490 C   0  0  0  0  0  0  0  0  0  0  0  0
  -17.9150    0.3280  -33.4410 C   0  0  0  0  0  0  0  0  0  0  0  0
  -19.0140    1.1770  -33.8250 N   0  0  0  0  0  0  0  0  0  0  0  0
  -20.1400    0.3150  -33.9990 C   0  0  0  0  0  0  0  0  0  0  0  0
  -20.6030   -0.2790  -32.6690 C   0  0  0  0  0  0  0  0  0  0  0  0
  -19.2080    2.2670  -32.9270 C   0  0  0  0  0  0  0  0  0  0  0  0
  -19.2760   -2.4480  -27.3070 N   0  0  0  0  0  0  0  0  0  0  0  0
  -19.4990   -3.6340  -26.7390 C   0  0  0  0  0  0  0  0  0  0  0  0
  -19.3130   -3.7460  -25.4970 O   0  0  0  0  0  0  0  0  0  0  0  0
  -19.9100   -4.6680  -27.4860 N   0  0  0  0  0  0  0  0  0  0  0  0
  -20.1250   -4.5980  -28.8200 C   0  0  0  0  0  0  0  0  0  0  0  0
  -20.5050   -5.5720  -29.4870 O   0  0  0  0  0  0  0  0  0  0  0  0
  -18.8340   -1.2780  -26.5470 C   0  0  0  0  0  0  0  0  0  0  0  0
  -24.1680    1.1940  -35.4910 H   0  0  0  0  0  0  0  0  0  0  0  0
  -23.2430   -0.3300  -33.8820 H   0  0  0  0  0  0  0  0  0  0  0  0
  -22.5260   -3.2260  -36.9330 H   0  0  0  0  0  0  0  0  0  0  0  0
  -23.4610   -1.6710  -38.5880 H   0  0  0  0  0  0  0  0  0  0  0  0
  -23.3390   -4.3810  -33.5880 H   0  0  0  0  0  0  0  0  0  0  0  0
  -21.5960   -4.6760  -33.9340 H   0  0  0  0  0  0  0  0  0  0  0  0
  -22.1130   -2.4120  -32.0380 H   0  0  0  0  0  0  0  0  0  0  0  0
  -23.6890   -3.8310  -31.3770 H   0  0  0  0  0  0  0  0  0  0  0  0
  -19.8190   -3.6670  -32.7370 H   0  0  0  0  0  0  0  0  0  0  0  0
  -20.4110   -4.8100  -31.5630 H   0  0  0  0  0  0  0  0  0  0  0  0
  -17.7260    0.2060  -31.2680 H   0  0  0  0  0  0  0  0  0  0  0  0
  -17.5240   -1.3110  -32.1630 H   0  0  0  0  0  0  0  0  0  0  0  0
  -16.9530    0.8550  -33.4140 H   0  0  0  0  0  0  0  0  0  0  0  0
  -17.8490   -0.4550  -34.2540 H   0  0  0  0  0  0  0  0  0  0  0  0
  -20.9940    0.8940  -34.4340 H   0  0  0  0  0  0  0  0  0  0  0  0
  -19.8920   -0.4730  -34.7090 H   0  0  0  0  0  0  0  0  0  0  0  0
  -21.1600   -1.2100  -33.0040 H   0  0  0  0  0  0  0  0  0  0  0  0
  -21.2570    0.4920  -32.2510 H   0  0  0  0  0  0  0  0  0  0  0  0
  -18.8260    3.2070  -33.4190 H   0  0  0  0  0  0  0  0  0  0  0  0
  -20.2530    2.4410  -32.6140 H   0  0  0  0  0  0  0  0  0  0  0  0
  -18.6100    2.1940  -31.9820 H   0  0  0  0  0  0  0  0  0  0  0  0
  -20.0740   -5.5780  -27.0070 H   0  0  0  0  0  0  0  0  0  0  0  0
  -19.0320   -1.3880  -25.4780 H   0  0  0  0  0  0  0  0  0  0  0  0
  -19.4550   -0.4240  -26.8940 H   0  0  0  0  0  0  0  0  0  0  0  0
  -17.7600   -1.0890  -26.7090 H   0  0  0  0  0  0  0  0  0  0  0  0
  1  2  1  0  0  0  0
  2  3  1  0  0  0  0
  3 32  1  0  0  0  0
  3  4  2  0  0  0  0
  4 33  1  0  0  0  0
  5  4  1  0  0  0  0
  5  8  1  0  0  0  0
  6  5  2  0  0  0  0
  7  2  2  0  0  0  0
  7  6  1  0  0  0  0
  8  9  1  0  0  0  0
  9 36  1  0  0  0  0
  9 10  1  0  0  0  0
 10 38  1  1  0  0  0
 10 12  1  0  0  0  0
 10 11  1  0  0  0  0
 12 41  1  0  0  0  0
 12 13  1  0  0  0  0
 13 14  1  0  0  0  0
 14 29  1  0  0  0  0
 14 15  2  0  0  0  0
 15 25  1  0  0  0  0
 16 15  1  0  0  0  0
 17 13  1  0  0  0  0
 17 16  2  0  0  0  0
 18 17  1  0  0  0  0
 19 18  1  0  0  0  0
 19 42  1  0  0  0  0
 20 44  1  0  0  0  0
 20 19  1  0  0  0  0
 21 20  1  0  0  0  0
 21 24  1  0  0  0  0
 22 21  1  0  0  0  0
 22 23  1  0  0  0  0
 23 49  1  0  0  0  0
 23 18  1  0  0  0  0
 24 51  1  0  0  0  0
 24 52  1  0  0  0  0
 25 26  1  0  0  0  0
 25 31  1  0  0  0  0
 26 27  2  0  0  0  0
 28 53  1  0  0  0  0
 28 26  1  0  0  0  0
 29 28  1  0  0  0  0
 30 29  2  0  0  0  0
 31 54  1  0  0  0  0
 34  6  1  0  0  0  0
 35  7  1  0  0  0  0
 37  9  1  0  0  0  0
 39 11  1  0  0  0  0
 40 12  1  0  0  0  0
 43 19  1  0  0  0  0
 45 20  1  0  0  0  0
 46 22  1  0  0  0  0
 47 22  1  0  0  0  0
 48 23  1  0  0  0  0
 50 24  1  0  0  0  0
 55 31  1  0  0  0  0
 56 31  1  0  0  0  0
M  END
>  <Pose>
1

>  <Score>
-7.89

$$$$
