
 OpenBabel03222201593D

 41 44  0  0  0  0  0  0  0  0999 V2000
  -20.0270   -0.6090  -30.1940 B   0  0  0  0  0  0  0  0  0  0  0  0
  -19.7820   -1.7480  -28.6740 C   0  0  0  0  0  0  0  0  0  0  0  0
  -19.0320   -1.3550  -27.5940 C   0  0  0  0  0  0  0  0  0  0  0  0
  -18.8660   -2.1890  -26.5070 C   0  0  0  0  0  0  0  0  0  0  0  0
  -19.4660   -3.4310  -26.5170 C   0  0  0  0  0  0  0  0  0  0  0  0
  -20.2270   -3.8210  -27.6180 C   0  0  0  0  0  0  0  0  0  0  0  0
  -20.4020   -3.0040  -28.7110 C   0  0  0  0  0  0  0  0  0  0  0  0
  -21.2350   -3.3890  -29.8630 C   0  0  0  0  0  0  0  0  0  0  0  0
  -20.5390   -3.4710  -31.0710 O   0  0  0  0  0  0  0  0  0  0  0  0
  -21.0010   -2.9510  -32.2670 C   0  0  0  0  0  0  0  0  0  0  0  0
  -22.1500   -3.4760  -32.8740 C   0  0  0  0  0  0  0  0  0  0  0  0
  -22.6550   -2.9950  -34.0600 C   0  0  0  0  0  0  0  0  0  0  0  0
  -22.0350   -1.9520  -34.7120 C   0  0  0  0  0  0  0  0  0  0  0  0
  -20.9040   -1.4220  -34.1290 C   0  0  0  0  0  0  0  0  0  0  0  0
  -20.3900   -1.9080  -32.9260 C   0  0  0  0  0  0  0  0  0  0  0  0
  -22.5610   -1.4280  -35.9750 C   0  0  0  0  0  0  0  0  0  0  0  0
  -21.9240   -1.2610  -37.1460 N   0  0  0  0  0  0  0  0  0  0  0  0
  -22.7870   -0.7540  -38.0340 N   0  0  0  0  0  0  0  0  0  0  0  0
  -23.9590   -0.5990  -37.4360 N   0  0  0  0  0  0  0  0  0  0  0  0
  -23.8190   -1.0090  -36.1860 N   0  0  0  0  0  0  0  0  0  0  0  0
  -22.5480   -0.4110  -39.4200 C   0  0  0  0  0  0  0  0  0  0  0  0
  -22.0350   -1.5870  -40.1570 C   0  0  0  0  0  0  0  0  0  0  0  0
  -22.8030   -2.2390  -40.8820 O   0  0  0  0  0  0  0  0  0  0  0  0
  -20.6780   -1.9480  -40.0210 N   0  0  0  0  0  0  0  0  0  0  0  0
  -19.1390   -4.0450  -25.3240 O   0  0  0  0  0  0  0  0  0  0  0  0
  -18.5900   -3.1050  -24.4180 C   0  0  0  0  0  0  0  0  0  0  0  0
  -18.1820   -2.0770  -25.2950 O   0  0  0  0  0  0  0  0  0  0  0  0
  -18.5490   -0.3660  -27.5740 H   0  0  0  0  0  0  0  0  0  0  0  0
  -20.6820   -4.8040  -27.5500 H   0  0  0  0  0  0  0  0  0  0  0  0
  -21.8200   -4.3150  -29.6760 H   0  0  0  0  0  0  0  0  0  0  0  0
  -21.9970   -2.5810  -29.9820 H   0  0  0  0  0  0  0  0  0  0  0  0
  -22.6150   -4.3000  -32.3320 H   0  0  0  0  0  0  0  0  0  0  0  0
  -23.5450   -3.4220  -34.5020 H   0  0  0  0  0  0  0  0  0  0  0  0
  -20.4240   -0.6070  -34.6420 H   0  0  0  0  0  0  0  0  0  0  0  0
  -19.4980   -1.4500  -32.5050 H   0  0  0  0  0  0  0  0  0  0  0  0
  -23.4990   -0.0730  -39.8770 H   0  0  0  0  0  0  0  0  0  0  0  0
  -21.8270    0.4320  -39.4380 H   0  0  0  0  0  0  0  0  0  0  0  0
  -20.0410   -2.1010  -40.8530 H   0  0  0  0  0  0  0  0  0  0  0  0
  -20.2650   -2.0750  -39.0730 H   0  0  0  0  0  0  0  0  0  0  0  0
  -19.3960   -2.7820  -23.7320 H   0  0  0  0  0  0  0  0  0  0  0  0
  -17.7590   -3.5610  -23.8560 H   0  0  0  0  0  0  0  0  0  0  0  0
  1  2  1  0  0  0  0
  2  3  1  0  0  0  0
  3 28  1  0  0  0  0
  3  4  2  0  0  0  0
  4 27  1  0  0  0  0
  5  4  1  0  0  0  0
  5 25  1  0  0  0  0
  6 29  1  0  0  0  0
  6  5  2  0  0  0  0
  7  2  2  0  0  0  0
  7  6  1  0  0  0  0
  8 30  1  0  0  0  0
  8  7  1  0  0  0  0
  9  8  1  0  0  0  0
 10  9  1  0  0  0  0
 11 32  1  0  0  0  0
 11 10  1  0  0  0  0
 12 11  2  0  0  0  0
 13 14  2  0  0  0  0
 13 12  1  0  0  0  0
 14 15  1  0  0  0  0
 15 35  1  0  0  0  0
 15 10  2  0  0  0  0
 16 13  1  0  0  0  0
 17 16  2  0  0  0  0
 18 19  1  0  0  0  0
 18 17  1  0  0  0  0
 19 20  2  0  0  0  0
 20 16  1  0  0  0  0
 21 18  1  0  0  0  0
 22 24  1  0  0  0  0
 22 21  1  0  0  0  0
 23 22  2  0  0  0  0
 24 39  1  0  0  0  0
 25 26  1  0  0  0  0
 26 41  1  0  0  0  0
 26 40  1  0  0  0  0
 27 26  1  0  0  0  0
 31  8  1  0  0  0  0
 33 12  1  0  0  0  0
 34 14  1  0  0  0  0
 36 21  1  0  0  0  0
 37 21  1  0  0  0  0
 38 24  1  0  0  0  0
M  END
>  <Pose>
1

>  <Score>
-6.99

$$$$
