
 OpenBabel03222201593D

 53 57  0  0  1  0  0  0  0  0999 V2000
  -22.3100   -2.5280  -34.2700 B   0  0  0  0  0  0  0  0  0  0  0  0
  -22.4240   -1.0890  -35.5020 C   0  0  0  0  0  0  0  0  0  0  0  0
  -23.6070   -0.7560  -36.1180 C   0  0  0  0  0  0  0  0  0  0  0  0
  -23.7000    0.2730  -37.0020 C   0  0  0  0  0  0  0  0  0  0  0  0
  -22.5770    1.0140  -37.2990 C   0  0  0  0  0  0  0  0  0  0  0  0
  -21.3610    0.6930  -36.6850 C   0  0  0  0  0  0  0  0  0  0  0  0
  -21.2630   -0.3540  -35.7840 C   0  0  0  0  0  0  0  0  0  0  0  0
  -20.0650   -0.7310  -35.1310 N   0  0  0  0  0  0  0  0  0  0  0  0
  -19.6080   -0.2120  -33.9010 C   0  0  0  0  0  0  0  0  0  0  0  0
  -18.4200   -0.0330  -33.5860 O   0  0  0  0  0  0  0  0  0  0  0  0
  -20.6500    0.1600  -32.8710 C   0  0  0  0  0  0  0  0  0  0  0  0
  -20.5070   -0.6230  -31.6660 N   0  0  0  0  0  0  0  0  0  0  0  0
  -20.7550    0.0390  -30.4740 C   0  0  0  0  0  0  0  0  0  0  0  0
  -20.0590   -0.3580  -29.2300 C   0  0  0  0  0  0  0  0  0  0  0  0
  -19.5320   -1.6830  -29.3940 N   0  0  0  0  0  0  0  0  0  0  0  0
  -18.6800   -1.8390  -30.5460 C   0  0  0  0  0  0  0  0  0  0  0  0
  -19.5600   -1.6650  -31.7570 C   0  0  0  0  0  0  0  0  0  0  0  0
  -19.7720   -2.7880  -28.5600 C   0  0  1  0  0  0  0  0  0  0  0  0
  -20.3930   -3.9230  -28.9700 N   0  0  0  0  0  0  0  0  0  0  0  0
  -20.6070   -4.9660  -28.1480 C   0  0  0  0  0  0  0  0  0  0  0  0
  -20.2080   -4.9320  -26.8650 N   0  0  0  0  0  0  0  0  0  0  0  0
  -19.5820   -3.8440  -26.3700 C   0  0  0  0  0  0  0  0  0  0  0  0
  -19.0820   -3.5370  -25.1460 N   0  0  0  0  0  0  0  0  0  0  0  0
  -18.5770   -2.3210  -25.2490 N   0  0  0  0  0  0  0  0  0  0  0  0
  -18.7260   -1.8240  -26.4790 C   0  0  0  0  0  0  0  0  0  0  0  0
  -19.3710   -2.7880  -27.2210 C   0  0  0  0  0  0  0  0  0  0  0  0
  -19.1120   -4.4040  -23.9670 C   0  0  0  0  0  0  0  0  0  0  0  0
  -22.6940    2.0480  -38.1930 O   0  0  0  0  0  0  0  0  0  0  0  0
  -23.6930    2.1290  -39.1810 C   0  0  0  0  0  0  0  0  0  0  0  0
  -24.7960    1.1380  -38.9910 C   0  0  0  0  0  0  0  0  0  0  0  0
  -24.8720    0.6440  -37.6470 O   0  0  0  0  0  0  0  0  0  0  0  0
  -24.4950   -1.3310  -35.8900 H   0  0  0  0  0  0  0  0  0  0  0  0
  -20.5120    1.2890  -36.9380 H   0  0  0  0  0  0  0  0  0  0  0  0
  -19.4580   -1.4690  -35.6060 H   0  0  0  0  0  0  0  0  0  0  0  0
  -20.4620    1.2250  -32.6380 H   0  0  0  0  0  0  0  0  0  0  0  0
  -21.6540    0.0740  -33.3290 H   0  0  0  0  0  0  0  0  0  0  0  0
  -20.5630    1.1450  -30.6230 H   0  0  0  0  0  0  0  0  0  0  0  0
  -21.8690    0.0210  -30.2700 H   0  0  0  0  0  0  0  0  0  0  0  0
  -19.2140    0.3290  -28.9770 H   0  0  0  0  0  0  0  0  0  0  0  0
  -20.7540   -0.2690  -28.3700 H   0  0  0  0  0  0  0  0  0  0  0  0
  -18.1610   -2.7990  -30.5660 H   0  0  0  0  0  0  0  0  0  0  0  0
  -17.9190   -1.0150  -30.5900 H   0  0  0  0  0  0  0  0  0  0  0  0
  -20.0760   -2.6180  -31.9950 H   0  0  0  0  0  0  0  0  0  0  0  0
  -18.8840   -1.4560  -32.6150 H   0  0  0  0  0  0  0  0  0  0  0  0
  -21.1140   -5.8220  -28.5860 H   0  0  0  0  0  0  0  0  0  0  0  0
  -18.4310   -0.8710  -26.8960 H   0  0  0  0  0  0  0  0  0  0  0  0
  -18.1410   -4.4260  -23.4390 H   0  0  0  0  0  0  0  0  0  0  0  0
  -19.8700   -4.0600  -23.2270 H   0  0  0  0  0  0  0  0  0  0  0  0
  -19.4320   -5.4160  -24.2960 H   0  0  0  0  0  0  0  0  0  0  0  0
  -24.0780    3.1850  -39.2150 H   0  0  0  0  0  0  0  0  0  0  0  0
  -23.2020    1.9320  -40.1770 H   0  0  0  0  0  0  0  0  0  0  0  0
  -24.5790    0.2340  -39.6280 H   0  0  0  0  0  0  0  0  0  0  0  0
  -25.7710    1.5160  -39.3220 H   0  0  0  0  0  0  0  0  0  0  0  0
  2  1  1  0  0  0  0
  3 32  1  0  0  0  0
  3  2  2  0  0  0  0
  4  3  1  0  0  0  0
  5  4  2  0  0  0  0
  5  6  1  0  0  0  0
  6  7  2  0  0  0  0
  7  2  1  0  0  0  0
  7  8  1  0  0  0  0
  8  9  1  0  0  0  0
  9 10  2  0  0  0  0
  9 11  1  0  0  0  0
 11 35  1  0  0  0  0
 11 12  1  0  0  0  0
 12 13  1  0  0  0  0
 13 38  1  0  0  0  0
 13 14  1  0  0  0  0
 14 39  1  0  0  0  0
 14 40  1  0  0  0  0
 15 14  1  0  0  0  0
 16 15  1  0  0  0  0
 17 12  1  0  0  0  0
 17 16  1  0  0  0  0
 18 15  1  6  0  0  0
 18 26  1  0  0  0  0
 19 18  1  0  0  0  0
 19 20  2  0  0  0  0
 20 21  1  0  0  0  0
 21 22  1  0  0  0  0
 22 23  1  0  0  0  0
 23 27  1  0  0  0  0
 24 23  1  0  0  0  0
 25 24  2  0  0  0  0
 26 25  1  0  0  0  0
 26 22  2  0  0  0  0
 27 47  1  0  0  0  0
 27 48  1  0  0  0  0
 28  5  1  0  0  0  0
 29 30  1  0  0  0  0
 29 28  1  0  0  0  0
 30 31  1  0  0  0  0
 31  4  1  0  0  0  0
 33  6  1  0  0  0  0
 34  8  1  0  0  0  0
 36 11  1  0  0  0  0
 37 13  1  0  0  0  0
 41 16  1  0  0  0  0
 42 16  1  0  0  0  0
 43 17  1  0  0  0  0
 44 17  1  0  0  0  0
 45 20  1  0  0  0  0
 46 25  1  0  0  0  0
 49 27  1  0  0  0  0
 50 29  1  0  0  0  0
 51 29  1  0  0  0  0
 52 30  1  0  0  0  0
 53 30  1  0  0  0  0
M  END
>  <Pose>
1

>  <Score>
-7.23

$$$$
