
 OpenBabel03222201593D

 45 48  0  0  1  0  0  0  0  0999 V2000
  -19.5920   -0.4580  -28.8830 B   0  0  0  0  0  0  0  0  0  0  0  0
  -19.4890   -0.4770  -30.8060 C   0  0  0  0  0  0  0  0  0  0  0  0
  -20.4210    0.1030  -31.6160 C   0  0  0  0  0  0  0  0  0  0  0  0
  -20.3270    0.0410  -32.9820 C   0  0  0  0  0  0  0  0  0  0  0  0
  -19.2560   -0.6270  -33.5060 C   0  0  0  0  0  0  0  0  0  0  0  0
  -18.2830   -1.2280  -32.6980 C   0  0  0  0  0  0  0  0  0  0  0  0
  -18.3900   -1.1600  -31.3240 C   0  0  0  0  0  0  0  0  0  0  0  0
  -19.3060   -0.6480  -34.9190 N   0  0  0  0  0  0  0  0  0  0  0  0
  -20.4580    0.0320  -35.3060 C   0  0  0  0  0  0  0  0  0  0  0  0
  -20.8140    0.1800  -36.5040 O   0  0  0  0  0  0  0  0  0  0  0  0
  -21.1750    0.5410  -34.0790 C   0  0  2  0  0  0  0  0  0  0  0  0
  -21.2360    1.9840  -34.2550 C   0  0  0  0  0  0  0  0  0  0  0  0
  -22.4360    2.6020  -34.4330 C   0  0  0  0  0  0  0  0  0  0  0  0
  -22.1710    3.9310  -34.5770 N   0  0  0  0  0  0  0  0  0  0  0  0
  -20.8810    4.1270  -34.4940 N   0  0  0  0  0  0  0  0  0  0  0  0
  -20.2270    2.9600  -34.2940 C   0  0  0  0  0  0  0  0  0  0  0  0
  -18.7570    2.8220  -34.1330 C   0  0  0  0  0  0  0  0  0  0  0  0
  -18.1170    4.1290  -33.8660 C   0  0  0  0  0  0  0  0  0  0  0  0
  -18.0030    5.0670  -34.6950 O   0  0  0  0  0  0  0  0  0  0  0  0
  -17.6030    4.3340  -32.6040 O   0  0  0  0  0  0  0  0  0  0  0  0
  -16.9640    5.4960  -32.1460 C   0  0  0  0  0  0  0  0  0  0  0  0
  -15.4670    5.3380  -32.2760 C   0  0  0  0  0  0  0  0  0  0  0  0
  -23.6600    1.9030  -34.4530 O   0  0  0  0  0  0  0  0  0  0  0  0
  -23.5950    0.5340  -34.2840 C   0  0  0  0  0  0  0  0  0  0  0  0
  -22.4760   -0.1110  -34.1120 C   0  0  0  0  0  0  0  0  0  0  0  0
  -22.5120   -1.5670  -33.9490 C   0  0  0  0  0  0  0  0  0  0  0  0
  -22.5610   -2.7050  -33.8210 N   0  0  0  0  0  0  0  0  0  0  0  0
  -24.8510   -0.1860  -34.3050 N   0  0  0  0  0  0  0  0  0  0  0  0
  -18.3160   -1.2740  -35.8190 C   0  0  0  0  0  0  0  0  0  0  0  0
  -21.2420    0.6140  -31.1740 H   0  0  0  0  0  0  0  0  0  0  0  0
  -17.4310   -1.7550  -33.0990 H   0  0  0  0  0  0  0  0  0  0  0  0
  -17.6470   -1.6190  -30.6870 H   0  0  0  0  0  0  0  0  0  0  0  0
  -20.3690    5.0540  -34.5670 H   0  0  0  0  0  0  0  0  0  0  0  0
  -18.4860    2.1570  -33.2950 H   0  0  0  0  0  0  0  0  0  0  0  0
  -18.3020    2.3490  -35.0400 H   0  0  0  0  0  0  0  0  0  0  0  0
  -17.1530    5.6200  -31.0310 H   0  0  0  0  0  0  0  0  0  0  0  0
  -17.3520    6.3870  -32.6560 H   0  0  0  0  0  0  0  0  0  0  0  0
  -15.2520    4.2700  -32.5730 H   0  0  0  0  0  0  0  0  0  0  0  0
  -14.9460    5.5030  -31.3350 H   0  0  0  0  0  0  0  0  0  0  0  0
  -15.0610    5.9460  -33.1190 H   0  0  0  0  0  0  0  0  0  0  0  0
  -24.9330   -1.1990  -34.1110 H   0  0  0  0  0  0  0  0  0  0  0  0
  -25.7060    0.3490  -34.5260 H   0  0  0  0  0  0  0  0  0  0  0  0
  -17.4190   -0.6040  -35.8770 H   0  0  0  0  0  0  0  0  0  0  0  0
  -18.0480   -2.2860  -35.4520 H   0  0  0  0  0  0  0  0  0  0  0  0
  -18.7460   -1.3190  -36.8280 H   0  0  0  0  0  0  0  0  0  0  0  0
  2  1  1  0  0  0  0
  3 30  1  0  0  0  0
  3  2  2  0  0  0  0
  4  3  1  0  0  0  0
  5  4  2  0  0  0  0
  5  6  1  0  0  0  0
  6  7  2  0  0  0  0
  7  2  1  0  0  0  0
  7 32  1  0  0  0  0
  8  5  1  0  0  0  0
  9  8  1  0  0  0  0
 10  9  2  0  0  0  0
 11  9  1  6  0  0  0
 11  4  1  0  0  0  0
 12 11  1  0  0  0  0
 13 12  1  0  0  0  0
 14 15  1  0  0  0  0
 14 13  2  0  0  0  0
 15 16  1  0  0  0  0
 16 12  2  0  0  0  0
 16 17  1  0  0  0  0
 17 18  1  0  0  0  0
 17 34  1  0  0  0  0
 18 20  1  0  0  0  0
 19 18  2  0  0  0  0
 20 21  1  0  0  0  0
 21 36  1  0  0  0  0
 22 21  1  0  0  0  0
 22 39  1  0  0  0  0
 23 13  1  0  0  0  0
 23 24  1  0  0  0  0
 24 25  2  0  0  0  0
 25 11  1  0  0  0  0
 25 26  1  0  0  0  0
 26 27  3  0  0  0  0
 28 24  1  0  0  0  0
 28 41  1  0  0  0  0
 29 44  1  0  0  0  0
 29  8  1  0  0  0  0
 31  6  1  0  0  0  0
 33 15  1  0  0  0  0
 35 17  1  0  0  0  0
 37 21  1  0  0  0  0
 38 22  1  0  0  0  0
 40 22  1  0  0  0  0
 42 28  1  0  0  0  0
 43 29  1  0  0  0  0
 45 29  1  0  0  0  0
M  END
>  <Pose>
1

>  <Score>
-5.30

$$$$
