
 OpenBabel03222201593D

 36 39  0  0  1  0  0  0  0  0999 V2000
  -20.1700   -2.0290  -33.2780 B   0  0  0  0  0  0  0  0  0  0  0  0
  -21.5470   -1.2670  -34.3900 C   0  0  0  0  0  0  0  0  0  0  0  0
  -21.2770   -0.8600  -35.6700 C   0  0  0  0  0  0  0  0  0  0  0  0
  -22.2790   -0.3180  -36.4470 C   0  0  0  0  0  0  0  0  0  0  0  0
  -23.5260   -0.2100  -35.8930 C   0  0  0  0  0  0  0  0  0  0  0  0
  -23.8020   -0.6300  -34.5760 C   0  0  0  0  0  0  0  0  0  0  0  0
  -22.7950   -1.1660  -33.8180 C   0  0  0  0  0  0  0  0  0  0  0  0
  -24.4480    0.3640  -36.8140 N   0  0  0  0  0  0  0  0  0  0  0  0
  -23.7590    0.6330  -38.0030 C   0  0  0  0  0  0  0  0  0  0  0  0
  -24.2700    1.1490  -39.0430 O   0  0  0  0  0  0  0  0  0  0  0  0
  -22.3250    0.2090  -37.8330 C   0  0  2  0  0  0  0  0  0  0  0  0
  -22.0890   -0.8160  -38.8440 C   0  0  0  0  0  0  0  0  0  0  0  0
  -21.1890   -0.6270  -39.8450 C   0  0  0  0  0  0  0  0  0  0  0  0
  -21.2100   -1.7590  -40.6080 N   0  0  0  0  0  0  0  0  0  0  0  0
  -22.0760   -2.6210  -40.1190 N   0  0  0  0  0  0  0  0  0  0  0  0
  -22.6400   -2.0860  -39.0380 C   0  0  0  0  0  0  0  0  0  0  0  0
  -23.6810   -2.6620  -38.1300 C   0  0  0  0  0  0  0  0  0  0  0  0
  -20.4350    0.5450  -39.9750 O   0  0  0  0  0  0  0  0  0  0  0  0
  -20.6630    1.5210  -39.0090 C   0  0  0  0  0  0  0  0  0  0  0  0
  -21.5140    1.3970  -38.0250 C   0  0  0  0  0  0  0  0  0  0  0  0
  -21.6240    2.5330  -37.0940 C   0  0  0  0  0  0  0  0  0  0  0  0
  -21.7290    3.4240  -36.3460 N   0  0  0  0  0  0  0  0  0  0  0  0
  -19.9070    2.7620  -39.0920 N   0  0  0  0  0  0  0  0  0  0  0  0
  -25.8740    0.6340  -36.5720 C   0  0  0  0  0  0  0  0  0  0  0  0
  -20.2890   -0.9530  -36.0910 H   0  0  0  0  0  0  0  0  0  0  0  0
  -24.7890   -0.5430  -34.1410 H   0  0  0  0  0  0  0  0  0  0  0  0
  -22.9820   -1.5020  -32.7870 H   0  0  0  0  0  0  0  0  0  0  0  0
  -22.3210   -3.5800  -40.4790 H   0  0  0  0  0  0  0  0  0  0  0  0
  -23.9190   -3.6780  -38.5390 H   0  0  0  0  0  0  0  0  0  0  0  0
  -23.2710   -2.8550  -37.1090 H   0  0  0  0  0  0  0  0  0  0  0  0
  -24.6120   -2.0980  -38.1370 H   0  0  0  0  0  0  0  0  0  0  0  0
  -19.7090    3.0860  -40.0600 H   0  0  0  0  0  0  0  0  0  0  0  0
  -19.5910    3.2830  -38.2770 H   0  0  0  0  0  0  0  0  0  0  0  0
  -26.0280    1.7250  -36.6920 H   0  0  0  0  0  0  0  0  0  0  0  0
  -26.4050    0.1410  -37.4190 H   0  0  0  0  0  0  0  0  0  0  0  0
  -26.2010    0.2390  -35.6110 H   0  0  0  0  0  0  0  0  0  0  0  0
  2  7  1  0  0  0  0
  2  1  1  0  0  0  0
  3  2  2  0  0  0  0
  4  5  2  0  0  0  0
  4  3  1  0  0  0  0
  5  6  1  0  0  0  0
  6 26  1  0  0  0  0
  6  7  2  0  0  0  0
  7 27  1  0  0  0  0
  8 24  1  0  0  0  0
  8  5  1  0  0  0  0
  9 11  1  0  0  0  0
  9  8  1  0  0  0  0
 10  9  2  0  0  0  0
 11 12  1  6  0  0  0
 11  4  1  0  0  0  0
 13 12  1  0  0  0  0
 14 15  1  0  0  0  0
 14 13  2  0  0  0  0
 15 16  1  0  0  0  0
 16 12  2  0  0  0  0
 16 17  1  0  0  0  0
 17 30  1  0  0  0  0
 18 13  1  0  0  0  0
 18 19  1  0  0  0  0
 19 20  2  0  0  0  0
 20 11  1  0  0  0  0
 20 21  1  0  0  0  0
 21 22  3  0  0  0  0
 23 19  1  0  0  0  0
 23 33  1  0  0  0  0
 24 36  1  0  0  0  0
 25  3  1  0  0  0  0
 28 15  1  0  0  0  0
 29 17  1  0  0  0  0
 31 17  1  0  0  0  0
 32 23  1  0  0  0  0
 34 24  1  0  0  0  0
 35 24  1  0  0  0  0
M  END
>  <Pose>
1

>  <Score>
-4.48

$$$$
