
 OpenBabel03222201593D

 39 42  0  0  1  0  0  0  0  0999 V2000
  -17.9350    2.5440  -36.2970 B   0  0  0  0  0  0  0  0  0  0  0  0
  -19.6670    2.5370  -35.5080 C   0  0  0  0  0  0  0  0  0  0  0  0
  -20.4080    1.3750  -35.4900 C   0  0  0  0  0  0  0  0  0  0  0  0
  -21.6820    1.3440  -34.9160 C   0  0  0  0  0  0  0  0  0  0  0  0
  -22.1610    2.4960  -34.3790 C   0  0  0  0  0  0  0  0  0  0  0  0
  -21.4020    3.6840  -34.3990 C   0  0  0  0  0  0  0  0  0  0  0  0
  -20.1480    3.7070  -34.9650 C   0  0  0  0  0  0  0  0  0  0  0  0
  -23.4590    2.2540  -33.8530 N   0  0  0  0  0  0  0  0  0  0  0  0
  -23.8140    0.9090  -34.0630 C   0  0  0  0  0  0  0  0  0  0  0  0
  -24.8830    0.3370  -33.7320 O   0  0  0  0  0  0  0  0  0  0  0  0
  -22.6790    0.2420  -34.7660 C   0  0  1  0  0  0  0  0  0  0  0  0
  -23.1010   -0.2730  -36.0730 C   0  0  0  0  0  0  0  0  0  0  0  0
  -22.9260   -1.5740  -36.4170 C   0  0  0  0  0  0  0  0  0  0  0  0
  -22.3330   -2.4660  -35.5180 O   0  0  0  0  0  0  0  0  0  0  0  0
  -21.9190   -2.0320  -34.2750 C   0  0  0  0  0  0  0  0  0  0  0  0
  -22.0740   -0.7920  -33.9210 C   0  0  0  0  0  0  0  0  0  0  0  0
  -21.6040   -0.4190  -32.5790 C   0  0  0  0  0  0  0  0  0  0  0  0
  -21.2470   -0.1330  -31.5360 N   0  0  0  0  0  0  0  0  0  0  0  0
  -21.3170   -3.0050  -33.4050 N   0  0  0  0  0  0  0  0  0  0  0  0
  -23.3440   -2.0190  -37.6740 C   0  0  0  0  0  0  0  0  0  0  0  0
  -23.1780   -3.2190  -37.9780 O   0  0  0  0  0  0  0  0  0  0  0  0
  -23.9260   -1.1300  -38.5470 C   0  0  0  0  0  0  0  0  0  0  0  0
  -24.0770    0.1800  -38.1440 C   0  0  0  0  0  0  0  0  0  0  0  0
  -23.6730    0.5340  -36.9710 O   0  0  0  0  0  0  0  0  0  0  0  0
  -24.7160    1.1770  -39.0870 C   0  0  0  0  0  0  0  0  0  0  0  0
  -26.0190    1.4360  -38.6620 O   0  0  0  0  0  0  0  0  0  0  0  0
  -24.2680    3.2990  -33.1950 C   0  0  0  0  0  0  0  0  0  0  0  0
  -20.0580    0.4380  -35.9080 H   0  0  0  0  0  0  0  0  0  0  0  0
  -21.7940    4.6040  -33.9650 H   0  0  0  0  0  0  0  0  0  0  0  0
  -19.5610    4.6280  -34.9780 H   0  0  0  0  0  0  0  0  0  0  0  0
  -20.4680   -3.4760  -33.7120 H   0  0  0  0  0  0  0  0  0  0  0  0
  -21.7630   -3.1940  -32.5080 H   0  0  0  0  0  0  0  0  0  0  0  0
  -24.2700   -1.4070  -39.5310 H   0  0  0  0  0  0  0  0  0  0  0  0
  -24.1480    2.1070  -39.1270 H   0  0  0  0  0  0  0  0  0  0  0  0
  -24.8210    0.7130  -40.1070 H   0  0  0  0  0  0  0  0  0  0  0  0
  -26.6590    0.9140  -39.2330 H   0  0  0  0  0  0  0  0  0  0  0  0
  -23.6240    4.1480  -32.8980 H   0  0  0  0  0  0  0  0  0  0  0  0
  -25.0260    3.6440  -33.9170 H   0  0  0  0  0  0  0  0  0  0  0  0
  -24.7180    2.8770  -32.2600 H   0  0  0  0  0  0  0  0  0  0  0  0
  1  2  1  0  0  0  0
  2  3  2  0  0  0  0
  2  7  1  0  0  0  0
  3  4  1  0  0  0  0
  4 11  1  0  0  0  0
  4  5  2  0  0  0  0
  5  8  1  0  0  0  0
  6  5  1  0  0  0  0
  6 29  1  0  0  0  0
  7  6  2  0  0  0  0
  8 27  1  0  0  0  0
  9  8  1  0  0  0  0
  9 10  2  0  0  0  0
 11 12  1  6  0  0  0
 11  9  1  0  0  0  0
 11 16  1  0  0  0  0
 13 12  2  0  0  0  0
 13 14  1  0  0  0  0
 14 15  1  0  0  0  0
 15 16  2  0  0  0  0
 15 19  1  0  0  0  0
 16 17  1  0  0  0  0
 17 18  3  0  0  0  0
 19 32  1  0  0  0  0
 20 13  1  0  0  0  0
 21 20  2  0  0  0  0
 22 23  2  0  0  0  0
 22 20  1  0  0  0  0
 23 24  1  0  0  0  0
 24 12  1  0  0  0  0
 25 26  1  0  0  0  0
 25 23  1  0  0  0  0
 27 37  1  0  0  0  0
 27 39  1  0  0  0  0
 28  3  1  0  0  0  0
 30  7  1  0  0  0  0
 31 19  1  0  0  0  0
 33 22  1  0  0  0  0
 34 25  1  0  0  0  0
 35 25  1  0  0  0  0
 36 26  1  0  0  0  0
 38 27  1  0  0  0  0
M  END
>  <Pose>
1

>  <Score>
-5.32

$$$$
