
 OpenBabel03222201593D

 46 49  0  0  0  0  0  0  0  0999 V2000
  -21.4290   -4.3950  -31.3680 B   0  0  0  0  0  0  0  0  0  0  0  0
  -21.3280   -3.1590  -32.8260 C   0  0  0  0  0  0  0  0  0  0  0  0
  -20.2900   -2.2300  -32.8970 C   0  0  0  0  0  0  0  0  0  0  0  0
  -20.1670   -1.3140  -33.9190 C   0  0  0  0  0  0  0  0  0  0  0  0
  -21.1300   -1.3450  -34.9000 C   0  0  0  0  0  0  0  0  0  0  0  0
  -22.1870   -2.2650  -34.8620 C   0  0  0  0  0  0  0  0  0  0  0  0
  -22.2680   -3.1580  -33.8250 C   0  0  0  0  0  0  0  0  0  0  0  0
  -20.8150   -0.3270  -35.8400 N   0  0  0  0  0  0  0  0  0  0  0  0
  -19.6390    0.3580  -35.4510 C   0  0  0  0  0  0  0  0  0  0  0  0
  -19.0580    1.3090  -36.0280 O   0  0  0  0  0  0  0  0  0  0  0  0
  -19.1850   -0.2600  -34.1950 C   0  0  0  0  0  0  0  0  0  0  0  0
  -18.1220    0.0870  -33.5030 C   0  0  0  0  0  0  0  0  0  0  0  0
  -17.7020   -0.5130  -32.3080 N   0  0  0  0  0  0  0  0  0  0  0  0
  -18.5570   -1.0540  -31.3660 N   0  0  0  0  0  0  0  0  0  0  0  0
  -19.5260   -0.2980  -30.6530 C   0  0  0  0  0  0  0  0  0  0  0  0
  -19.8490    0.8020  -31.1290 O   0  0  0  0  0  0  0  0  0  0  0  0
  -20.1530   -0.7630  -29.3950 C   0  0  0  0  0  0  0  0  0  0  0  0
  -19.4220   -0.4010  -28.2720 N   0  0  0  0  0  0  0  0  0  0  0  0
  -19.0640   -1.0790  -27.1830 C   0  0  0  0  0  0  0  0  0  0  0  0
  -18.3840   -0.2250  -26.3250 C   0  0  0  0  0  0  0  0  0  0  0  0
  -18.3440    0.9770  -26.9300 N   0  0  0  0  0  0  0  0  0  0  0  0
  -18.9590    0.8750  -28.0870 C   0  0  0  0  0  0  0  0  0  0  0  0
  -17.8990   -0.6960  -25.1220 C   0  0  0  0  0  0  0  0  0  0  0  0
  -17.2890    0.1020  -24.3650 O   0  0  0  0  0  0  0  0  0  0  0  0
  -18.1090   -1.9720  -24.8360 N   0  0  0  0  0  0  0  0  0  0  0  0
  -18.7670   -2.7920  -25.6750 C   0  0  0  0  0  0  0  0  0  0  0  0
  -18.9430   -3.9940  -25.3650 O   0  0  0  0  0  0  0  0  0  0  0  0
  -19.2660   -2.3760  -26.8730 N   0  0  0  0  0  0  0  0  0  0  0  0
  -19.9320   -3.2840  -27.7630 C   0  0  0  0  0  0  0  0  0  0  0  0
  -17.6140   -2.5260  -23.5640 C   0  0  0  0  0  0  0  0  0  0  0  0
  -19.5440   -2.2310  -32.1190 H   0  0  0  0  0  0  0  0  0  0  0  0
  -22.9210   -2.2590  -35.6480 H   0  0  0  0  0  0  0  0  0  0  0  0
  -23.1020   -3.8720  -33.8110 H   0  0  0  0  0  0  0  0  0  0  0  0
  -21.3640   -0.1040  -36.7030 H   0  0  0  0  0  0  0  0  0  0  0  0
  -17.5180    0.8990  -33.8820 H   0  0  0  0  0  0  0  0  0  0  0  0
  -16.6590   -0.5410  -32.1440 H   0  0  0  0  0  0  0  0  0  0  0  0
  -18.4990   -2.0730  -31.1500 H   0  0  0  0  0  0  0  0  0  0  0  0
  -21.2080   -0.5290  -29.4660 H   0  0  0  0  0  0  0  0  0  0  0  0
  -20.1340   -1.9040  -29.4810 H   0  0  0  0  0  0  0  0  0  0  0  0
  -19.0690    1.6960  -28.7780 H   0  0  0  0  0  0  0  0  0  0  0  0
  -19.9970   -4.2710  -27.1830 H   0  0  0  0  0  0  0  0  0  0  0  0
  -20.9710   -3.1010  -27.9860 H   0  0  0  0  0  0  0  0  0  0  0  0
  -19.2830   -3.6170  -28.6070 H   0  0  0  0  0  0  0  0  0  0  0  0
  -17.9140   -1.8360  -22.7500 H   0  0  0  0  0  0  0  0  0  0  0  0
  -16.5030   -2.5610  -23.5540 H   0  0  0  0  0  0  0  0  0  0  0  0
  -18.0210   -3.5410  -23.3830 H   0  0  0  0  0  0  0  0  0  0  0  0
  2  1  1  0  0  0  0
  3  2  1  0  0  0  0
  3 31  1  0  0  0  0
  4  3  2  0  0  0  0
  5  6  2  0  0  0  0
  5  4  1  0  0  0  0
  6  7  1  0  0  0  0
  7 33  1  0  0  0  0
  7  2  2  0  0  0  0
  8  9  1  0  0  0  0
  8  5  1  0  0  0  0
  9 11  1  0  0  0  0
 10  9  2  0  0  0  0
 11  4  1  0  0  0  0
 11 12  2  0  0  0  0
 12 13  1  0  0  0  0
 13 36  1  0  0  0  0
 13 14  1  0  0  0  0
 14 37  1  0  0  0  0
 14 15  1  0  0  0  0
 15 17  1  0  0  0  0
 16 15  2  0  0  0  0
 17 18  1  0  0  0  0
 18 22  1  0  0  0  0
 18 19  1  0  0  0  0
 19 28  1  0  0  0  0
 19 20  2  0  0  0  0
 20 23  1  0  0  0  0
 21 20  1  0  0  0  0
 22 21  2  0  0  0  0
 23 25  1  0  0  0  0
 23 24  2  0  0  0  0
 25 30  1  0  0  0  0
 26 27  2  0  0  0  0
 26 25  1  0  0  0  0
 28 26  1  0  0  0  0
 29 41  1  0  0  0  0
 29 28  1  0  0  0  0
 30 45  1  0  0  0  0
 30 46  1  0  0  0  0
 30 44  1  0  0  0  0
 32  6  1  0  0  0  0
 34  8  1  0  0  0  0
 35 12  1  0  0  0  0
 38 17  1  0  0  0  0
 39 17  1  0  0  0  0
 40 22  1  0  0  0  0
 42 29  1  0  0  0  0
 43 29  1  0  0  0  0
M  END
>  <Pose>
1

>  <Score>
-8.05

$$$$
