
 OpenBabel03222201593D

 41 44  0  0  1  0  0  0  0  0999 V2000
  -20.0660    0.0920  -28.7900 B   0  0  0  0  0  0  0  0  0  0  0  0
  -19.7220   -0.2400  -30.6360 C   0  0  0  0  0  0  0  0  0  0  0  0
  -20.6160    0.2760  -31.5430 C   0  0  0  0  0  0  0  0  0  0  0  0
  -20.4070    0.0600  -32.9090 C   0  0  0  0  0  0  0  0  0  0  0  0
  -19.3250   -0.6560  -33.3090 C   0  0  0  0  0  0  0  0  0  0  0  0
  -18.3970   -1.1930  -32.3970 C   0  0  0  0  0  0  0  0  0  0  0  0
  -18.6280   -0.9640  -31.0610 C   0  0  0  0  0  0  0  0  0  0  0  0
  -19.2930   -0.7690  -34.7200 N   0  0  0  0  0  0  0  0  0  0  0  0
  -20.4070   -0.0940  -35.2220 C   0  0  0  0  0  0  0  0  0  0  0  0
  -20.7480    0.0330  -36.4620 O   0  0  0  0  0  0  0  0  0  0  0  0
  -21.1690    0.4810  -34.0740 C   0  0  2  0  0  0  0  0  0  0  0  0
  -21.2550    1.8970  -34.3220 C   0  0  0  0  0  0  0  0  0  0  0  0
  -22.4290    2.4900  -34.5970 C   0  0  0  0  0  0  0  0  0  0  0  0
  -22.1680    3.8270  -34.7790 N   0  0  0  0  0  0  0  0  0  0  0  0
  -20.8780    4.0260  -34.6180 N   0  0  0  0  0  0  0  0  0  0  0  0
  -20.2490    2.8850  -34.3340 C   0  0  0  0  0  0  0  0  0  0  0  0
  -18.7960    2.6610  -34.0780 C   0  0  0  0  0  0  0  0  0  0  0  0
  -23.6500    1.7940  -34.6660 O   0  0  0  0  0  0  0  0  0  0  0  0
  -23.5890    0.4270  -34.4300 C   0  0  0  0  0  0  0  0  0  0  0  0
  -22.4830   -0.1990  -34.1600 C   0  0  0  0  0  0  0  0  0  0  0  0
  -22.5270   -1.6710  -33.9220 C   0  0  0  0  0  0  0  0  0  0  0  0
  -23.2580   -2.3580  -34.6580 O   0  0  0  0  0  0  0  0  0  0  0  0
  -21.8050   -2.2940  -32.9400 O   0  0  0  0  0  0  0  0  0  0  0  0
  -21.3270   -3.6160  -33.0100 C   0  0  0  0  0  0  0  0  0  0  0  0
  -21.8400   -4.3500  -31.7660 C   0  0  0  0  0  0  0  0  0  0  0  0
  -24.8010   -0.3580  -34.4830 N   0  0  0  0  0  0  0  0  0  0  0  0
  -21.4900    0.8540  -31.2210 H   0  0  0  0  0  0  0  0  0  0  0  0
  -17.5440   -1.7570  -32.7200 H   0  0  0  0  0  0  0  0  0  0  0  0
  -17.9460   -1.3540  -30.3170 H   0  0  0  0  0  0  0  0  0  0  0  0
  -18.5740   -1.2660  -35.3190 H   0  0  0  0  0  0  0  0  0  0  0  0
  -22.8780    4.5590  -35.0090 H   0  0  0  0  0  0  0  0  0  0  0  0
  -18.2660    3.6330  -34.0240 H   0  0  0  0  0  0  0  0  0  0  0  0
  -18.3960    2.1260  -34.9630 H   0  0  0  0  0  0  0  0  0  0  0  0
  -18.6060    2.1460  -33.1220 H   0  0  0  0  0  0  0  0  0  0  0  0
  -20.2370   -3.6750  -33.0880 H   0  0  0  0  0  0  0  0  0  0  0  0
  -21.7970   -4.1210  -33.8820 H   0  0  0  0  0  0  0  0  0  0  0  0
  -22.8330   -3.9610  -31.4660 H   0  0  0  0  0  0  0  0  0  0  0  0
  -21.9390   -5.4360  -31.9490 H   0  0  0  0  0  0  0  0  0  0  0  0
  -21.0890   -4.2290  -30.9500 H   0  0  0  0  0  0  0  0  0  0  0  0
  -25.6960    0.1350  -34.4340 H   0  0  0  0  0  0  0  0  0  0  0  0
  -24.7360   -1.3730  -34.5680 H   0  0  0  0  0  0  0  0  0  0  0  0
  2  1  1  0  0  0  0
  3 27  1  0  0  0  0
  3  2  2  0  0  0  0
  4  3  1  0  0  0  0
  5  4  2  0  0  0  0
  5  6  1  0  0  0  0
  6  7  2  0  0  0  0
  7  2  1  0  0  0  0
  7 29  1  0  0  0  0
  8  5  1  0  0  0  0
  9  8  1  0  0  0  0
 10  9  2  0  0  0  0
 11  9  1  6  0  0  0
 11  4  1  0  0  0  0
 12 11  1  0  0  0  0
 13 12  2  0  0  0  0
 14 15  1  0  0  0  0
 14 13  1  0  0  0  0
 15 16  2  0  0  0  0
 16 12  1  0  0  0  0
 16 17  1  0  0  0  0
 17 32  1  0  0  0  0
 17 34  1  0  0  0  0
 18 13  1  0  0  0  0
 18 19  1  0  0  0  0
 19 20  2  0  0  0  0
 20 11  1  0  0  0  0
 20 21  1  0  0  0  0
 21 23  1  0  0  0  0
 22 21  2  0  0  0  0
 24 23  1  0  0  0  0
 24 25  1  0  0  0  0
 25 37  1  0  0  0  0
 25 39  1  0  0  0  0
 26 40  1  0  0  0  0
 26 19  1  0  0  0  0
 28  6  1  0  0  0  0
 30  8  1  0  0  0  0
 31 14  1  0  0  0  0
 33 17  1  0  0  0  0
 35 24  1  0  0  0  0
 36 24  1  0  0  0  0
 38 25  1  0  0  0  0
 41 26  1  0  0  0  0
M  END
>  <Pose>
1

>  <Score>
-7.00

$$$$
