
 OpenBabel03222201593D

 38 41  0  0  1  0  0  0  0  0999 V2000
  -20.4430   -1.5710  -33.8550 B   0  0  0  0  0  0  0  0  0  0  0  0
  -21.9890   -0.7610  -34.6050 C   0  0  0  0  0  0  0  0  0  0  0  0
  -22.1820   -0.6670  -35.9870 C   0  0  0  0  0  0  0  0  0  0  0  0
  -23.3000   -0.0820  -36.5190 C   0  0  0  0  0  0  0  0  0  0  0  0
  -24.2510    0.4260  -35.6840 C   0  0  0  0  0  0  0  0  0  0  0  0
  -24.1030    0.3570  -34.2920 C   0  0  0  0  0  0  0  0  0  0  0  0
  -22.9710   -0.2370  -33.7860 C   0  0  0  0  0  0  0  0  0  0  0  0
  -25.3230    0.9870  -36.4210 N   0  0  0  0  0  0  0  0  0  0  0  0
  -25.0270    0.8220  -37.7860 C   0  0  0  0  0  0  0  0  0  0  0  0
  -25.7170    1.1800  -38.7770 O   0  0  0  0  0  0  0  0  0  0  0  0
  -23.7240    0.1340  -37.9140 C   0  0  1  0  0  0  0  0  0  0  0  0
  -22.7570    1.0250  -38.6330 C   0  0  0  0  0  0  0  0  0  0  0  0
  -22.1030    0.7130  -39.7210 C   0  0  0  0  0  0  0  0  0  0  0  0
  -22.3110   -0.5690  -40.2820 N   0  0  0  0  0  0  0  0  0  0  0  0
  -23.2090   -1.4820  -39.6710 C   0  0  0  0  0  0  0  0  0  0  0  0
  -23.8660   -1.1720  -38.5810 C   0  0  0  0  0  0  0  0  0  0  0  0
  -24.7740   -2.1730  -38.0120 C   0  0  0  0  0  0  0  0  0  0  0  0
  -25.4800   -2.9770  -37.5730 N   0  0  0  0  0  0  0  0  0  0  0  0
  -23.4060   -2.7940  -40.2660 N   0  0  0  0  0  0  0  0  0  0  0  0
  -21.2550    1.8670  -40.1080 C   0  0  0  0  0  0  0  0  0  0  0  0
  -21.4700    2.8750  -39.1550 O   0  0  0  0  0  0  0  0  0  0  0  0
  -22.3850    2.3950  -38.2380 C   0  0  0  0  0  0  0  0  0  0  0  0
  -22.8200    3.0430  -37.2240 O   0  0  0  0  0  0  0  0  0  0  0  0
  -21.7040    2.4450  -41.4520 C   0  0  0  0  0  0  0  0  0  0  0  0
  -19.7880    1.4680  -40.1790 C   0  0  0  0  0  0  0  0  0  0  0  0
  -21.3970   -1.0850  -36.6050 H   0  0  0  0  0  0  0  0  0  0  0  0
  -24.8290    0.7450  -33.6030 H   0  0  0  0  0  0  0  0  0  0  0  0
  -22.8540   -0.2920  -32.7040 H   0  0  0  0  0  0  0  0  0  0  0  0
  -26.1890    1.4460  -35.9970 H   0  0  0  0  0  0  0  0  0  0  0  0
  -21.8120   -0.8750  -41.1570 H   0  0  0  0  0  0  0  0  0  0  0  0
  -22.6620   -3.3110  -40.7610 H   0  0  0  0  0  0  0  0  0  0  0  0
  -24.3420   -3.2220  -40.1820 H   0  0  0  0  0  0  0  0  0  0  0  0
  -21.3320    3.4910  -41.4660 H   0  0  0  0  0  0  0  0  0  0  0  0
  -21.2380    1.9230  -42.2930 H   0  0  0  0  0  0  0  0  0  0  0  0
  -22.7980    2.4840  -41.4860 H   0  0  0  0  0  0  0  0  0  0  0  0
  -19.4120    1.5170  -41.2280 H   0  0  0  0  0  0  0  0  0  0  0  0
  -19.2260    2.2020  -39.5410 H   0  0  0  0  0  0  0  0  0  0  0  0
  -19.6500    0.4690  -39.7390 H   0  0  0  0  0  0  0  0  0  0  0  0
  2  1  1  0  0  0  0
  2  7  1  0  0  0  0
  3  2  2  0  0  0  0
  4  3  1  0  0  0  0
  4  5  2  0  0  0  0
  5  6  1  0  0  0  0
  6  7  2  0  0  0  0
  6 27  1  0  0  0  0
  7 28  1  0  0  0  0
  8 29  1  0  0  0  0
  8  5  1  0  0  0  0
  9  8  1  0  0  0  0
 10  9  2  0  0  0  0
 11 12  1  6  0  0  0
 11  9  1  0  0  0  0
 11  4  1  0  0  0  0
 12 22  1  0  0  0  0
 13 12  2  0  0  0  0
 14 13  1  0  0  0  0
 14 15  1  0  0  0  0
 15 16  2  0  0  0  0
 16 17  1  0  0  0  0
 16 11  1  0  0  0  0
 17 18  3  0  0  0  0
 19 32  1  0  0  0  0
 19 15  1  0  0  0  0
 20 13  1  0  0  0  0
 20 21  1  0  0  0  0
 21 22  1  0  0  0  0
 22 23  2  0  0  0  0
 24 20  1  0  0  0  0
 25 20  1  0  0  0  0
 25 38  1  0  0  0  0
 25 37  1  0  0  0  0
 26  3  1  0  0  0  0
 30 14  1  0  0  0  0
 31 19  1  0  0  0  0
 33 24  1  0  0  0  0
 34 24  1  0  0  0  0
 35 24  1  0  0  0  0
 36 25  1  0  0  0  0
M  END
>  <Pose>
1

>  <Score>
-5.70

$$$$
