
 OpenBabel03222201593D

 49 52  0  0  1  0  0  0  0  0999 V2000
  -18.6960   -0.3520  -28.3070 B   0  0  0  0  0  0  0  0  0  0  0  0
  -19.5850   -1.5620  -29.5030 C   0  0  0  0  0  0  0  0  0  0  0  0
  -20.0160   -1.1620  -30.7550 C   0  0  0  0  0  0  0  0  0  0  0  0
  -20.6560   -2.0240  -31.6220 C   0  0  0  0  0  0  0  0  0  0  0  0
  -20.8460   -3.3150  -31.1740 C   0  0  0  0  0  0  0  0  0  0  0  0
  -20.4140   -3.7210  -29.9150 C   0  0  0  0  0  0  0  0  0  0  0  0
  -19.7840   -2.8510  -29.0790 C   0  0  0  0  0  0  0  0  0  0  0  0
  -21.5270   -4.0620  -32.1940 N   0  0  0  0  0  0  0  0  0  0  0  0
  -21.7680   -3.2160  -33.3050 C   0  0  0  0  0  0  0  0  0  0  0  0
  -22.3550   -3.5780  -34.3500 O   0  0  0  0  0  0  0  0  0  0  0  0
  -21.2110   -1.8840  -32.9880 C   0  0  1  0  0  0  0  0  0  0  0  0
  -22.2230   -0.8660  -33.0710 N   0  0  0  0  0  0  0  0  0  0  0  0
  -22.3170   -0.5840  -34.4880 C   0  0  2  0  0  0  0  0  0  0  0  0
  -20.8820   -0.5570  -34.9400 C   0  0  2  0  0  0  0  0  0  0  0  0
  -20.1920   -1.5260  -34.0100 C   0  0  1  0  0  0  0  0  0  0  0  0
  -19.0110   -0.8090  -33.5080 C   0  0  0  0  0  0  0  0  0  0  0  0
  -18.0880   -1.2830  -32.7990 O   0  0  0  0  0  0  0  0  0  0  0  0
  -19.0510    0.5670  -33.9510 N   0  0  0  0  0  0  0  0  0  0  0  0
  -20.2290    0.7510  -34.7200 C   0  0  0  0  0  0  0  0  0  0  0  0
  -20.6310    1.8650  -35.1340 O   0  0  0  0  0  0  0  0  0  0  0  0
  -18.0740    1.5900  -33.6740 C   0  0  0  0  0  0  0  0  0  0  0  0
  -18.4470    2.9120  -34.3020 C   0  0  0  0  0  0  0  0  0  0  0  0
  -17.9520    1.7590  -32.1570 C   0  0  0  0  0  0  0  0  0  0  0  0
  -16.7180    1.2030  -34.2200 C   0  0  0  0  0  0  0  0  0  0  0  0
  -23.0490    0.7110  -34.7180 C   0  0  0  0  0  0  0  0  0  0  0  0
  -24.2170    0.8230  -33.8310 C   0  0  0  0  0  0  0  0  0  0  0  0
  -25.2140    0.0800  -34.0450 O   0  0  0  0  0  0  0  0  0  0  0  0
  -24.3140    1.7160  -32.7330 N   0  0  0  0  0  0  0  0  0  0  0  0
  -19.8270   -0.1370  -31.0170 H   0  0  0  0  0  0  0  0  0  0  0  0
  -20.5670   -4.7380  -29.5720 H   0  0  0  0  0  0  0  0  0  0  0  0
  -19.4570   -3.2020  -28.0950 H   0  0  0  0  0  0  0  0  0  0  0  0
  -21.7830   -5.0670  -32.0870 H   0  0  0  0  0  0  0  0  0  0  0  0
  -21.8850   -0.0170  -32.5900 H   0  0  0  0  0  0  0  0  0  0  0  0
  -22.8910   -1.3730  -35.0330 H   0  0  0  0  0  0  0  0  0  0  0  0
  -20.7320   -0.8940  -35.9770 H   0  0  0  0  0  0  0  0  0  0  0  0
  -19.8820   -2.4490  -34.5480 H   0  0  0  0  0  0  0  0  0  0  0  0
  -18.5110    2.7670  -35.3990 H   0  0  0  0  0  0  0  0  0  0  0  0
  -17.6260    3.6560  -34.1540 H   0  0  0  0  0  0  0  0  0  0  0  0
  -19.3690    3.3390  -33.8520 H   0  0  0  0  0  0  0  0  0  0  0  0
  -18.9770    1.9700  -31.7910 H   0  0  0  0  0  0  0  0  0  0  0  0
  -17.2720    2.5800  -31.9050 H   0  0  0  0  0  0  0  0  0  0  0  0
  -17.6200    0.7660  -31.7700 H   0  0  0  0  0  0  0  0  0  0  0  0
  -16.1620    2.1310  -34.4560 H   0  0  0  0  0  0  0  0  0  0  0  0
  -16.1140    0.6160  -33.5120 H   0  0  0  0  0  0  0  0  0  0  0  0
  -16.8780    0.6000  -35.1310 H   0  0  0  0  0  0  0  0  0  0  0  0
  -22.3310    1.5170  -34.3820 H   0  0  0  0  0  0  0  0  0  0  0  0
  -23.2490    0.9340  -35.7730 H   0  0  0  0  0  0  0  0  0  0  0  0
  -23.8870    1.5700  -31.8070 H   0  0  0  0  0  0  0  0  0  0  0  0
  -24.8700    2.5980  -32.8850 H   0  0  0  0  0  0  0  0  0  0  0  0
  2  7  1  0  0  0  0
  2  1  1  0  0  0  0
  3  2  2  0  0  0  0
  4  5  2  0  0  0  0
  4  3  1  0  0  0  0
  5  6  1  0  0  0  0
  6 30  1  0  0  0  0
  6  7  2  0  0  0  0
  7 31  1  0  0  0  0
  8 32  1  0  0  0  0
  8  5  1  0  0  0  0
  9  8  1  0  0  0  0
 10  9  2  0  0  0  0
 11  9  1  6  0  0  0
 11  4  1  0  0  0  0
 12 11  1  0  0  0  0
 12 33  1  0  0  0  0
 13 34  1  6  0  0  0
 13 12  1  0  0  0  0
 14 35  1  6  0  0  0
 14 19  1  0  0  0  0
 14 13  1  0  0  0  0
 14 15  1  0  0  0  0
 15 36  1  6  0  0  0
 15 16  1  0  0  0  0
 15 11  1  0  0  0  0
 16 17  2  0  0  0  0
 18 21  1  0  0  0  0
 18 16  1  0  0  0  0
 19 18  1  0  0  0  0
 20 19  2  0  0  0  0
 21 23  1  0  0  0  0
 22 38  1  0  0  0  0
 22 39  1  0  0  0  0
 22 21  1  0  0  0  0
 23 41  1  0  0  0  0
 23 40  1  0  0  0  0
 23 42  1  0  0  0  0
 24 21  1  0  0  0  0
 24 44  1  0  0  0  0
 25 13  1  0  0  0  0
 25 46  1  0  0  0  0
 25 26  1  0  0  0  0
 26 28  1  0  0  0  0
 27 26  2  0  0  0  0
 28 48  1  0  0  0  0
 29  3  1  0  0  0  0
 37 22  1  0  0  0  0
 43 24  1  0  0  0  0
 45 24  1  0  0  0  0
 47 25  1  0  0  0  0
 49 28  1  0  0  0  0
M  END
>  <Pose>
1

>  <Score>
-5.78

$$$$
