
 OpenBabel03222201593D

 49 52  0  0  1  0  0  0  0  0999 V2000
  -23.2850    1.2180  -34.1090 B   0  0  0  0  0  0  0  0  0  0  0  0
  -21.4810    0.7630  -33.6880 C   0  0  0  0  0  0  0  0  0  0  0  0
  -21.1940   -0.0710  -32.6380 C   0  0  0  0  0  0  0  0  0  0  0  0
  -19.8670   -0.4130  -32.3180 C   0  0  0  0  0  0  0  0  0  0  0  0
  -18.8170    0.0760  -33.0430 C   0  0  0  0  0  0  0  0  0  0  0  0
  -19.1100    0.9290  -34.1170 C   0  0  0  0  0  0  0  0  0  0  0  0
  -20.4140    1.2500  -34.4120 C   0  0  0  0  0  0  0  0  0  0  0  0
  -17.5810   -0.4060  -32.5350 N   0  0  0  0  0  0  0  0  0  0  0  0
  -17.8760   -1.2400  -31.4320 C   0  0  0  0  0  0  0  0  0  0  0  0
  -16.9620   -1.8260  -30.7620 O   0  0  0  0  0  0  0  0  0  0  0  0
  -19.3170   -1.2780  -31.2520 C   0  0  2  0  0  0  0  0  0  0  0  0
  -19.8720   -2.6160  -31.2970 N   0  0  0  0  0  0  0  0  0  0  0  0
  -19.8340   -3.1040  -29.9300 C   0  0  1  0  0  0  0  0  0  0  0  0
  -20.2630   -1.8920  -29.1540 C   0  0  2  0  0  0  0  0  0  0  0  0
  -19.6650   -0.7360  -29.8810 C   0  0  1  0  0  0  0  0  0  0  0  0
  -18.4820   -0.3410  -29.1010 C   0  0  0  0  0  0  0  0  0  0  0  0
  -17.5040    0.3960  -29.4530 O   0  0  0  0  0  0  0  0  0  0  0  0
  -18.5530   -0.9200  -27.8040 N   0  0  0  0  0  0  0  0  0  0  0  0
  -19.6400   -1.8240  -27.8150 C   0  0  0  0  0  0  0  0  0  0  0  0
  -20.0590   -2.5060  -26.8300 O   0  0  0  0  0  0  0  0  0  0  0  0
  -17.6820   -0.6420  -26.6800 C   0  0  0  0  0  0  0  0  0  0  0  0
  -18.0760    0.5980  -25.9450 C   0  0  0  0  0  0  0  0  0  0  0  0
  -17.5010    1.7810  -26.7330 C   0  0  0  0  0  0  0  0  0  0  0  0
  -18.6100    2.6050  -27.3270 C   0  0  0  0  0  0  0  0  0  0  0  0
  -20.7730   -4.2610  -29.7930 C   0  0  2  0  0  0  0  0  0  0  0  0
  -20.0880   -5.2920  -29.1360 O   0  0  0  0  0  0  0  0  0  0  0  0
  -21.1600   -4.7810  -31.1550 C   0  0  0  0  0  0  0  0  0  0  0  0
  -21.9920   -0.4970  -32.0160 H   0  0  0  0  0  0  0  0  0  0  0  0
  -18.2730    1.3210  -34.6990 H   0  0  0  0  0  0  0  0  0  0  0  0
  -20.6530    1.9100  -35.2420 H   0  0  0  0  0  0  0  0  0  0  0  0
  -16.6460   -0.1540  -32.9450 H   0  0  0  0  0  0  0  0  0  0  0  0
  -19.3760   -3.2360  -31.9620 H   0  0  0  0  0  0  0  0  0  0  0  0
  -18.8150   -3.3680  -29.6050 H   0  0  0  0  0  0  0  0  0  0  0  0
  -21.3660   -1.7900  -29.0950 H   0  0  0  0  0  0  0  0  0  0  0  0
  -20.4070    0.0990  -29.9470 H   0  0  0  0  0  0  0  0  0  0  0  0
  -17.6510   -1.4760  -25.9540 H   0  0  0  0  0  0  0  0  0  0  0  0
  -16.6440   -0.5170  -27.0650 H   0  0  0  0  0  0  0  0  0  0  0  0
  -17.5600    0.6370  -24.9520 H   0  0  0  0  0  0  0  0  0  0  0  0
  -19.1410    0.7170  -25.7600 H   0  0  0  0  0  0  0  0  0  0  0  0
  -16.9670    2.4040  -25.9680 H   0  0  0  0  0  0  0  0  0  0  0  0
  -16.7580    1.4450  -27.4710 H   0  0  0  0  0  0  0  0  0  0  0  0
  -19.4920    2.0140  -27.6120 H   0  0  0  0  0  0  0  0  0  0  0  0
  -18.9670    3.3770  -26.5920 H   0  0  0  0  0  0  0  0  0  0  0  0
  -18.2020    3.1790  -28.1820 H   0  0  0  0  0  0  0  0  0  0  0  0
  -21.6830   -3.9580  -29.2350 H   0  0  0  0  0  0  0  0  0  0  0  0
  -19.2410   -5.5070  -29.6040 H   0  0  0  0  0  0  0  0  0  0  0  0
  -21.9940   -4.1740  -31.5590 H   0  0  0  0  0  0  0  0  0  0  0  0
  -20.2670   -4.7530  -31.7940 H   0  0  0  0  0  0  0  0  0  0  0  0
  -21.5600   -5.8170  -31.0060 H   0  0  0  0  0  0  0  0  0  0  0  0
  1  2  1  0  0  0  0
  2  3  1  0  0  0  0
  3  4  2  0  0  0  0
  3 28  1  0  0  0  0
  5  8  1  0  0  0  0
  5  4  1  0  0  0  0
  6  5  2  0  0  0  0
  7  6  1  0  0  0  0
  7  2  2  0  0  0  0
  8  9  1  0  0  0  0
  9 11  1  0  0  0  0
  9 10  2  0  0  0  0
 11  4  1  6  0  0  0
 11 15  1  0  0  0  0
 12 11  1  0  0  0  0
 12 13  1  0  0  0  0
 13 25  1  0  0  0  0
 13 33  1  1  0  0  0
 13 14  1  0  0  0  0
 14 34  1  1  0  0  0
 14 19  1  0  0  0  0
 15 35  1  6  0  0  0
 15 14  1  0  0  0  0
 15 16  1  0  0  0  0
 16 18  1  0  0  0  0
 17 16  2  0  0  0  0
 18 21  1  0  0  0  0
 19 18  1  0  0  0  0
 19 20  2  0  0  0  0
 21 36  1  0  0  0  0
 21 22  1  0  0  0  0
 22 39  1  0  0  0  0
 22 38  1  0  0  0  0
 23 40  1  0  0  0  0
 23 22  1  0  0  0  0
 24 23  1  0  0  0  0
 24 43  1  0  0  0  0
 25 45  1  1  0  0  0
 25 26  1  0  0  0  0
 27 49  1  0  0  0  0
 27 25  1  0  0  0  0
 29  6  1  0  0  0  0
 30  7  1  0  0  0  0
 31  8  1  0  0  0  0
 32 12  1  0  0  0  0
 37 21  1  0  0  0  0
 41 23  1  0  0  0  0
 42 24  1  0  0  0  0
 44 24  1  0  0  0  0
 46 26  1  0  0  0  0
 47 27  1  0  0  0  0
 48 27  1  0  0  0  0
M  END
>  <Pose>
1

>  <Score>
-6.18

$$$$
