
 OpenBabel03222201593D

 45 48  0  0  1  0  0  0  0  0999 V2000
  -19.6870    1.9780  -38.7800 B   0  0  0  0  0  0  0  0  0  0  0  0
  -19.5220    1.5110  -36.9350 C   0  0  0  0  0  0  0  0  0  0  0  0
  -20.3560    0.6020  -36.3330 C   0  0  0  0  0  0  0  0  0  0  0  0
  -20.2650    0.2340  -34.9790 C   0  0  0  0  0  0  0  0  0  0  0  0
  -19.2820    0.8300  -34.2470 C   0  0  0  0  0  0  0  0  0  0  0  0
  -18.4180    1.7650  -34.8480 C   0  0  0  0  0  0  0  0  0  0  0  0
  -18.5330    2.1040  -36.1760 C   0  0  0  0  0  0  0  0  0  0  0  0
  -19.2980    0.3610  -32.9060 N   0  0  0  0  0  0  0  0  0  0  0  0
  -20.3450   -0.5750  -32.8030 C   0  0  0  0  0  0  0  0  0  0  0  0
  -20.6640   -1.2270  -31.7410 O   0  0  0  0  0  0  0  0  0  0  0  0
  -21.0010   -0.6690  -34.1190 C   0  0  2  0  0  0  0  0  0  0  0  0
  -20.7630   -2.0660  -34.5230 N   0  0  0  0  0  0  0  0  0  0  0  0
  -21.9550   -2.8180  -34.2820 C   0  0  2  0  0  0  0  0  0  0  0  0
  -23.0510   -1.8260  -34.4110 C   0  0  1  0  0  0  0  0  0  0  0  0
  -22.4720   -0.4830  -34.0550 C   0  0  2  0  0  0  0  0  0  0  0  0
  -23.0930    0.4190  -34.9980 C   0  0  0  0  0  0  0  0  0  0  0  0
  -23.1030    1.6810  -34.8990 O   0  0  0  0  0  0  0  0  0  0  0  0
  -23.6870   -0.3380  -36.0440 N   0  0  0  0  0  0  0  0  0  0  0  0
  -23.4110   -1.7190  -35.8600 C   0  0  0  0  0  0  0  0  0  0  0  0
  -23.4750   -2.5880  -36.7520 O   0  0  0  0  0  0  0  0  0  0  0  0
  -24.4550    0.2720  -37.1210 C   0  0  0  0  0  0  0  0  0  0  0  0
  -23.5720    0.8260  -38.1970 C   0  0  0  0  0  0  0  0  0  0  0  0
  -23.3220   -0.1460  -39.3180 C   0  0  0  0  0  0  0  0  0  0  0  0
  -22.0240   -0.8850  -38.9700 C   0  0  0  0  0  0  0  0  0  0  0  0
  -21.9780   -3.5640  -32.9690 C   0  0  0  0  0  0  0  0  0  0  0  0
  -21.1130    0.1550  -36.9460 H   0  0  0  0  0  0  0  0  0  0  0  0
  -17.6420    2.2200  -34.2210 H   0  0  0  0  0  0  0  0  0  0  0  0
  -17.8760    2.8230  -36.6570 H   0  0  0  0  0  0  0  0  0  0  0  0
  -18.6500    0.6490  -32.1150 H   0  0  0  0  0  0  0  0  0  0  0  0
  -20.4620   -2.1180  -35.5210 H   0  0  0  0  0  0  0  0  0  0  0  0
  -22.0600   -3.5660  -35.1340 H   0  0  0  0  0  0  0  0  0  0  0  0
  -23.9480   -2.0710  -33.8000 H   0  0  0  0  0  0  0  0  0  0  0  0
  -22.7140   -0.2290  -32.9780 H   0  0  0  0  0  0  0  0  0  0  0  0
  -25.1210   -0.4770  -37.5830 H   0  0  0  0  0  0  0  0  0  0  0  0
  -25.0900    1.0830  -36.6890 H   0  0  0  0  0  0  0  0  0  0  0  0
  -22.5980    1.0690  -37.7440 H   0  0  0  0  0  0  0  0  0  0  0  0
  -24.0720    1.7210  -38.6250 H   0  0  0  0  0  0  0  0  0  0  0  0
  -23.2100    0.3760  -40.2960 H   0  0  0  0  0  0  0  0  0  0  0  0
  -24.1380   -0.8650  -39.4020 H   0  0  0  0  0  0  0  0  0  0  0  0
  -21.5500   -1.2950  -39.8820 H   0  0  0  0  0  0  0  0  0  0  0  0
  -21.3630   -0.2170  -38.3930 H   0  0  0  0  0  0  0  0  0  0  0  0
  -22.3330   -1.7020  -38.2560 H   0  0  0  0  0  0  0  0  0  0  0  0
  -22.4640   -4.5740  -33.1280 H   0  0  0  0  0  0  0  0  0  0  0  0
  -20.9550   -3.7830  -32.6690 H   0  0  0  0  0  0  0  0  0  0  0  0
  -22.6190   -3.0780  -32.2150 H   0  0  0  0  0  0  0  0  0  0  0  0
  1  2  1  0  0  0  0
  2  3  2  0  0  0  0
  2  7  1  0  0  0  0
  3  4  1  0  0  0  0
  4  5  2  0  0  0  0
  5  8  1  0  0  0  0
  6  5  1  0  0  0  0
  6 27  1  0  0  0  0
  7  6  2  0  0  0  0
  8  9  1  0  0  0  0
  8 29  1  0  0  0  0
  9 10  2  0  0  0  0
 11  4  1  6  0  0  0
 11 15  1  0  0  0  0
 11  9  1  0  0  0  0
 12 13  1  0  0  0  0
 12 11  1  0  0  0  0
 13 31  1  6  0  0  0
 13 25  1  0  0  0  0
 14 13  1  0  0  0  0
 14 15  1  0  0  0  0
 14 32  1  1  0  0  0
 15 33  1  1  0  0  0
 16 17  2  0  0  0  0
 16 15  1  0  0  0  0
 18 19  1  0  0  0  0
 18 16  1  0  0  0  0
 19 14  1  0  0  0  0
 20 19  2  0  0  0  0
 21 35  1  0  0  0  0
 21 18  1  0  0  0  0
 22 36  1  0  0  0  0
 22 21  1  0  0  0  0
 23 24  1  0  0  0  0
 23 22  1  0  0  0  0
 24 41  1  0  0  0  0
 24 42  1  0  0  0  0
 25 44  1  0  0  0  0
 25 45  1  0  0  0  0
 26  3  1  0  0  0  0
 28  7  1  0  0  0  0
 30 12  1  0  0  0  0
 34 21  1  0  0  0  0
 37 22  1  0  0  0  0
 38 23  1  0  0  0  0
 39 23  1  0  0  0  0
 40 24  1  0  0  0  0
 43 25  1  0  0  0  0
M  END
>  <Pose>
1

>  <Score>
-5.10

$$$$
