
 OpenBabel03222201593D

 39 42  0  0  1  0  0  0  0  0999 V2000
  -17.8950   -0.2620  -27.7080 B   0  0  0  0  0  0  0  0  0  0  0  0
  -18.8700   -1.2510  -29.0120 C   0  0  0  0  0  0  0  0  0  0  0  0
  -18.7020   -0.9300  -30.3280 C   0  0  0  0  0  0  0  0  0  0  0  0
  -19.3980   -1.6320  -31.2970 C   0  0  0  0  0  0  0  0  0  0  0  0
  -20.2630   -2.6570  -30.9350 C   0  0  0  0  0  0  0  0  0  0  0  0
  -20.4440   -2.9940  -29.6090 C   0  0  0  0  0  0  0  0  0  0  0  0
  -19.7310   -2.2690  -28.6800 C   0  0  0  0  0  0  0  0  0  0  0  0
  -21.0230   -3.4410  -31.8330 N   0  0  0  0  0  0  0  0  0  0  0  0
  -21.4670   -4.6540  -31.4850 N   0  0  0  0  0  0  0  0  0  0  0  0
  -22.1230   -5.1060  -32.5200 N   0  0  0  0  0  0  0  0  0  0  0  0
  -22.1070   -4.2190  -33.5010 N   0  0  0  0  0  0  0  0  0  0  0  0
  -21.3970   -3.1380  -33.0640 C   0  0  0  0  0  0  0  0  0  0  0  0
  -21.1790   -1.9320  -33.9350 C   0  0  2  0  0  0  0  0  0  0  0  0
  -19.8050   -1.4490  -33.8160 N   0  0  0  0  0  0  0  0  0  0  0  0
  -19.0740   -1.1300  -32.6380 C   0  0  0  0  0  0  0  0  0  0  0  0
  -18.0760   -0.3640  -32.7480 O   0  0  0  0  0  0  0  0  0  0  0  0
  -22.0550   -0.8470  -33.3700 C   0  0  0  0  0  0  0  0  0  0  0  0
  -22.2980    0.1990  -34.4090 C   0  0  0  0  0  0  0  0  0  0  0  0
  -22.9820   -0.3990  -35.4350 O   0  0  0  0  0  0  0  0  0  0  0  0
  -22.2910   -1.3550  -36.1290 C   0  0  0  0  0  0  0  0  0  0  0  0
  -21.4670   -2.2860  -35.3480 C   0  0  0  0  0  0  0  0  0  0  0  0
  -23.2190    1.2810  -33.8330 C   0  0  0  0  0  0  0  0  0  0  0  0
  -21.0450    0.9060  -34.8530 C   0  0  0  0  0  0  0  0  0  0  0  0
  -18.0430   -0.1420  -30.6730 H   0  0  0  0  0  0  0  0  0  0  0  0
  -21.1250   -3.7970  -29.3660 H   0  0  0  0  0  0  0  0  0  0  0  0
  -19.8630   -2.5210  -27.6420 H   0  0  0  0  0  0  0  0  0  0  0  0
  -19.2620   -1.3110  -34.7210 H   0  0  0  0  0  0  0  0  0  0  0  0
  -21.5180   -0.3840  -32.5110 H   0  0  0  0  0  0  0  0  0  0  0  0
  -23.0420   -1.2440  -33.0550 H   0  0  0  0  0  0  0  0  0  0  0  0
  -21.6750   -0.8050  -36.9040 H   0  0  0  0  0  0  0  0  0  0  0  0
  -23.0540   -1.9070  -36.7560 H   0  0  0  0  0  0  0  0  0  0  0  0
  -21.9300   -3.3160  -35.4040 H   0  0  0  0  0  0  0  0  0  0  0  0
  -20.4830   -2.4260  -35.8880 H   0  0  0  0  0  0  0  0  0  0  0  0
  -23.9580    0.8540  -33.1350 H   0  0  0  0  0  0  0  0  0  0  0  0
  -23.6320    1.9190  -34.6150 H   0  0  0  0  0  0  0  0  0  0  0  0
  -22.5410    1.9320  -33.2090 H   0  0  0  0  0  0  0  0  0  0  0  0
  -21.3420    1.9370  -35.2090 H   0  0  0  0  0  0  0  0  0  0  0  0
  -20.5610    0.4350  -35.7300 H   0  0  0  0  0  0  0  0  0  0  0  0
  -20.3520    1.0750  -34.0190 H   0  0  0  0  0  0  0  0  0  0  0  0
  2  7  1  0  0  0  0
  2  1  1  0  0  0  0
  3  2  2  0  0  0  0
  4  5  2  0  0  0  0
  4  3  1  0  0  0  0
  5  6  1  0  0  0  0
  6 25  1  0  0  0  0
  6  7  2  0  0  0  0
  7 26  1  0  0  0  0
  8  9  1  0  0  0  0
  8  5  1  0  0  0  0
 10  9  2  0  0  0  0
 11 12  2  0  0  0  0
 11 10  1  0  0  0  0
 12  8  1  0  0  0  0
 13 14  1  0  0  0  0
 13 17  1  0  0  0  0
 13 12  1  1  0  0  0
 14 15  1  0  0  0  0
 15  4  1  0  0  0  0
 16 15  2  0  0  0  0
 17 29  1  0  0  0  0
 17 28  1  0  0  0  0
 18 22  1  0  0  0  0
 18 17  1  0  0  0  0
 19 18  1  0  0  0  0
 20 19  1  0  0  0  0
 20 21  1  0  0  0  0
 21 13  1  0  0  0  0
 22 36  1  0  0  0  0
 22 34  1  0  0  0  0
 23 18  1  0  0  0  0
 23 39  1  0  0  0  0
 24  3  1  0  0  0  0
 27 14  1  0  0  0  0
 30 20  1  0  0  0  0
 31 20  1  0  0  0  0
 32 21  1  0  0  0  0
 33 21  1  0  0  0  0
 35 22  1  0  0  0  0
 37 23  1  0  0  0  0
 38 23  1  0  0  0  0
M  END
>  <Pose>
1

>  <Score>
-5.75

$$$$
