
 OpenBabel03222201593D

 51 53  0  0  0  0  0  0  0  0999 V2000
  -20.0240   -3.0150  -27.1440 B   0  0  0  0  0  0  0  0  0  0  0  0
  -19.6690   -2.1190  -28.7910 C   0  0  0  0  0  0  0  0  0  0  0  0
  -20.1370   -2.6360  -29.9960 C   0  0  0  0  0  0  0  0  0  0  0  0
  -19.8790   -1.9840  -31.1950 C   0  0  0  0  0  0  0  0  0  0  0  0
  -19.1530   -0.8130  -31.2010 C   0  0  0  0  0  0  0  0  0  0  0  0
  -18.9040   -0.1730  -32.3710 N   0  0  0  0  0  0  0  0  0  0  0  0
  -19.3480   -0.6490  -33.5470 C   0  0  0  0  0  0  0  0  0  0  0  0
  -20.0520   -1.7880  -33.5230 N   0  0  0  0  0  0  0  0  0  0  0  0
  -20.3360   -2.4750  -32.4010 C   0  0  0  0  0  0  0  0  0  0  0  0
  -21.1100   -3.7030  -32.4830 C   0  0  0  0  0  0  0  0  0  0  0  0
  -22.1260   -3.8310  -33.4200 C   0  0  0  0  0  0  0  0  0  0  0  0
  -22.8720   -4.9840  -33.5370 C   0  0  0  0  0  0  0  0  0  0  0  0
  -22.6350   -6.0700  -32.7200 C   0  0  0  0  0  0  0  0  0  0  0  0
  -21.6170   -5.9400  -31.7830 C   0  0  0  0  0  0  0  0  0  0  0  0
  -20.8770   -4.7840  -31.6720 C   0  0  0  0  0  0  0  0  0  0  0  0
  -22.4530   -2.4580  -34.4800 Cl  0  0  0  0  0  0  0  0  0  0  0  0
  -19.0680    0.0560  -34.7630 N   0  0  0  0  0  4  0  0  0  0  0  0
  -19.2420    1.4690  -34.5640 C   0  0  0  0  0  0  0  0  0  0  0  0
  -20.6640    1.9120  -34.5010 C   0  0  0  0  0  0  0  0  0  0  0  0
  -21.5830    0.8940  -34.9600 N   0  0  0  0  0  0  0  0  0  0  0  0
  -21.1540    0.0880  -36.0810 C   0  0  0  0  0  0  0  0  0  0  0  0
  -19.7740   -0.4630  -35.8940 C   0  0  0  0  0  0  0  0  0  0  0  0
  -22.8260    0.7510  -34.2970 C   0  0  0  0  0  0  0  0  0  0  0  0
  -22.9470    1.0420  -33.0870 O   0  0  0  0  0  0  0  0  0  0  0  0
  -23.9630    0.2410  -35.1170 C   0  0  0  0  0  0  0  0  0  0  0  0
  -23.5110   -0.1880  -36.4800 C   0  0  0  0  0  0  0  0  0  0  0  0
  -24.4090    0.2540  -37.5570 C   0  0  0  0  0  0  0  0  0  0  0  0
  -25.2830   -0.5020  -38.0300 O   0  0  0  0  0  0  0  0  0  0  0  0
  -24.2870    1.5340  -38.0580 O   0  0  0  0  0  0  0  0  0  0  0  0
  -18.6960   -0.3190  -29.9860 C   0  0  0  0  0  0  0  0  0  0  0  0
  -18.9400   -0.9490  -28.7850 C   0  0  0  0  0  0  0  0  0  0  0  0
  -20.7030   -3.5370  -29.9960 H   0  0  0  0  0  0  0  0  0  0  0  0
  -23.6640   -5.0830  -34.2660 H   0  0  0  0  0  0  0  0  0  0  0  0
  -23.2170   -6.9820  -32.8050 H   0  0  0  0  0  0  0  0  0  0  0  0
  -21.4150   -6.7780  -31.1320 H   0  0  0  0  0  0  0  0  0  0  0  0
  -20.1010   -4.7550  -30.9290 H   0  0  0  0  0  0  0  0  0  0  0  0
  -18.0240   -0.0850  -34.9130 H   0  0  0  0  0  0  0  0  0  0  0  0
  -18.7010    1.7560  -33.6440 H   0  0  0  0  0  0  0  0  0  0  0  0
  -18.7250    1.9770  -35.4190 H   0  0  0  0  0  0  0  0  0  0  0  0
  -20.8110    2.7910  -35.1900 H   0  0  0  0  0  0  0  0  0  0  0  0
  -20.8920    2.2510  -33.4710 H   0  0  0  0  0  0  0  0  0  0  0  0
  -21.8770   -0.7200  -36.3170 H   0  0  0  0  0  0  0  0  0  0  0  0
  -21.1070    0.8060  -36.9520 H   0  0  0  0  0  0  0  0  0  0  0  0
  -19.1410   -0.2520  -36.7980 H   0  0  0  0  0  0  0  0  0  0  0  0
  -19.8160   -1.5720  -35.7880 H   0  0  0  0  0  0  0  0  0  0  0  0
  -24.3830   -0.6490  -34.6030 H   0  0  0  0  0  0  0  0  0  0  0  0
  -24.7840    0.9830  -35.1860 H   0  0  0  0  0  0  0  0  0  0  0  0
  -23.5030   -1.3060  -36.4940 H   0  0  0  0  0  0  0  0  0  0  0  0
  -22.4680    0.1420  -36.6600 H   0  0  0  0  0  0  0  0  0  0  0  0
  -18.1320    0.5870  -29.9860 H   0  0  0  0  0  0  0  0  0  0  0  0
  -18.5920   -0.5790  -27.8280 H   0  0  0  0  0  0  0  0  0  0  0  0
  2 31  1  0  0  0  0
  2  1  1  0  0  0  0
  3 32  1  0  0  0  0
  3  2  2  0  0  0  0
  4  3  1  0  0  0  0
  5  4  2  0  0  0  0
  5 30  1  0  0  0  0
  6  5  1  0  0  0  0
  7  8  1  0  0  0  0
  7  6  2  0  0  0  0
  8  9  2  0  0  0  0
  9  4  1  0  0  0  0
 10  9  1  0  0  0  0
 10 15  1  0  0  0  0
 11 10  2  0  0  0  0
 12 11  1  0  0  0  0
 12 13  2  0  0  0  0
 13 14  1  0  0  0  0
 14 15  2  0  0  0  0
 14 35  1  0  0  0  0
 15 36  1  0  0  0  0
 16 11  1  0  0  0  0
 17 18  1  0  0  0  0
 17  7  1  0  0  0  0
 18 19  1  0  0  0  0
 18 38  1  0  0  0  0
 19 41  1  0  0  0  0
 20 19  1  0  0  0  0
 20 23  1  0  0  0  0
 21 20  1  0  0  0  0
 22 45  1  0  0  0  0
 22 17  1  0  0  0  0
 23 24  2  0  0  0  0
 25 46  1  0  0  0  0
 25 23  1  0  0  0  0
 26 25  1  0  0  0  0
 27 26  1  0  0  0  0
 28 27  1  0  0  0  0
 29 27  2  0  0  0  0
 30 50  1  0  0  0  0
 30 31  2  0  0  0  0
 31 51  1  0  0  0  0
 33 12  1  0  0  0  0
 34 13  1  0  0  0  0
 37 17  1  0  0  0  0
 39 18  1  0  0  0  0
 40 19  1  0  0  0  0
 42 21  1  0  0  0  0
 43 21  1  0  0  0  0
 44 22  1  0  0  0  0
 47 25  1  0  0  0  0
 48 26  1  0  0  0  0
 49 26  1  0  0  0  0
M  END
>  <Pose>
1

>  <Score>
-5.27

$$$$
