
 OpenBabel03222201593D

 50 53  0  0  0  0  0  0  0  0999 V2000
  -18.8200   -2.4580  -25.6850 B   0  0  0  0  0  0  0  0  0  0  0  0
  -19.5610   -3.1830  -27.2990 C   0  0  0  0  0  0  0  0  0  0  0  0
  -19.6710   -2.4380  -28.4440 C   0  0  0  0  0  0  0  0  0  0  0  0
  -20.2130   -2.9730  -29.6160 C   0  0  0  0  0  0  0  0  0  0  0  0
  -20.6450   -4.2710  -29.6330 C   0  0  0  0  0  0  0  0  0  0  0  0
  -21.1270   -4.5480  -30.8840 N   0  0  0  0  0  0  0  0  0  0  0  0
  -21.0280   -3.4850  -31.6860 C   0  0  0  0  0  0  0  0  0  0  0  0
  -20.4430   -2.4840  -30.8700 C   0  0  0  0  0  0  0  0  0  0  0  0
  -21.4020   -3.2740  -33.0710 C   0  0  0  0  0  0  0  0  0  0  0  0
  -21.8940   -4.2660  -33.7310 O   0  0  0  0  0  0  0  0  0  0  0  0
  -21.2790   -2.0780  -33.7790 N   0  0  0  0  0  0  0  0  0  0  0  0
  -20.1220   -1.6300  -34.5070 C   0  0  0  0  0  0  0  0  0  0  0  0
  -20.3660   -0.2910  -35.2140 C   0  0  0  0  0  0  0  0  0  0  0  0
  -21.6310   -0.3690  -35.9290 N   0  0  0  0  0  0  0  0  0  0  0  0
  -22.7960   -0.9750  -35.2830 C   0  0  0  0  0  0  0  0  0  0  0  0
  -22.4250   -1.1290  -33.8050 C   0  0  0  0  0  0  0  0  0  0  0  0
  -21.7590    0.1280  -37.2450 C   0  0  0  0  0  0  0  0  0  0  0  0
  -21.8740    1.3700  -37.3790 O   0  0  0  0  0  0  0  0  0  0  0  0
  -21.7500   -0.8000  -38.3640 C   0  0  0  0  0  0  0  0  0  0  0  0
  -22.9500   -0.7980  -39.1710 N   0  0  0  0  0  0  0  0  0  0  0  0
  -24.1180   -0.8010  -38.2860 C   0  0  0  0  0  0  0  0  0  0  0  0
  -24.6460   -2.1810  -38.0990 C   0  0  0  0  0  0  0  0  0  0  0  0
  -23.6070   -3.1080  -38.0770 O   0  0  0  0  0  0  0  0  0  0  0  0
  -23.0210   -3.2420  -39.3380 C   0  0  0  0  0  0  0  0  0  0  0  0
  -23.0210   -1.9260  -40.0820 C   0  0  0  0  0  0  0  0  0  0  0  0
  -20.5370   -5.0300  -28.4830 C   0  0  0  0  0  0  0  0  0  0  0  0
  -19.9990   -4.4890  -27.3240 C   0  0  0  0  0  0  0  0  0  0  0  0
  -19.3370   -1.4100  -28.4600 H   0  0  0  0  0  0  0  0  0  0  0  0
  -21.5010   -5.4810  -31.1120 H   0  0  0  0  0  0  0  0  0  0  0  0
  -20.2170   -1.4900  -31.1970 H   0  0  0  0  0  0  0  0  0  0  0  0
  -19.9130   -2.4090  -35.2890 H   0  0  0  0  0  0  0  0  0  0  0  0
  -19.2790   -1.4430  -33.8240 H   0  0  0  0  0  0  0  0  0  0  0  0
  -20.4180    0.5370  -34.4850 H   0  0  0  0  0  0  0  0  0  0  0  0
  -19.5410   -0.1260  -35.9030 H   0  0  0  0  0  0  0  0  0  0  0  0
  -23.6840   -0.3100  -35.3510 H   0  0  0  0  0  0  0  0  0  0  0  0
  -23.0340   -1.9720  -35.6700 H   0  0  0  0  0  0  0  0  0  0  0  0
  -22.1280   -0.1690  -33.3630 H   0  0  0  0  0  0  0  0  0  0  0  0
  -23.2630   -1.5440  -33.2470 H   0  0  0  0  0  0  0  0  0  0  0  0
  -21.6730   -1.8390  -37.9370 H   0  0  0  0  0  0  0  0  0  0  0  0
  -20.8730   -0.6880  -39.0350 H   0  0  0  0  0  0  0  0  0  0  0  0
  -23.8110   -0.4020  -37.2890 H   0  0  0  0  0  0  0  0  0  0  0  0
  -24.8720   -0.1120  -38.7170 H   0  0  0  0  0  0  0  0  0  0  0  0
  -25.1380   -2.2230  -37.1000 H   0  0  0  0  0  0  0  0  0  0  0  0
  -25.3790   -2.4820  -38.8870 H   0  0  0  0  0  0  0  0  0  0  0  0
  -22.0360   -3.6980  -39.2190 H   0  0  0  0  0  0  0  0  0  0  0  0
  -23.6510   -3.9490  -39.9130 H   0  0  0  0  0  0  0  0  0  0  0  0
  -22.2260   -1.9150  -40.8130 H   0  0  0  0  0  0  0  0  0  0  0  0
  -23.9970   -1.8410  -40.6030 H   0  0  0  0  0  0  0  0  0  0  0  0
  -20.8840   -6.0660  -28.4990 H   0  0  0  0  0  0  0  0  0  0  0  0
  -19.9100   -5.0880  -26.4100 H   0  0  0  0  0  0  0  0  0  0  0  0
  2  1  1  0  0  0  0
  3  2  2  0  0  0  0
  4  3  1  0  0  0  0
  5  4  2  0  0  0  0
  5 26  1  0  0  0  0
  6  5  1  0  0  0  0
  7  6  1  0  0  0  0
  7  8  2  0  0  0  0
  8  4  1  0  0  0  0
  9  7  1  0  0  0  0
 10  9  2  0  0  0  0
 11  9  1  0  0  0  0
 12 32  1  0  0  0  0
 12 11  1  0  0  0  0
 13 12  1  0  0  0  0
 13 33  1  0  0  0  0
 14 15  1  0  0  0  0
 14 13  1  0  0  0  0
 15 16  1  0  0  0  0
 16 11  1  0  0  0  0
 16 37  1  0  0  0  0
 16 38  1  0  0  0  0
 17 14  1  0  0  0  0
 18 17  2  0  0  0  0
 19 39  1  0  0  0  0
 19 17  1  0  0  0  0
 20 19  1  0  0  0  0
 20 21  1  0  0  0  0
 21 22  1  0  0  0  0
 21 41  1  0  0  0  0
 22 23  1  0  0  0  0
 22 43  1  0  0  0  0
 24 45  1  0  0  0  0
 24 23  1  0  0  0  0
 25 24  1  0  0  0  0
 25 20  1  0  0  0  0
 26 27  2  0  0  0  0
 27  2  1  0  0  0  0
 27 50  1  0  0  0  0
 28  3  1  0  0  0  0
 29  6  1  0  0  0  0
 30  8  1  0  0  0  0
 31 12  1  0  0  0  0
 34 13  1  0  0  0  0
 35 15  1  0  0  0  0
 36 15  1  0  0  0  0
 40 19  1  0  0  0  0
 42 21  1  0  0  0  0
 44 22  1  0  0  0  0
 46 24  1  0  0  0  0
 47 25  1  0  0  0  0
 48 25  1  0  0  0  0
 49 26  1  0  0  0  0
M  END
>  <Pose>
1

>  <Score>
-6.36

$$$$
