
 OpenBabel03222201593D

 55 58  0  0  0  0  0  0  0  0999 V2000
  -22.5920    0.1160  -36.5600 B   0  0  0  0  0  0  0  0  0  0  0  0
  -22.1020   -0.9890  -35.1150 C   0  0  0  0  0  0  0  0  0  0  0  0
  -21.4790   -0.4710  -33.9910 C   0  0  0  0  0  0  0  0  0  0  0  0
  -21.1000   -1.2520  -32.9390 C   0  0  0  0  0  0  0  0  0  0  0  0
  -20.5360   -0.9120  -31.7410 N   0  0  0  0  0  0  0  0  0  0  0  0
  -20.4300   -2.0410  -31.0180 C   0  0  0  0  0  0  0  0  0  0  0  0
  -20.9120   -3.1330  -31.7880 C   0  0  0  0  0  0  0  0  0  0  0  0
  -21.3270   -2.5820  -32.9730 C   0  0  0  0  0  0  0  0  0  0  0  0
  -21.9560   -3.1300  -34.0940 C   0  0  0  0  0  0  0  0  0  0  0  0
  -22.3490   -2.3480  -35.1700 C   0  0  0  0  0  0  0  0  0  0  0  0
  -22.9920   -2.8670  -36.3090 O   0  0  0  0  0  0  0  0  0  0  0  0
  -20.8160   -4.5670  -31.4830 C   0  0  0  0  0  0  0  0  0  0  0  0
  -19.7540   -4.9720  -30.9390 O   0  0  0  0  0  0  0  0  0  0  0  0
  -21.7770   -5.4920  -31.7230 O   0  0  0  0  0  0  0  0  0  0  0  0
  -21.7240   -6.7570  -32.2790 C   0  0  0  0  0  0  0  0  0  0  0  0
  -23.0140   -7.2090  -32.9520 C   0  0  0  0  0  0  0  0  0  0  0  0
  -19.9840   -2.2250  -29.6360 C   0  0  0  0  0  0  0  0  0  0  0  0
  -19.2020   -1.1990  -29.0190 N   0  0  0  0  0  4  0  0  0  0  0  0
  -18.3130   -1.2600  -27.9980 C   0  0  0  0  0  0  0  0  0  0  0  0
  -18.4080    0.0700  -27.2110 C   0  0  0  0  0  0  0  0  0  0  0  0
  -18.9190    0.9940  -28.3140 C   0  0  0  0  0  0  0  0  0  0  0  0
  -19.9550    0.0630  -28.9280 C   0  0  0  0  0  0  0  0  0  0  0  0
  -19.8990    0.4040  -31.5440 C   0  0  0  0  0  0  0  0  0  0  0  0
  -19.3840    0.8170  -32.9410 C   0  0  0  0  0  0  0  0  0  0  0  0
  -19.8610    2.0060  -33.4130 C   0  0  0  0  0  0  0  0  0  0  0  0
  -19.4280    2.4530  -34.6720 C   0  0  0  0  0  0  0  0  0  0  0  0
  -18.5450    1.7530  -35.4400 C   0  0  0  0  0  0  0  0  0  0  0  0
  -18.0820    0.5470  -34.9120 C   0  0  0  0  0  0  0  0  0  0  0  0
  -18.5100    0.0870  -33.6610 C   0  0  0  0  0  0  0  0  0  0  0  0
  -21.2900    0.5990  -33.9260 H   0  0  0  0  0  0  0  0  0  0  0  0
  -22.1650   -4.2030  -34.1280 H   0  0  0  0  0  0  0  0  0  0  0  0
  -22.4250   -3.1200  -37.1300 H   0  0  0  0  0  0  0  0  0  0  0  0
  -20.9490   -6.7290  -33.1020 H   0  0  0  0  0  0  0  0  0  0  0  0
  -21.4250   -7.5270  -31.5610 H   0  0  0  0  0  0  0  0  0  0  0  0
  -22.8060   -8.0580  -33.6400 H   0  0  0  0  0  0  0  0  0  0  0  0
  -23.7670   -7.5670  -32.2250 H   0  0  0  0  0  0  0  0  0  0  0  0
  -23.4870   -6.3820  -33.5440 H   0  0  0  0  0  0  0  0  0  0  0  0
  -20.8510   -2.4000  -28.9850 H   0  0  0  0  0  0  0  0  0  0  0  0
  -19.3070   -3.1610  -29.6080 H   0  0  0  0  0  0  0  0  0  0  0  0
  -18.5600   -0.8900  -29.9590 H   0  0  0  0  0  0  0  0  0  0  0  0
  -17.1960   -1.2150  -28.3560 H   0  0  0  0  0  0  0  0  0  0  0  0
  -18.3200   -2.0540  -27.2580 H   0  0  0  0  0  0  0  0  0  0  0  0
  -17.4430    0.3510  -26.8050 H   0  0  0  0  0  0  0  0  0  0  0  0
  -19.2110   -0.0430  -26.5030 H   0  0  0  0  0  0  0  0  0  0  0  0
  -18.0670    1.1680  -28.9880 H   0  0  0  0  0  0  0  0  0  0  0  0
  -19.3240    1.9110  -27.9130 H   0  0  0  0  0  0  0  0  0  0  0  0
  -20.7720   -0.0680  -28.2080 H   0  0  0  0  0  0  0  0  0  0  0  0
  -20.3140    0.4110  -29.9080 H   0  0  0  0  0  0  0  0  0  0  0  0
  -19.0810    0.4690  -30.8820 H   0  0  0  0  0  0  0  0  0  0  0  0
  -20.6930    1.1330  -31.3380 H   0  0  0  0  0  0  0  0  0  0  0  0
  -20.5550    2.6150  -32.8530 H   0  0  0  0  0  0  0  0  0  0  0  0
  -19.7950    3.3930  -35.0780 H   0  0  0  0  0  0  0  0  0  0  0  0
  -18.2150    2.1110  -36.4120 H   0  0  0  0  0  0  0  0  0  0  0  0
  -17.3770   -0.0110  -35.4890 H   0  0  0  0  0  0  0  0  0  0  0  0
  -18.1340   -0.8380  -33.3060 H   0  0  0  0  0  0  0  0  0  0  0  0
  1  2  1  0  0  0  0
  2  3  1  0  0  0  0
  3 30  1  0  0  0  0
  3  4  2  0  0  0  0
  4  5  1  0  0  0  0
  5 23  1  0  0  0  0
  5  6  1  0  0  0  0
  6 17  1  0  0  0  0
  7 12  1  0  0  0  0
  7  6  2  0  0  0  0
  8  4  1  0  0  0  0
  8  7  1  0  0  0  0
  9  8  2  0  0  0  0
 10  2  2  0  0  0  0
 10  9  1  0  0  0  0
 11 10  1  0  0  0  0
 12 13  2  0  0  0  0
 14 12  1  0  0  0  0
 15 14  1  0  0  0  0
 15 34  1  0  0  0  0
 16 15  1  0  0  0  0
 16 36  1  0  0  0  0
 17 39  1  0  0  0  0
 17 18  1  0  0  0  0
 17 38  1  0  0  0  0
 18 22  1  0  0  0  0
 18 19  1  0  0  0  0
 19 42  1  0  0  0  0
 19 20  1  0  0  0  0
 20 43  1  0  0  0  0
 20 44  1  0  0  0  0
 21 46  1  0  0  0  0
 21 20  1  0  0  0  0
 22 21  1  0  0  0  0
 22 47  1  0  0  0  0
 23 50  1  0  0  0  0
 23 49  1  0  0  0  0
 24 23  1  0  0  0  0
 25 24  1  0  0  0  0
 25 51  1  0  0  0  0
 26 25  2  0  0  0  0
 27 28  2  0  0  0  0
 27 26  1  0  0  0  0
 28 29  1  0  0  0  0
 29 55  1  0  0  0  0
 29 24  2  0  0  0  0
 31  9  1  0  0  0  0
 32 11  1  0  0  0  0
 33 15  1  0  0  0  0
 35 16  1  0  0  0  0
 37 16  1  0  0  0  0
 40 18  1  0  0  0  0
 41 19  1  0  0  0  0
 45 21  1  0  0  0  0
 48 22  1  0  0  0  0
 52 26  1  0  0  0  0
 53 27  1  0  0  0  0
 54 28  1  0  0  0  0
M  END
>  <Pose>
1

>  <Score>
-5.02

$$$$
