
 OpenBabel03222201593D

 51 54  0  0  0  0  0  0  0  0999 V2000
  -21.8690   -4.1480  -32.7170 B   0  0  0  0  0  0  0  0  0  0  0  0
  -21.0080   -3.6360  -31.0800 C   0  0  0  0  0  0  0  0  0  0  0  0
  -21.1980   -4.4110  -29.9590 C   0  0  0  0  0  0  0  0  0  0  0  0
  -20.6050   -4.0710  -28.7680 C   0  0  0  0  0  0  0  0  0  0  0  0
  -20.5750   -4.5810  -27.5220 N   0  0  0  0  0  0  0  0  0  0  0  0
  -19.8100   -3.8170  -26.7200 C   0  0  0  0  0  0  0  0  0  0  0  0
  -19.3660   -2.8180  -27.5040 N   0  0  0  0  0  0  0  0  0  0  0  0
  -19.8340   -2.9430  -28.7630 C   0  0  0  0  0  0  0  0  0  0  0  0
  -19.6380   -2.1500  -29.9030 C   0  0  0  0  0  0  0  0  0  0  0  0
  -20.2300   -2.4900  -31.0980 C   0  0  0  0  0  0  0  0  0  0  0  0
  -20.0910   -1.7730  -32.3070 N   0  0  0  0  0  0  0  0  0  0  0  0
  -20.6840   -0.5510  -32.6480 C   0  0  0  0  0  0  0  0  0  0  0  0
  -21.4320    0.0400  -31.8290 O   0  0  0  0  0  0  0  0  0  0  0  0
  -20.4910    0.1210  -33.9380 C   0  0  0  0  0  0  0  0  0  0  0  0
  -21.4280   -0.1200  -34.9610 N   0  0  0  0  0  0  0  0  0  0  0  0
  -21.7040   -1.4640  -35.3190 C   0  0  0  0  0  0  0  0  0  0  0  0
  -22.3470   -1.5740  -36.7010 C   0  0  0  0  0  0  0  0  0  0  0  0
  -23.4770   -0.7470  -36.7200 N   0  0  0  0  0  0  0  0  0  0  0  0
  -23.7230    0.0930  -35.6130 C   0  0  0  0  0  0  0  0  0  0  0  0
  -22.5330    0.7770  -35.0120 C   0  0  0  0  0  0  0  0  0  0  0  0
  -24.0120   -0.4420  -37.9690 C   0  0  0  0  0  0  0  0  0  0  0  0
  -24.6570    0.8570  -38.1590 C   0  0  0  0  0  0  0  0  0  0  0  0
  -25.8720    0.9340  -37.7270 O   0  0  0  0  0  0  0  0  0  0  0  0
  -24.1260    2.0030  -38.7400 N   0  0  0  0  0  0  0  0  0  0  0  0
  -23.9550    2.1670  -40.1800 C   0  0  0  0  0  0  0  0  0  0  0  0
  -24.4430    3.3730  -40.8680 C   0  0  0  0  0  0  0  0  0  0  0  0
  -22.9510    3.1960  -40.6550 C   0  0  0  0  0  0  0  0  0  0  0  0
  -19.5420   -4.0330  -25.3540 O   0  0  0  0  0  0  0  0  0  0  0  0
  -21.8100   -5.3010  -29.9770 H   0  0  0  0  0  0  0  0  0  0  0  0
  -18.7330   -2.0320  -27.1870 H   0  0  0  0  0  0  0  0  0  0  0  0
  -19.0240   -1.2840  -29.8230 H   0  0  0  0  0  0  0  0  0  0  0  0
  -19.4550   -2.1850  -33.0570 H   0  0  0  0  0  0  0  0  0  0  0  0
  -20.5190    1.2300  -33.7040 H   0  0  0  0  0  0  0  0  0  0  0  0
  -19.4690   -0.0510  -34.3610 H   0  0  0  0  0  0  0  0  0  0  0  0
  -22.5370   -1.8050  -34.6200 H   0  0  0  0  0  0  0  0  0  0  0  0
  -20.8850   -2.1490  -35.1520 H   0  0  0  0  0  0  0  0  0  0  0  0
  -22.6830   -2.6430  -36.7800 H   0  0  0  0  0  0  0  0  0  0  0  0
  -21.6160   -1.3110  -37.4520 H   0  0  0  0  0  0  0  0  0  0  0  0
  -24.5600    0.8040  -35.8140 H   0  0  0  0  0  0  0  0  0  0  0  0
  -24.1350   -0.5690  -34.7890 H   0  0  0  0  0  0  0  0  0  0  0  0
  -22.2980    1.7430  -35.5130 H   0  0  0  0  0  0  0  0  0  0  0  0
  -22.8040    1.0430  -33.9590 H   0  0  0  0  0  0  0  0  0  0  0  0
  -23.1610   -0.5560  -38.7320 H   0  0  0  0  0  0  0  0  0  0  0  0
  -24.7040   -1.2880  -38.3270 H   0  0  0  0  0  0  0  0  0  0  0  0
  -23.8330    2.8070  -38.1470 H   0  0  0  0  0  0  0  0  0  0  0  0
  -23.9280    1.2310  -40.7730 H   0  0  0  0  0  0  0  0  0  0  0  0
  -24.7620    3.3130  -41.9380 H   0  0  0  0  0  0  0  0  0  0  0  0
  -24.8830    4.2260  -40.3540 H   0  0  0  0  0  0  0  0  0  0  0  0
  -22.4490    3.8600  -39.9200 H   0  0  0  0  0  0  0  0  0  0  0  0
  -22.3080    2.9580  -41.5370 H   0  0  0  0  0  0  0  0  0  0  0  0
  -19.9120   -4.9130  -24.9710 H   0  0  0  0  0  0  0  0  0  0  0  0
  1  2  1  0  0  0  0
  2  3  1  0  0  0  0
  3  4  2  0  0  0  0
  4  8  1  0  0  0  0
  4  5  1  0  0  0  0
  5  6  2  0  0  0  0
  6 28  1  0  0  0  0
  7 30  1  0  0  0  0
  7  6  1  0  0  0  0
  8  7  1  0  0  0  0
  9 31  1  0  0  0  0
  9  8  2  0  0  0  0
 10  2  2  0  0  0  0
 10  9  1  0  0  0  0
 11 10  1  0  0  0  0
 12 11  1  0  0  0  0
 12 13  2  0  0  0  0
 14 33  1  0  0  0  0
 14 12  1  0  0  0  0
 15 14  1  0  0  0  0
 16 36  1  0  0  0  0
 16 15  1  0  0  0  0
 16 35  1  0  0  0  0
 17 16  1  0  0  0  0
 18 17  1  0  0  0  0
 18 19  1  0  0  0  0
 19 20  1  0  0  0  0
 19 40  1  0  0  0  0
 20 15  1  0  0  0  0
 20 42  1  0  0  0  0
 21 18  1  0  0  0  0
 22 21  1  0  0  0  0
 22 23  2  0  0  0  0
 24 22  1  0  0  0  0
 24 45  1  0  0  0  0
 25 24  1  0  0  0  0
 26 27  1  0  0  0  0
 26 48  1  0  0  0  0
 26 25  1  0  0  0  0
 27 25  1  0  0  0  0
 27 49  1  0  0  0  0
 28 51  1  0  0  0  0
 29  3  1  0  0  0  0
 32 11  1  0  0  0  0
 34 14  1  0  0  0  0
 37 17  1  0  0  0  0
 38 17  1  0  0  0  0
 39 19  1  0  0  0  0
 41 20  1  0  0  0  0
 43 21  1  0  0  0  0
 44 21  1  0  0  0  0
 46 25  1  0  0  0  0
 47 26  1  0  0  0  0
 50 27  1  0  0  0  0
M  END
>  <Pose>
1

>  <Score>
-7.56

$$$$
