
 OpenBabel03222201593D

 58 61  0  0  0  0  0  0  0  0999 V2000
  -21.6440   -5.2200  -31.5370 B   0  0  0  0  0  0  0  0  0  0  0  0
  -20.7620   -4.4320  -30.0200 C   0  0  0  0  0  0  0  0  0  0  0  0
  -20.5570   -5.0050  -28.7950 C   0  0  0  0  0  0  0  0  0  0  0  0
  -19.9070   -4.1090  -28.0440 N   0  0  0  0  0  0  0  0  0  0  0  0
  -19.7090   -3.0270  -28.7490 N   0  0  0  0  0  0  0  0  0  0  0  0
  -20.2170   -3.1430  -30.0110 C   0  0  0  0  0  0  0  0  0  0  0  0
  -20.2060   -2.1850  -31.0870 C   0  0  0  0  0  0  0  0  0  0  0  0
  -21.1080   -2.3500  -31.9850 O   0  0  0  0  0  0  0  0  0  0  0  0
  -19.3410   -1.1350  -31.2420 N   0  0  0  0  0  0  0  0  0  0  0  0
  -18.2270   -1.0920  -32.1380 C   0  0  0  0  0  0  0  0  0  0  0  0
  -18.5480   -0.1570  -33.2580 C   0  0  0  0  0  0  0  0  0  0  0  0
  -19.5000    0.8640  -32.8450 N   0  0  0  0  0  0  0  0  0  0  0  0
  -19.7080    1.2400  -31.4860 C   0  0  0  0  0  0  0  0  0  0  0  0
  -19.4970    0.1180  -30.4740 C   0  0  0  0  0  0  0  0  0  0  0  0
  -20.2570    1.4160  -33.9340 C   0  0  0  0  0  0  0  0  0  0  0  0
  -19.9790    2.6410  -34.2760 O   0  0  0  0  0  0  0  0  0  0  0  0
  -21.2710    0.7270  -34.6530 C   0  0  0  0  0  0  0  0  0  0  0  0
  -22.6270    0.9500  -34.4520 N   0  0  0  0  0  0  0  0  0  0  0  0
  -23.3180    0.1460  -35.1930 N   0  0  0  0  0  0  0  0  0  0  0  0
  -22.5290   -0.6440  -35.9150 C   0  0  0  0  0  0  0  0  0  0  0  0
  -21.2170   -0.2670  -35.5650 C   0  0  0  0  0  0  0  0  0  0  0  0
  -22.8790   -1.6660  -36.8850 C   0  0  0  0  0  0  0  0  0  0  0  0
  -23.1370   -2.8310  -36.4150 O   0  0  0  0  0  0  0  0  0  0  0  0
  -22.9540   -1.4840  -38.2570 N   0  0  0  0  0  0  0  0  0  0  0  0
  -24.0380   -2.1540  -38.9830 C   0  0  0  0  0  0  0  0  0  0  0  0
  -23.3680   -2.9290  -40.0980 C   0  0  0  0  0  0  0  0  0  0  0  0
  -22.8300   -1.9550  -40.9580 O   0  0  0  0  0  0  0  0  0  0  0  0
  -21.7460   -1.3630  -40.3710 C   0  0  0  0  0  0  0  0  0  0  0  0
  -22.0370   -0.7050  -39.0280 C   0  0  0  0  0  0  0  0  0  0  0  0
  -23.1930    1.9320  -33.5560 C   0  0  0  0  0  0  0  0  0  0  0  0
  -19.5310   -4.3900  -26.6640 C   0  0  0  0  0  0  0  0  0  0  0  0
  -19.1910   -3.1480  -25.8850 C   0  0  0  0  0  0  0  0  0  0  0  0
  -20.8750   -6.0060  -28.5070 H   0  0  0  0  0  0  0  0  0  0  0  0
  -17.3540   -0.6230  -31.5880 H   0  0  0  0  0  0  0  0  0  0  0  0
  -17.9230   -2.0560  -32.5780 H   0  0  0  0  0  0  0  0  0  0  0  0
  -19.0250   -0.6970  -34.1240 H   0  0  0  0  0  0  0  0  0  0  0  0
  -17.5870    0.3100  -33.5840 H   0  0  0  0  0  0  0  0  0  0  0  0
  -20.8350    1.4080  -31.4040 H   0  0  0  0  0  0  0  0  0  0  0  0
  -19.2160    2.1430  -31.1380 H   0  0  0  0  0  0  0  0  0  0  0  0
  -20.2840    0.0180  -29.7380 H   0  0  0  0  0  0  0  0  0  0  0  0
  -18.5300    0.3000  -29.9860 H   0  0  0  0  0  0  0  0  0  0  0  0
  -20.3610   -0.7610  -35.9740 H   0  0  0  0  0  0  0  0  0  0  0  0
  -24.6740   -1.3380  -39.3870 H   0  0  0  0  0  0  0  0  0  0  0  0
  -24.6190   -2.8270  -38.3490 H   0  0  0  0  0  0  0  0  0  0  0  0
  -22.5430   -3.5210  -39.6780 H   0  0  0  0  0  0  0  0  0  0  0  0
  -24.1180   -3.5390  -40.6500 H   0  0  0  0  0  0  0  0  0  0  0  0
  -20.9580   -2.1280  -40.2040 H   0  0  0  0  0  0  0  0  0  0  0  0
  -21.3100   -0.6240  -41.0660 H   0  0  0  0  0  0  0  0  0  0  0  0
  -21.0640   -0.6520  -38.5030 H   0  0  0  0  0  0  0  0  0  0  0  0
  -22.4460    0.2970  -39.2090 H   0  0  0  0  0  0  0  0  0  0  0  0
  -23.1380    1.6250  -32.5110 H   0  0  0  0  0  0  0  0  0  0  0  0
  -22.7160    2.9260  -33.7170 H   0  0  0  0  0  0  0  0  0  0  0  0
  -24.2610    2.0760  -33.8070 H   0  0  0  0  0  0  0  0  0  0  0  0
  -20.3410   -4.9410  -26.1340 H   0  0  0  0  0  0  0  0  0  0  0  0
  -18.6410   -5.0620  -26.6400 H   0  0  0  0  0  0  0  0  0  0  0  0
  -19.8660   -2.3110  -26.1710 H   0  0  0  0  0  0  0  0  0  0  0  0
  -19.3800   -3.3600  -24.8110 H   0  0  0  0  0  0  0  0  0  0  0  0
  -18.1180   -2.9120  -26.0040 H   0  0  0  0  0  0  0  0  0  0  0  0
  1  2  1  0  0  0  0
  2  6  1  0  0  0  0
  2  3  2  0  0  0  0
  3 33  1  0  0  0  0
  3  4  1  0  0  0  0
  4 31  1  0  0  0  0
  5  4  1  0  0  0  0
  6  5  2  0  0  0  0
  7  6  1  0  0  0  0
  8  7  2  0  0  0  0
  9  7  1  0  0  0  0
  9 14  1  0  0  0  0
 10 34  1  0  0  0  0
 10  9  1  0  0  0  0
 11 12  1  0  0  0  0
 11 10  1  0  0  0  0
 12 13  1  0  0  0  0
 13 38  1  0  0  0  0
 13 39  1  0  0  0  0
 13 14  1  0  0  0  0
 14 41  1  0  0  0  0
 14 40  1  0  0  0  0
 15 12  1  0  0  0  0
 16 15  2  0  0  0  0
 17 18  1  0  0  0  0
 17 15  1  0  0  0  0
 18 30  1  0  0  0  0
 19 18  1  0  0  0  0
 20 21  1  0  0  0  0
 20 19  2  0  0  0  0
 21 17  2  0  0  0  0
 22 23  2  0  0  0  0
 22 20  1  0  0  0  0
 24 22  1  0  0  0  0
 25 44  1  0  0  0  0
 25 24  1  0  0  0  0
 26 45  1  0  0  0  0
 26 25  1  0  0  0  0
 27 28  1  0  0  0  0
 27 26  1  0  0  0  0
 28 47  1  0  0  0  0
 28 29  1  0  0  0  0
 29 49  1  0  0  0  0
 29 24  1  0  0  0  0
 30 51  1  0  0  0  0
 31 55  1  0  0  0  0
 31 54  1  0  0  0  0
 31 32  1  0  0  0  0
 32 57  1  0  0  0  0
 35 10  1  0  0  0  0
 36 11  1  0  0  0  0
 37 11  1  0  0  0  0
 42 21  1  0  0  0  0
 43 25  1  0  0  0  0
 46 26  1  0  0  0  0
 48 28  1  0  0  0  0
 50 29  1  0  0  0  0
 52 30  1  0  0  0  0
 53 30  1  0  0  0  0
 56 32  1  0  0  0  0
 58 32  1  0  0  0  0
M  END
>  <Pose>
1

>  <Score>
-6.79

$$$$
