
 OpenBabel03222201593D

 43 46  0  0  0  0  0  0  0  0999 V2000
  -24.0040   -0.2580  -34.5810 B   0  0  0  0  0  0  0  0  0  0  0  0
  -22.1280   -0.5380  -34.3590 C   0  0  0  0  0  0  0  0  0  0  0  0
  -21.3780   -1.0370  -35.3770 C   0  0  0  0  0  0  0  0  0  0  0  0
  -20.0690   -1.2370  -35.2360 N   0  0  0  0  0  0  0  0  0  0  0  0
  -19.4730   -0.9440  -34.0710 C   0  0  0  0  0  0  0  0  0  0  0  0
  -20.1910   -0.4310  -32.9970 C   0  0  0  0  0  0  0  0  0  0  0  0
  -21.5440   -0.2210  -33.1340 C   0  0  0  0  0  0  0  0  0  0  0  0
  -19.4680   -0.1370  -31.7820 C   0  0  0  0  0  0  0  0  0  0  0  0
  -19.3850    1.0270  -31.3560 O   0  0  0  0  0  0  0  0  0  0  0  0
  -18.8070   -1.2150  -31.0170 N   0  0  0  0  0  0  0  0  0  0  0  0
  -19.6650   -2.1250  -30.3950 C   0  0  0  0  0  0  0  0  0  0  0  0
  -19.5720   -2.5700  -29.0210 C   0  0  0  0  0  0  0  0  0  0  0  0
  -20.1170   -3.8930  -28.8600 C   0  0  0  0  0  0  0  0  0  0  0  0
  -20.1290   -4.4720  -27.6440 C   0  0  0  0  0  0  0  0  0  0  0  0
  -19.6160   -3.8040  -26.5170 C   0  0  0  0  0  0  0  0  0  0  0  0
  -19.0900   -2.5430  -26.6520 C   0  0  0  0  0  0  0  0  0  0  0  0
  -19.0700   -1.9310  -27.9160 C   0  0  0  0  0  0  0  0  0  0  0  0
  -18.4200   -0.6070  -28.0980 C   0  0  0  0  0  0  0  0  0  0  0  0
  -17.4740   -0.2300  -26.9630 C   0  0  0  0  0  0  0  0  0  0  0  0
  -18.0660   -0.4760  -25.6690 N   0  0  0  0  0  0  0  0  0  0  0  0
  -18.5800   -1.8050  -25.5010 C   0  0  0  0  0  0  0  0  0  0  0  0
  -18.5590   -2.2670  -24.3410 O   0  0  0  0  0  0  0  0  0  0  0  0
  -18.1360    0.5320  -24.6330 C   0  0  0  0  0  0  0  0  0  0  0  0
  -19.6650   -4.4490  -25.3370 O   0  0  0  0  0  0  0  0  0  0  0  0
  -20.7110   -5.7400  -27.7950 O   0  0  0  0  0  0  0  0  0  0  0  0
  -21.2960   -5.8500  -29.0750 C   0  0  0  0  0  0  0  0  0  0  0  0
  -20.6870   -4.7830  -29.7760 O   0  0  0  0  0  0  0  0  0  0  0  0
  -21.8060   -1.2990  -36.3590 H   0  0  0  0  0  0  0  0  0  0  0  0
  -18.4070   -1.0930  -33.9200 H   0  0  0  0  0  0  0  0  0  0  0  0
  -22.1270    0.1780  -32.3220 H   0  0  0  0  0  0  0  0  0  0  0  0
  -17.7820   -1.1070  -31.0290 H   0  0  0  0  0  0  0  0  0  0  0  0
  -20.7490   -1.7150  -30.5680 H   0  0  0  0  0  0  0  0  0  0  0  0
  -19.7620   -3.0580  -31.0950 H   0  0  0  0  0  0  0  0  0  0  0  0
  -19.1260    0.2240  -28.1890 H   0  0  0  0  0  0  0  0  0  0  0  0
  -17.7380   -0.6230  -28.9810 H   0  0  0  0  0  0  0  0  0  0  0  0
  -17.2540    0.8560  -27.1150 H   0  0  0  0  0  0  0  0  0  0  0  0
  -16.5580   -0.8450  -27.1010 H   0  0  0  0  0  0  0  0  0  0  0  0
  -18.9640    1.2260  -24.9240 H   0  0  0  0  0  0  0  0  0  0  0  0
  -17.2000    1.1190  -24.6100 H   0  0  0  0  0  0  0  0  0  0  0  0
  -18.4070    0.0660  -23.6780 H   0  0  0  0  0  0  0  0  0  0  0  0
  -19.3350   -5.3100  -25.0650 H   0  0  0  0  0  0  0  0  0  0  0  0
  -21.0830   -6.8320  -29.5470 H   0  0  0  0  0  0  0  0  0  0  0  0
  -22.3830   -5.7170  -28.9530 H   0  0  0  0  0  0  0  0  0  0  0  0
  1  2  1  0  0  0  0
  2  7  1  0  0  0  0
  3  4  1  0  0  0  0
  3  2  2  0  0  0  0
  4  5  2  0  0  0  0
  5 29  1  0  0  0  0
  5  6  1  0  0  0  0
  6  8  1  0  0  0  0
  7  6  2  0  0  0  0
  7 30  1  0  0  0  0
  8  9  2  0  0  0  0
  8 10  1  0  0  0  0
 10 11  1  0  0  0  0
 11 12  1  0  0  0  0
 12 13  2  0  0  0  0
 12 17  1  0  0  0  0
 13 14  1  0  0  0  0
 14 15  2  0  0  0  0
 15 24  1  0  0  0  0
 16 15  1  0  0  0  0
 16 21  1  0  0  0  0
 17 16  2  0  0  0  0
 18 17  1  0  0  0  0
 18 19  1  0  0  0  0
 19 20  1  0  0  0  0
 20 21  1  0  0  0  0
 20 23  1  0  0  0  0
 21 22  2  0  0  0  0
 23 39  1  0  0  0  0
 23 40  1  0  0  0  0
 24 41  1  0  0  0  0
 25 14  1  0  0  0  0
 26 43  1  0  0  0  0
 26 25  1  0  0  0  0
 27 26  1  0  0  0  0
 27 13  1  0  0  0  0
 28  3  1  0  0  0  0
 31 10  1  0  0  0  0
 32 11  1  0  0  0  0
 33 11  1  0  0  0  0
 34 18  1  0  0  0  0
 35 18  1  0  0  0  0
 36 19  1  0  0  0  0
 37 19  1  0  0  0  0
 38 23  1  0  0  0  0
 42 26  1  0  0  0  0
M  END
>  <Pose>
1

>  <Score>
-8.07

$$$$
