
 OpenBabel03222201593D

 48 44  0  0  1  0  0  0  0  0999 V2000
  -19.2840    0.9070  -28.8320 B   0  0  0  0  0  0  0  0  0  0  0  0
  -19.6160   -0.9260  -28.5180 C   0  0  0  0  0  0  0  0  0  0  0  0
  -20.2400   -1.6880  -29.4920 C   0  0  0  0  0  0  0  0  0  0  0  0
  -20.4530   -2.9850  -29.2230 N   0  0  0  0  0  0  0  0  0  0  0  0
  -20.0990   -3.5800  -28.0730 C   0  0  0  0  0  0  0  0  0  0  0  0
  -19.4820   -2.8180  -27.1140 C   0  0  0  0  0  0  0  0  0  0  0  0
  -19.2250   -1.4710  -27.3140 C   0  0  1  0  0  0  0  0  0  0  0  0
  -19.0820   -3.4260  -25.8550 C   0  0  0  0  0  0  0  0  0  0  0  0
  -19.2340   -4.6660  -25.6650 O   0  0  0  0  0  0  0  0  0  0  0  0
  -18.5300   -2.6740  -24.8330 O   0  0  0  0  0  0  0  0  0  0  0  0
  -18.8290   -1.5100  -29.5050 N   0  0  0  0  0  0  0  0  0  0  0  0
  -20.0940   -2.2240  -29.5510 C   0  0  0  0  0  0  0  0  0  0  0  0
  -20.8520   -2.1230  -28.2460 C   0  0  0  0  0  0  0  0  0  0  0  0
  -20.4550   -3.2630  -27.3240 C   0  0  0  0  0  0  0  0  0  0  0  0
  -19.0830   -3.0240  -26.7350 C   0  0  0  0  0  0  0  0  0  0  0  0
  -18.6860   -1.6270  -26.9680 C   0  0  0  0  0  0  0  0  0  0  0  0
  -18.5820   -0.9890  -28.1810 C   0  0  1  0  0  0  0  0  0  0  0  0
  -18.2060    0.2920  -28.2180 N   0  0  0  0  0  0  0  0  0  0  0  0
  -17.9240    0.9840  -27.1110 C   0  0  0  0  0  0  0  0  0  0  0  0
  -18.0210    0.3670  -25.8900 C   0  0  0  0  0  0  0  0  0  0  0  0
  -18.4070   -0.9560  -25.8210 C   0  0  0  0  0  0  0  0  0  0  0  0
  -18.5010   -1.5820  -24.5320 N   0  0  0  0  0  4  0  0  0  0  0  0
  -17.7380    1.0400  -24.7040 C   0  0  0  0  0  0  0  0  0  0  0  0
  -17.3550    2.3560  -24.7880 C   0  0  0  0  0  0  0  0  0  0  0  0
  -17.2580    2.9720  -26.0120 C   0  0  0  0  0  0  0  0  0  0  0  0
  -17.5440    2.2890  -27.1930 C   0  0  0  0  0  0  0  0  0  0  0  0
  -18.9310   -0.3710  -30.4100 C   0  0  0  0  0  0  0  0  0  0  0  0
  -20.5270   -1.2210  -30.4190 H   0  0  0  0  0  0  0  0  0  0  0  0
  -20.3040   -4.6240  -27.9300 H   0  0  0  0  0  0  0  0  0  0  0  0
  -18.7470   -0.8530  -26.5880 H   0  0  0  0  0  0  0  0  0  0  0  0
  -18.0460   -2.1370  -29.8010 H   0  0  0  0  0  0  0  0  0  0  0  0
  -19.9770   -3.2890  -29.8010 H   0  0  0  0  0  0  0  0  0  0  0  0
  -20.7690   -1.7980  -30.3380 H   0  0  0  0  0  0  0  0  0  0  0  0
  -21.9340   -2.2600  -28.4600 H   0  0  0  0  0  0  0  0  0  0  0  0
  -20.6190   -1.1400  -27.8040 H   0  0  0  0  0  0  0  0  0  0  0  0
  -21.2140   -3.3610  -26.5470 H   0  0  0  0  0  0  0  0  0  0  0  0
  -20.4170   -4.1830  -27.9290 H   0  0  0  0  0  0  0  0  0  0  0  0
  -19.1070   -3.2750  -25.6550 H   0  0  0  0  0  0  0  0  0  0  0  0
  -18.3270   -3.7350  -27.1790 H   0  0  0  0  0  0  0  0  0  0  0  0
  -17.6540   -1.9720  -24.0880 H   0  0  0  0  0  0  0  0  0  0  0  0
  -19.4170   -1.6520  -24.0320 H   0  0  0  0  0  0  0  0  0  0  0  0
  -17.8240    0.5280  -23.7600 H   0  0  0  0  0  0  0  0  0  0  0  0
  -17.1250    2.9210  -23.8910 H   0  0  0  0  0  0  0  0  0  0  0  0
  -16.9580    4.0010  -26.0840 H   0  0  0  0  0  0  0  0  0  0  0  0
  -17.4740    2.7530  -28.1660 H   0  0  0  0  0  0  0  0  0  0  0  0
  -19.4420   -0.7210  -31.3220 H   0  0  0  0  0  0  0  0  0  0  0  0
  -17.9440    0.0810  -30.5880 H   0  0  0  0  0  0  0  0  0  0  0  0
  -19.6050    0.3810  -29.9270 H   0  0  0  0  0  0  0  0  0  0  0  0
  1 18  1  0  0  0  0
  2 17  1  0  0  0  0
  2  7  1  0  0  0  0
  4 13  1  0  0  0  0
  5 37  1  0  0  0  0
  5 14  1  0  0  0  0
  6 15  1  0  0  0  0
  7 16  1  6  0  0  0
  8  9  2  0  0  0  0
 10 22  1  0  0  0  0
 12  3  1  0  0  0  0
 12  4  1  0  0  0  0
 13 35  1  0  0  0  0
 14  6  1  0  0  0  0
 14 36  1  0  0  0  0
 15  8  1  0  0  0  0
 17 11  1  6  0  0  0
 17  7  1  0  0  0  0
 18 17  1  0  0  0  0
 18 19  1  0  0  0  0
 19 20  1  0  0  0  0
 20 21  1  0  0  0  0
 20 23  2  0  0  0  0
 21 22  1  0  0  0  0
 22 40  1  0  0  0  0
 22 41  1  0  0  0  0
 23 42  1  0  0  0  0
 24 23  1  0  0  0  0
 24 43  1  0  0  0  0
 25 24  2  0  0  0  0
 26 19  2  0  0  0  0
 26 25  1  0  0  0  0
 27 48  1  0  0  0  0
 27 11  1  0  0  0  0
 30 21  1  0  0  0  0
 31 11  1  0  0  0  0
 32  4  1  0  0  0  0
 33  3  1  0  0  0  0
 34 13  1  0  0  0  0
 38 10  1  0  0  0  0
 44 25  1  0  0  0  0
 45 26  1  0  0  0  0
 46 27  1  0  0  0  0
 47 27  1  0  0  0  0
M  END
>  <Pose>
1

>  <Score>
-6.87

$$$$
