
 OpenBabel03222201593D

 31 34  0  0  0  0  0  0  0  0999 V2000
  -22.2300   -5.6220  -32.5060 B   0  0  0  0  0  0  0  0  0  0  0  0
  -21.4480   -3.8830  -32.2760 C   0  0  0  0  0  0  0  0  0  0  0  0
  -21.7710   -2.9130  -33.2010 C   0  0  0  0  0  0  0  0  0  0  0  0
  -21.2130   -1.6690  -33.0370 C   0  0  0  0  0  0  0  0  0  0  0  0
  -20.3510   -1.4150  -31.9680 C   0  0  0  0  0  0  0  0  0  0  0  0
  -20.0230   -2.3760  -31.0400 C   0  0  0  0  0  0  0  0  0  0  0  0
  -20.5970   -3.6380  -31.2170 C   0  0  0  0  0  0  0  0  0  0  0  0
  -19.1120   -2.1330  -29.8920 C   0  0  0  0  0  0  0  0  0  0  0  0
  -19.8450   -1.4960  -28.8250 N   0  0  0  0  0  0  0  0  0  0  0  0
  -19.1360   -0.6010  -27.9480 C   0  0  0  0  0  0  0  0  0  0  0  0
  -18.8210    0.6420  -28.3370 N   0  0  0  0  0  0  0  0  0  0  0  0
  -18.1590    1.4720  -27.5110 C   0  0  0  0  0  0  0  0  0  0  0  0
  -17.7810    1.0710  -26.2340 C   0  0  0  0  0  0  0  0  0  0  0  0
  -18.0980   -0.1670  -25.8540 N   0  0  0  0  0  0  0  0  0  0  0  0
  -18.7660   -1.0070  -26.6850 C   0  0  0  0  0  0  0  0  0  0  0  0
  -18.9410   -2.1690  -26.0360 N   0  0  0  0  0  0  0  0  0  0  0  0
  -18.4090   -2.0920  -24.8280 N   0  0  0  0  0  0  0  0  0  0  0  0
  -17.8940   -0.8640  -24.7220 C   0  0  0  0  0  0  0  0  0  0  0  0
  -21.6910   -0.8830  -34.0870 O   0  0  0  0  0  0  0  0  0  0  0  0
  -22.0930   -1.7780  -35.1370 C   0  0  0  0  0  0  0  0  0  0  0  0
  -22.5800   -2.8690  -34.3430 O   0  0  0  0  0  0  0  0  0  0  0  0
  -19.9360   -0.4330  -31.8820 H   0  0  0  0  0  0  0  0  0  0  0  0
  -20.3800   -4.4340  -30.5240 H   0  0  0  0  0  0  0  0  0  0  0  0
  -18.3190   -1.4070  -30.2200 H   0  0  0  0  0  0  0  0  0  0  0  0
  -18.6090   -3.0650  -29.5580 H   0  0  0  0  0  0  0  0  0  0  0  0
  -20.8540   -1.6640  -28.6770 H   0  0  0  0  0  0  0  0  0  0  0  0
  -17.8940    2.4750  -27.7980 H   0  0  0  0  0  0  0  0  0  0  0  0
  -17.2530    1.7360  -25.5790 H   0  0  0  0  0  0  0  0  0  0  0  0
  -17.3840   -0.5120  -23.8260 H   0  0  0  0  0  0  0  0  0  0  0  0
  -22.8600   -1.3500  -35.7790 H   0  0  0  0  0  0  0  0  0  0  0  0
  -21.1880   -2.1370  -35.6630 H   0  0  0  0  0  0  0  0  0  0  0  0
  1  2  1  0  0  0  0
  2  7  1  0  0  0  0
  3  4  1  0  0  0  0
  3  2  2  0  0  0  0
  4  5  2  0  0  0  0
  5 22  1  0  0  0  0
  5  6  1  0  0  0  0
  6  8  1  0  0  0  0
  7  6  2  0  0  0  0
  7 23  1  0  0  0  0
  8 25  1  0  0  0  0
  8  9  1  0  0  0  0
  9 26  1  0  0  0  0
  9 10  1  0  0  0  0
 10 15  1  0  0  0  0
 11 10  2  0  0  0  0
 11 12  1  0  0  0  0
 12 13  2  0  0  0  0
 13 14  1  0  0  0  0
 13 28  1  0  0  0  0
 14 18  1  0  0  0  0
 15 16  2  0  0  0  0
 15 14  1  0  0  0  0
 16 17  1  0  0  0  0
 17 18  2  0  0  0  0
 18 29  1  0  0  0  0
 19  4  1  0  0  0  0
 20 21  1  0  0  0  0
 20 19  1  0  0  0  0
 21  3  1  0  0  0  0
 24  8  1  0  0  0  0
 27 12  1  0  0  0  0
 30 20  1  0  0  0  0
 31 20  1  0  0  0  0
M  END
>  <Pose>
1

>  <Score>
-6.34

$$$$
