
 OpenBabel03222201593D

 56 59  0  0  1  0  0  0  0  0999 V2000
  -17.8770   -1.8550  -25.5280 B   0  0  0  0  0  0  0  0  0  0  0  0
  -18.3490   -0.3560  -26.5930 C   0  0  0  0  0  0  0  0  0  0  0  0
  -18.8870   -0.5670  -27.8700 C   0  0  0  0  0  0  0  0  0  0  0  0
  -19.2520    0.4690  -28.6750 C   0  0  0  0  0  0  0  0  0  0  0  0
  -19.0800    1.7610  -28.2100 C   0  0  0  0  0  0  0  0  0  0  0  0
  -18.5460    1.9790  -26.9450 C   0  0  0  0  0  0  0  0  0  0  0  0
  -18.1790    0.9310  -26.1340 C   0  0  0  0  0  0  0  0  0  0  0  0
  -18.3440    3.3550  -26.4080 C   0  0  0  0  0  0  0  0  0  0  0  0
  -19.8620    0.2200  -30.0100 C   0  0  1  0  0  0  0  0  0  0  0  0
  -19.4360   -1.0160  -30.7170 C   0  0  0  0  0  0  0  0  0  0  0  0
  -18.6710   -1.9670  -29.7660 C   0  0  0  0  0  0  0  0  0  0  0  0
  -19.0920   -1.8240  -28.4200 O   0  0  0  0  0  0  0  0  0  0  0  0
  -18.4180   -0.7520  -31.8110 C   0  0  0  0  0  0  0  0  0  0  0  0
  -18.9260   -0.0010  -32.9390 N   0  0  0  0  0  4  0  0  0  0  0  0
  -19.5610   -0.9150  -33.8880 C   0  0  0  0  0  0  0  0  0  0  0  0
  -19.5400   -0.2670  -35.2230 C   0  0  0  0  0  0  0  0  0  0  0  0
  -18.6710    0.9300  -35.0320 C   0  0  0  0  0  0  0  0  0  0  0  0
  -17.8710    0.5320  -33.7850 C   0  0  0  0  0  0  0  0  0  0  0  0
  -20.5840   -1.8330  -31.1760 C   0  0  0  0  0  0  0  0  0  0  0  0
  -20.6020   -3.0500  -31.8070 N   0  0  0  0  0  4  0  0  0  0  0  0
  -20.5330   -4.1430  -30.8120 C   0  0  0  0  0  0  0  0  0  0  0  0
  -21.3410   -5.2580  -31.3520 C   0  0  0  0  0  0  0  0  0  0  0  0
  -22.3140   -4.6610  -32.2940 C   0  0  0  0  0  0  0  0  0  0  0  0
  -21.6430   -3.3500  -32.7000 C   0  0  0  0  0  0  0  0  0  0  0  0
  -21.2540    0.2570  -29.7190 O   0  0  0  0  0  0  0  0  0  0  0  0
  -19.3420    2.6210  -28.7870 H   0  0  0  0  0  0  0  0  0  0  0  0
  -17.7630    1.0600  -25.1490 H   0  0  0  0  0  0  0  0  0  0  0  0
  -18.2460    4.0990  -27.2190 H   0  0  0  0  0  0  0  0  0  0  0  0
  -19.2100    3.5850  -25.7320 H   0  0  0  0  0  0  0  0  0  0  0  0
  -17.4460    3.3730  -25.7290 H   0  0  0  0  0  0  0  0  0  0  0  0
  -19.7080    1.1510  -30.6300 H   0  0  0  0  0  0  0  0  0  0  0  0
  -17.5930   -1.9180  -29.9110 H   0  0  0  0  0  0  0  0  0  0  0  0
  -18.9550   -3.0150  -30.0560 H   0  0  0  0  0  0  0  0  0  0  0  0
  -17.6130   -0.0790  -31.3680 H   0  0  0  0  0  0  0  0  0  0  0  0
  -17.8680   -1.5940  -32.1860 H   0  0  0  0  0  0  0  0  0  0  0  0
  -19.5440    0.7900  -32.7040 H   0  0  0  0  0  0  0  0  0  0  0  0
  -20.5690   -1.2010  -33.6090 H   0  0  0  0  0  0  0  0  0  0  0  0
  -18.9310   -1.8400  -33.8780 H   0  0  0  0  0  0  0  0  0  0  0  0
  -20.5520   -0.0480  -35.5910 H   0  0  0  0  0  0  0  0  0  0  0  0
  -19.0820   -0.9620  -35.9850 H   0  0  0  0  0  0  0  0  0  0  0  0
  -19.3200    1.8050  -34.7570 H   0  0  0  0  0  0  0  0  0  0  0  0
  -18.0010    1.1560  -35.8720 H   0  0  0  0  0  0  0  0  0  0  0  0
  -17.1590   -0.2690  -34.0850 H   0  0  0  0  0  0  0  0  0  0  0  0
  -17.3510    1.3970  -33.3880 H   0  0  0  0  0  0  0  0  0  0  0  0
  -21.3300   -1.9480  -30.2730 H   0  0  0  0  0  0  0  0  0  0  0  0
  -21.2890   -1.1520  -31.8130 H   0  0  0  0  0  0  0  0  0  0  0  0
  -19.6370   -3.2480  -32.3250 H   0  0  0  0  0  0  0  0  0  0  0  0
  -19.4860   -4.5290  -30.6950 H   0  0  0  0  0  0  0  0  0  0  0  0
  -20.8320   -3.8320  -29.8120 H   0  0  0  0  0  0  0  0  0  0  0  0
  -20.7210   -6.0060  -31.8980 H   0  0  0  0  0  0  0  0  0  0  0  0
  -21.9130   -5.7930  -30.5480 H   0  0  0  0  0  0  0  0  0  0  0  0
  -22.4600   -5.2600  -33.2080 H   0  0  0  0  0  0  0  0  0  0  0  0
  -23.3210   -4.4790  -31.8490 H   0  0  0  0  0  0  0  0  0  0  0  0
  -22.4620   -2.6460  -32.8040 H   0  0  0  0  0  0  0  0  0  0  0  0
  -21.2490   -3.4800  -33.7690 H   0  0  0  0  0  0  0  0  0  0  0  0
  -21.4820    1.0320  -29.1780 H   0  0  0  0  0  0  0  0  0  0  0  0
  2  7  1  0  0  0  0
  2  1  1  0  0  0  0
  3  2  2  0  0  0  0
  4  5  2  0  0  0  0
  4  3  1  0  0  0  0
  5  6  1  0  0  0  0
  6  8  1  0  0  0  0
  6  7  2  0  0  0  0
  7 27  1  0  0  0  0
  8 29  1  0  0  0  0
  8 30  1  0  0  0  0
  9 31  1  6  0  0  0
  9 25  1  0  0  0  0
  9  4  1  0  0  0  0
 10  9  1  0  0  0  0
 10 11  1  0  0  0  0
 11 12  1  0  0  0  0
 12  3  1  0  0  0  0
 13 34  1  0  0  0  0
 13 10  1  0  0  0  0
 14 36  1  0  0  0  0
 14 13  1  0  0  0  0
 15 38  1  0  0  0  0
 15 37  1  0  0  0  0
 15 14  1  0  0  0  0
 16 17  1  0  0  0  0
 16 15  1  0  0  0  0
 17 41  1  0  0  0  0
 17 18  1  0  0  0  0
 18 44  1  0  0  0  0
 18 14  1  0  0  0  0
 19 10  1  0  0  0  0
 19 45  1  0  0  0  0
 20 19  1  0  0  0  0
 20 21  1  0  0  0  0
 21 48  1  0  0  0  0
 21 49  1  0  0  0  0
 22 21  1  0  0  0  0
 22 51  1  0  0  0  0
 23 53  1  0  0  0  0
 23 22  1  0  0  0  0
 24 23  1  0  0  0  0
 24 20  1  0  0  0  0
 25 56  1  0  0  0  0
 26  5  1  0  0  0  0
 28  8  1  0  0  0  0
 32 11  1  0  0  0  0
 33 11  1  0  0  0  0
 35 13  1  0  0  0  0
 39 16  1  0  0  0  0
 40 16  1  0  0  0  0
 42 17  1  0  0  0  0
 43 18  1  0  0  0  0
 46 19  1  0  0  0  0
 47 20  1  0  0  0  0
 50 22  1  0  0  0  0
 52 23  1  0  0  0  0
 54 24  1  0  0  0  0
 55 24  1  0  0  0  0
M  END
>  <Pose>
1

>  <Score>
-5.94

$$$$
