
 OpenBabel03222201593D

 56 59  0  0  1  0  0  0  0  0999 V2000
  -19.4020   -0.6720  -30.8270 B   0  0  0  0  0  0  0  0  0  0  0  0
  -19.8400   -2.1620  -29.7270 C   0  0  0  0  0  0  0  0  0  0  0  0
  -19.4280   -2.1740  -28.4090 C   0  0  0  0  0  0  0  0  0  0  0  0
  -19.7310   -3.2400  -27.5890 C   0  0  0  0  0  0  0  0  0  0  0  0
  -20.4550   -4.2750  -28.1460 C   0  0  0  0  0  0  0  0  0  0  0  0
  -20.8640   -4.2550  -29.4640 C   0  0  0  0  0  0  0  0  0  0  0  0
  -20.5650   -3.1920  -30.2930 C   0  0  0  0  0  0  0  0  0  0  0  0
  -20.9710   -3.1600  -31.6260 O   0  0  0  0  0  0  0  0  0  0  0  0
  -22.3610   -3.1580  -31.8890 C   0  0  0  0  0  0  0  0  0  0  0  0
  -22.6580   -3.1880  -33.3660 C   0  0  2  0  0  0  0  0  0  0  0  0
  -22.0760   -4.2470  -34.0120 O   0  0  0  0  0  0  0  0  0  0  0  0
  -22.3250   -1.8820  -34.0010 C   0  0  0  0  0  0  0  0  0  0  0  0
  -23.3840   -1.3440  -34.8260 N   0  0  0  0  0  4  0  0  0  0  0  0
  -23.2810   -1.9930  -36.1210 C   0  0  0  0  0  0  0  0  0  0  0  0
  -24.1860   -1.3290  -37.1690 C   0  0  0  0  0  0  0  0  0  0  0  0
  -23.8390    0.0430  -37.2690 N   0  0  0  0  0  0  0  0  0  0  0  0
  -22.7850    0.4850  -36.3330 C   0  0  0  0  0  0  0  0  0  0  0  0
  -23.1880    0.0930  -34.9510 C   0  0  0  0  0  0  0  0  0  0  0  0
  -24.4090    0.9580  -38.1620 C   0  0  0  0  0  0  0  0  0  0  0  0
  -25.6930    1.1790  -37.9320 O   0  0  0  0  0  0  0  0  0  0  0  0
  -23.8710    1.6890  -39.2630 C   0  0  0  0  0  0  0  0  0  0  0  0
  -22.5720    1.6970  -39.6840 C   0  0  0  0  0  0  0  0  0  0  0  0
  -22.1130    2.4340  -40.7670 C   0  0  0  0  0  0  0  0  0  0  0  0
  -22.9730    3.2070  -41.4790 C   0  0  0  0  0  0  0  0  0  0  0  0
  -24.2930    3.2220  -41.0780 C   0  0  0  0  0  0  0  0  0  0  0  0
  -24.7470    2.4940  -40.0070 C   0  0  0  0  0  0  0  0  0  0  0  0
  -19.3180   -3.2520  -26.2680 C   0  0  0  0  0  0  0  0  0  0  0  0
  -18.5950   -2.2180  -25.7100 C   0  0  0  0  0  0  0  0  0  0  0  0
  -18.2900   -1.1500  -26.5310 C   0  0  0  0  0  0  0  0  0  0  0  0
  -18.7020   -1.1380  -27.8490 C   0  0  0  0  0  0  0  0  0  0  0  0
  -20.6980   -5.1170  -27.5080 H   0  0  0  0  0  0  0  0  0  0  0  0
  -21.4350   -5.0740  -29.8990 H   0  0  0  0  0  0  0  0  0  0  0  0
  -22.7840   -4.0680  -31.4170 H   0  0  0  0  0  0  0  0  0  0  0  0
  -22.7890   -2.2540  -31.4030 H   0  0  0  0  0  0  0  0  0  0  0  0
  -23.7780   -3.3040  -33.4500 H   0  0  0  0  0  0  0  0  0  0  0  0
  -22.0460   -4.1740  -34.9830 H   0  0  0  0  0  0  0  0  0  0  0  0
  -21.4480   -2.0450  -34.6850 H   0  0  0  0  0  0  0  0  0  0  0  0
  -22.0840   -1.1190  -33.2410 H   0  0  0  0  0  0  0  0  0  0  0  0
  -24.3400   -1.5280  -34.4550 H   0  0  0  0  0  0  0  0  0  0  0  0
  -22.2310   -2.0560  -36.4470 H   0  0  0  0  0  0  0  0  0  0  0  0
  -23.6740   -3.0240  -35.9950 H   0  0  0  0  0  0  0  0  0  0  0  0
  -23.9400   -1.8430  -38.1170 H   0  0  0  0  0  0  0  0  0  0  0  0
  -25.2330   -1.5480  -36.8910 H   0  0  0  0  0  0  0  0  0  0  0  0
  -21.8760   -0.0720  -36.6190 H   0  0  0  0  0  0  0  0  0  0  0  0
  -22.6390    1.5610  -36.3930 H   0  0  0  0  0  0  0  0  0  0  0  0
  -24.1010    0.6540  -34.6660 H   0  0  0  0  0  0  0  0  0  0  0  0
  -22.3800    0.4410  -34.2590 H   0  0  0  0  0  0  0  0  0  0  0  0
  -21.8300    1.1220  -39.1890 H   0  0  0  0  0  0  0  0  0  0  0  0
  -21.0640    2.3950  -41.0520 H   0  0  0  0  0  0  0  0  0  0  0  0
  -22.6510    3.7940  -42.3260 H   0  0  0  0  0  0  0  0  0  0  0  0
  -24.9770    3.8400  -41.6460 H   0  0  0  0  0  0  0  0  0  0  0  0
  -25.7990    2.5800  -39.7830 H   0  0  0  0  0  0  0  0  0  0  0  0
  -19.5560   -4.0880  -25.6230 H   0  0  0  0  0  0  0  0  0  0  0  0
  -18.2860   -2.2580  -24.6710 H   0  0  0  0  0  0  0  0  0  0  0  0
  -17.7190   -0.3380  -26.0840 H   0  0  0  0  0  0  0  0  0  0  0  0
  -18.4620   -0.2980  -28.4910 H   0  0  0  0  0  0  0  0  0  0  0  0
  1  2  1  0  0  0  0
  2  3  1  0  0  0  0
  3 30  2  0  0  0  0
  3  4  1  0  0  0  0
  4 27  2  0  0  0  0
  5  4  1  0  0  0  0
  5 31  1  0  0  0  0
  6  5  2  0  0  0  0
  7  2  2  0  0  0  0
  7  6  1  0  0  0  0
  8  7  1  0  0  0  0
  9  8  1  0  0  0  0
  9 33  1  0  0  0  0
  9 34  1  0  0  0  0
 10 35  1  6  0  0  0
 10  9  1  0  0  0  0
 11 10  1  0  0  0  0
 12 10  1  0  0  0  0
 12 38  1  0  0  0  0
 13 39  1  0  0  0  0
 13 12  1  0  0  0  0
 14 41  1  0  0  0  0
 14 13  1  0  0  0  0
 15 43  1  0  0  0  0
 15 14  1  0  0  0  0
 16 15  1  0  0  0  0
 16 17  1  0  0  0  0
 17 18  1  0  0  0  0
 18 13  1  0  0  0  0
 18 46  1  0  0  0  0
 18 47  1  0  0  0  0
 19 20  2  0  0  0  0
 19 16  1  0  0  0  0
 21 19  1  0  0  0  0
 22 21  1  0  0  0  0
 22 48  1  0  0  0  0
 23 22  2  0  0  0  0
 24 25  2  0  0  0  0
 24 23  1  0  0  0  0
 25 26  1  0  0  0  0
 26 52  1  0  0  0  0
 26 21  2  0  0  0  0
 27 28  1  0  0  0  0
 27 53  1  0  0  0  0
 28 54  1  0  0  0  0
 29 55  1  0  0  0  0
 29 28  2  0  0  0  0
 30 29  1  0  0  0  0
 32  6  1  0  0  0  0
 36 11  1  0  0  0  0
 37 12  1  0  0  0  0
 40 14  1  0  0  0  0
 42 15  1  0  0  0  0
 44 17  1  0  0  0  0
 45 17  1  0  0  0  0
 49 23  1  0  0  0  0
 50 24  1  0  0  0  0
 51 25  1  0  0  0  0
 56 30  1  0  0  0  0
M  END
>  <Pose>
1

>  <Score>
-6.89

$$$$
