
 OpenBabel03222201593D

 46 49  0  0  0  0  0  0  0  0999 V2000
  -20.8320   -4.2590  -29.8830 B   0  0  0  0  0  0  0  0  0  0  0  0
  -20.0670   -2.8010  -28.8780 C   0  0  0  0  0  0  0  0  0  0  0  0
  -19.8900   -1.5330  -29.2940 N   0  0  0  0  0  0  0  0  0  0  0  0
  -19.3290   -0.8140  -28.3090 C   0  0  0  0  0  0  0  0  0  0  0  0
  -19.1470   -1.6620  -27.2340 C   0  0  0  0  0  0  0  0  0  0  0  0
  -19.6060   -2.8610  -27.6160 N   0  0  0  0  0  0  0  0  0  0  0  0
  -18.5960   -1.1700  -26.1060 N   0  0  0  0  0  0  0  0  0  0  0  0
  -18.2140    0.1210  -25.9820 C   0  0  0  0  0  0  0  0  0  0  0  0
  -17.6990    0.5430  -24.9040 O   0  0  0  0  0  0  0  0  0  0  0  0
  -18.3770    0.9750  -27.0090 N   0  0  0  0  0  0  0  0  0  0  0  0
  -18.9260    0.4940  -28.1380 C   0  0  0  0  0  0  0  0  0  0  0  0
  -19.0830    1.2780  -29.0960 O   0  0  0  0  0  0  0  0  0  0  0  0
  -17.9600    2.3550  -26.8510 C   0  0  0  0  0  0  0  0  0  0  0  0
  -18.4080   -2.0670  -24.9850 C   0  0  0  0  0  0  0  0  0  0  0  0
  -20.2690   -1.0810  -30.5900 C   0  0  0  0  0  0  0  0  0  0  0  0
  -19.8380   -1.9010  -31.7510 C   0  0  0  0  0  0  0  0  0  0  0  0
  -20.7730   -2.0860  -32.8090 N   0  0  0  0  0  0  0  0  0  0  0  0
  -21.0660   -1.1740  -33.7690 C   0  0  0  0  0  0  0  0  0  0  0  0
  -22.0160   -1.6930  -34.6150 C   0  0  0  0  0  0  0  0  0  0  0  0
  -22.2760   -2.9220  -34.1390 N   0  0  0  0  0  0  0  0  0  0  0  0
  -21.5290   -3.1610  -33.0510 C   0  0  0  0  0  0  0  0  0  0  0  0
  -21.5080   -4.7590  -31.9740 B   0  0  0  0  0  0  0  0  0  0  0  0
  -22.5150   -1.0140  -35.6820 N   0  0  0  0  0  0  0  0  0  0  0  0
  -22.0330    0.2250  -35.8890 C   0  0  0  0  0  0  0  0  0  0  0  0
  -22.4880    0.8660  -36.8760 O   0  0  0  0  0  0  0  0  0  0  0  0
  -21.1030    0.7840  -35.0950 N   0  0  0  0  0  0  0  0  0  0  0  0
  -20.6210    0.1110  -34.0520 C   0  0  0  0  0  0  0  0  0  0  0  0
  -19.7500    0.5770  -33.2690 O   0  0  0  0  0  0  0  0  0  0  0  0
  -20.6170    2.1210  -35.3620 C   0  0  0  0  0  0  0  0  0  0  0  0
  -23.5220   -1.5970  -36.5580 C   0  0  0  0  0  0  0  0  0  0  0  0
  -17.8140    2.8320  -27.8380 H   0  0  0  0  0  0  0  0  0  0  0  0
  -18.7150    2.9650  -26.3050 H   0  0  0  0  0  0  0  0  0  0  0  0
  -17.0110    2.3490  -26.2740 H   0  0  0  0  0  0  0  0  0  0  0  0
  -17.4320   -1.7980  -24.4990 H   0  0  0  0  0  0  0  0  0  0  0  0
  -18.3400   -3.1030  -25.3260 H   0  0  0  0  0  0  0  0  0  0  0  0
  -19.2150   -1.9000  -24.2370 H   0  0  0  0  0  0  0  0  0  0  0  0
  -21.3890   -0.9640  -30.6970 H   0  0  0  0  0  0  0  0  0  0  0  0
  -19.9020   -0.0160  -30.6780 H   0  0  0  0  0  0  0  0  0  0  0  0
  -19.5080   -2.8920  -31.3430 H   0  0  0  0  0  0  0  0  0  0  0  0
  -18.8790   -1.4930  -32.2010 H   0  0  0  0  0  0  0  0  0  0  0  0
  -20.1650    2.5860  -34.4630 H   0  0  0  0  0  0  0  0  0  0  0  0
  -19.8090    2.1250  -36.1470 H   0  0  0  0  0  0  0  0  0  0  0  0
  -21.4490    2.8080  -35.6630 H   0  0  0  0  0  0  0  0  0  0  0  0
  -23.3330   -2.6740  -36.7510 H   0  0  0  0  0  0  0  0  0  0  0  0
  -24.5470   -1.4170  -36.1670 H   0  0  0  0  0  0  0  0  0  0  0  0
  -23.4200   -1.0920  -37.5420 H   0  0  0  0  0  0  0  0  0  0  0  0
  1  2  1  0  0  0  0
  2  6  2  0  0  0  0
  3  2  1  0  0  0  0
  3  4  1  0  0  0  0
  4 11  1  0  0  0  0
  4  5  2  0  0  0  0
  5  7  1  0  0  0  0
  6  5  1  0  0  0  0
  7  8  1  0  0  0  0
  7 14  1  0  0  0  0
  8  9  2  0  0  0  0
 10 13  1  0  0  0  0
 10  8  1  0  0  0  0
 11 10  1  0  0  0  0
 12 11  2  0  0  0  0
 13 32  1  0  0  0  0
 13 33  1  0  0  0  0
 14 34  1  0  0  0  0
 14 36  1  0  0  0  0
 15  3  1  0  0  0  0
 16 39  1  0  0  0  0
 16 15  1  0  0  0  0
 17 16  1  0  0  0  0
 18 17  1  0  0  0  0
 19 20  1  0  0  0  0
 19 18  2  0  0  0  0
 20 21  2  0  0  0  0
 21 17  1  0  0  0  0
 21 22  1  0  0  0  0
 23 19  1  0  0  0  0
 24 23  1  0  0  0  0
 24 26  1  0  0  0  0
 25 24  2  0  0  0  0
 26 27  1  0  0  0  0
 27 18  1  0  0  0  0
 27 28  2  0  0  0  0
 29 26  1  0  0  0  0
 29 41  1  0  0  0  0
 30 45  1  0  0  0  0
 30 23  1  0  0  0  0
 31 13  1  0  0  0  0
 35 14  1  0  0  0  0
 37 15  1  0  0  0  0
 38 15  1  0  0  0  0
 40 16  1  0  0  0  0
 42 29  1  0  0  0  0
 43 29  1  0  0  0  0
 44 30  1  0  0  0  0
 46 30  1  0  0  0  0
M  END
>  <Pose>
1

>  <Score>
-7.76

$$$$
