
 OpenBabel03162216093D

 43 46  0  0  0  0  0  0  0  0999 V2000
  -21.8950   -4.0930  -32.2930 B   0  0  0  0  0  0  0  0  0  0  0  0
  -20.6910   -2.6950  -32.7640 C   0  0  0  0  0  0  0  0  0  0  0  0
  -19.5880   -2.3820  -32.0160 N   0  0  0  0  0  0  0  0  0  0  0  0
  -19.0090   -1.3570  -32.6730 C   0  0  0  0  0  0  0  0  0  0  0  0
  -19.7300   -1.0280  -33.8090 C   0  0  0  0  0  0  0  0  0  0  0  0
  -20.7730   -1.8860  -33.8300 N   0  0  0  0  0  0  0  0  0  0  0  0
  -19.3880   -0.0480  -34.6640 N   0  0  0  0  0  0  0  0  0  0  0  0
  -18.2690    0.6390  -34.3740 C   0  0  0  0  0  0  0  0  0  0  0  0
  -17.9020    1.5810  -35.1540 O   0  0  0  0  0  0  0  0  0  0  0  0
  -17.5380    0.3510  -33.2810 N   0  0  0  0  0  0  0  0  0  0  0  0
  -17.8820   -0.6410  -32.4130 C   0  0  0  0  0  0  0  0  0  0  0  0
  -17.1910   -0.8960  -31.4050 O   0  0  0  0  0  0  0  0  0  0  0  0
  -20.1490    0.2900  -35.8480 C   0  0  0  0  0  0  0  0  0  0  0  0
  -19.1890   -3.0680  -30.8050 C   0  0  0  0  0  0  0  0  0  0  0  0
  -20.3090   -3.2800  -29.8290 C   0  0  0  0  0  0  0  0  0  0  0  0
  -19.8860   -3.3220  -28.3890 C   0  0  0  0  0  0  0  0  0  0  0  0
  -19.4850   -1.9930  -27.9480 N   0  0  0  0  0  0  0  0  0  0  0  0
  -18.9540   -1.6270  -26.7590 C   0  0  0  0  0  0  0  0  0  0  0  0
  -18.7140   -0.2730  -26.7410 C   0  0  0  0  0  0  0  0  0  0  0  0
  -19.1100    0.1810  -27.9450 N   0  0  0  0  0  0  0  0  0  0  0  0
  -19.5740   -0.8620  -28.6660 C   0  0  0  0  0  0  0  0  0  0  0  0
  -20.2640   -0.8040  -30.4460 B   0  0  0  0  0  0  0  0  0  0  0  0
  -18.1870    0.3770  -25.6870 N   0  0  0  0  0  0  0  0  0  0  0  0
  -17.8890   -0.3750  -24.5990 C   0  0  0  0  0  0  0  0  0  0  0  0
  -17.3920    0.2340  -23.6030 O   0  0  0  0  0  0  0  0  0  0  0  0
  -18.1090   -1.7070  -24.5750 N   0  0  0  0  0  0  0  0  0  0  0  0
  -18.6370   -2.3480  -25.6380 C   0  0  0  0  0  0  0  0  0  0  0  0
  -18.8540   -3.5840  -25.6480 O   0  0  0  0  0  0  0  0  0  0  0  0
  -17.9500    1.8190  -25.7130 C   0  0  0  0  0  0  0  0  0  0  0  0
  -16.6690    0.8740  -33.0420 H   0  0  0  0  0  0  0  0  0  0  0  0
  -21.1690   -0.1450  -35.8150 H   0  0  0  0  0  0  0  0  0  0  0  0
  -20.3120    1.4050  -35.8440 H   0  0  0  0  0  0  0  0  0  0  0  0
  -19.6620   -0.0510  -36.7830 H   0  0  0  0  0  0  0  0  0  0  0  0
  -18.3160   -2.5530  -30.3450 H   0  0  0  0  0  0  0  0  0  0  0  0
  -18.8600   -4.1000  -31.1210 H   0  0  0  0  0  0  0  0  0  0  0  0
  -20.9310   -4.1640  -30.0970 H   0  0  0  0  0  0  0  0  0  0  0  0
  -21.0140   -2.3990  -29.9210 H   0  0  0  0  0  0  0  0  0  0  0  0
  -20.7910   -3.5730  -27.7580 H   0  0  0  0  0  0  0  0  0  0  0  0
  -19.0890   -4.0420  -28.2100 H   0  0  0  0  0  0  0  0  0  0  0  0
  -17.8600   -2.2320  -23.7140 H   0  0  0  0  0  0  0  0  0  0  0  0
  -17.1710    2.0820  -26.4590 H   0  0  0  0  0  0  0  0  0  0  0  0
  -18.8690    2.3760  -25.9770 H   0  0  0  0  0  0  0  0  0  0  0  0
  -17.5640    2.0970  -24.7200 H   0  0  0  0  0  0  0  0  0  0  0  0
  2  1  1  0  0  0  0
  2  3  1  0  0  0  0
  3 14  1  0  0  0  0
  4 11  1  0  0  0  0
  4  3  1  0  0  0  0
  5  4  2  0  0  0  0
  6  5  1  0  0  0  0
  6  2  2  0  0  0  0
  7  8  1  0  0  0  0
  7  5  1  0  0  0  0
  8 10  1  0  0  0  0
  9  8  2  0  0  0  0
 10 30  1  0  0  0  0
 10 11  1  0  0  0  0
 11 12  2  0  0  0  0
 13 32  1  0  0  0  0
 13 31  1  0  0  0  0
 13  7  1  0  0  0  0
 14 34  1  0  0  0  0
 14 15  1  0  0  0  0
 15 16  1  0  0  0  0
 16 39  1  0  0  0  0
 16 17  1  0  0  0  0
 16 38  1  0  0  0  0
 17 18  1  0  0  0  0
 18 19  2  0  0  0  0
 18 27  1  0  0  0  0
 19 23  1  0  0  0  0
 20 19  1  0  0  0  0
 21 17  1  0  0  0  0
 21 20  2  0  0  0  0
 22 21  1  0  0  0  0
 23 24  1  0  0  0  0
 24 26  1  0  0  0  0
 24 25  2  0  0  0  0
 26 40  1  0  0  0  0
 27 26  1  0  0  0  0
 28 27  2  0  0  0  0
 29 23  1  0  0  0  0
 29 43  1  0  0  0  0
 33 13  1  0  0  0  0
 35 14  1  0  0  0  0
 36 15  1  0  0  0  0
 37 15  1  0  0  0  0
 41 29  1  0  0  0  0
 42 29  1  0  0  0  0
M  END
>  <Pose>
1

>  <Score>
-8.10

$$$$
