
 OpenBabel03222201593D

 43 46  0  0  0  0  0  0  0  0999 V2000
  -18.1610    0.1520  -33.6880 B   0  0  0  0  0  0  0  0  0  0  0  0
  -19.9500    0.3420  -34.3130 C   0  0  0  0  0  0  0  0  0  0  0  0
  -20.9970    0.6370  -33.4830 N   0  0  0  0  0  0  0  0  0  0  0  0
  -22.0720    0.6860  -34.2950 C   0  0  0  0  0  0  0  0  0  0  0  0
  -21.7130    0.4260  -35.6080 C   0  0  0  0  0  0  0  0  0  0  0  0
  -20.3790    0.2170  -35.5770 N   0  0  0  0  0  0  0  0  0  0  0  0
  -22.5750    0.4120  -36.6390 N   0  0  0  0  0  0  0  0  0  0  0  0
  -23.8630    0.6720  -36.3500 C   0  0  0  0  0  0  0  0  0  0  0  0
  -24.7210    0.6700  -37.2950 O   0  0  0  0  0  0  0  0  0  0  0  0
  -24.2550    0.9310  -35.0890 N   0  0  0  0  0  0  0  0  0  0  0  0
  -23.3840    0.9460  -34.0410 C   0  0  0  0  0  0  0  0  0  0  0  0
  -23.7640    1.1900  -32.8780 O   0  0  0  0  0  0  0  0  0  0  0  0
  -22.1910    0.1380  -38.0070 C   0  0  0  0  0  0  0  0  0  0  0  0
  -20.8860    0.8550  -32.0560 C   0  0  0  0  0  0  0  0  0  0  0  0
  -20.8250   -0.4100  -31.2510 C   0  0  0  0  0  0  0  0  0  0  0  0
  -19.4540   -0.7670  -30.7500 C   0  0  0  0  0  0  0  0  0  0  0  0
  -19.5540   -1.7580  -29.6880 N   0  0  0  0  0  0  0  0  0  0  0  0
  -19.1570   -1.6510  -28.3990 C   0  0  0  0  0  0  0  0  0  0  0  0
  -19.4310   -2.8140  -27.7180 C   0  0  0  0  0  0  0  0  0  0  0  0
  -20.0050   -3.6340  -28.6180 N   0  0  0  0  0  0  0  0  0  0  0  0
  -20.0750   -2.9910  -29.8030 C   0  0  0  0  0  0  0  0  0  0  0  0
  -20.7960   -3.6740  -31.4340 B   0  0  0  0  0  0  0  0  0  0  0  0
  -19.1460   -3.0000  -26.4150 N   0  0  0  0  0  0  0  0  0  0  0  0
  -18.5570   -1.9630  -25.7710 C   0  0  0  0  0  0  0  0  0  0  0  0
  -18.2880   -2.1350  -24.5430 O   0  0  0  0  0  0  0  0  0  0  0  0
  -18.2710   -0.8060  -26.4020 N   0  0  0  0  0  0  0  0  0  0  0  0
  -18.5610   -0.6300  -27.7080 C   0  0  0  0  0  0  0  0  0  0  0  0
  -18.3080    0.4340  -28.3240 O   0  0  0  0  0  0  0  0  0  0  0  0
  -19.4560   -4.2540  -25.7330 C   0  0  0  0  0  0  0  0  0  0  0  0
  -25.2490    1.1350  -34.8480 H   0  0  0  0  0  0  0  0  0  0  0  0
  -21.1860   -0.3300  -38.0620 H   0  0  0  0  0  0  0  0  0  0  0  0
  -22.8940   -0.6450  -38.4110 H   0  0  0  0  0  0  0  0  0  0  0  0
  -22.1800    1.0470  -38.6410 H   0  0  0  0  0  0  0  0  0  0  0  0
  -21.6920    1.5400  -31.7120 H   0  0  0  0  0  0  0  0  0  0  0  0
  -19.8950    1.3700  -31.8930 H   0  0  0  0  0  0  0  0  0  0  0  0
  -21.3000   -1.2630  -31.7830 H   0  0  0  0  0  0  0  0  0  0  0  0
  -21.4630   -0.2590  -30.3280 H   0  0  0  0  0  0  0  0  0  0  0  0
  -18.8970   -1.2930  -31.5820 H   0  0  0  0  0  0  0  0  0  0  0  0
  -18.8950    0.1030  -30.4110 H   0  0  0  0  0  0  0  0  0  0  0  0
  -17.8190   -0.0450  -25.8570 H   0  0  0  0  0  0  0  0  0  0  0  0
  -20.5530   -4.4170  -25.6740 H   0  0  0  0  0  0  0  0  0  0  0  0
  -19.0170   -5.1220  -26.2600 H   0  0  0  0  0  0  0  0  0  0  0  0
  -19.0810   -4.1590  -24.7020 H   0  0  0  0  0  0  0  0  0  0  0  0
  2  1  1  0  0  0  0
  2  3  1  0  0  0  0
  3 14  1  0  0  0  0
  4 11  1  0  0  0  0
  4  3  1  0  0  0  0
  5  6  1  0  0  0  0
  5  4  2  0  0  0  0
  6  2  2  0  0  0  0
  7  8  1  0  0  0  0
  7  5  1  0  0  0  0
  8 10  1  0  0  0  0
  9  8  2  0  0  0  0
 10 30  1  0  0  0  0
 10 11  1  0  0  0  0
 11 12  2  0  0  0  0
 13  7  1  0  0  0  0
 14 35  1  0  0  0  0
 14 34  1  0  0  0  0
 14 15  1  0  0  0  0
 15 16  1  0  0  0  0
 15 37  1  0  0  0  0
 16 39  1  0  0  0  0
 16 17  1  0  0  0  0
 17 18  1  0  0  0  0
 18 19  2  0  0  0  0
 18 27  1  0  0  0  0
 19 23  1  0  0  0  0
 20 19  1  0  0  0  0
 21 17  1  0  0  0  0
 21 20  2  0  0  0  0
 22 21  1  0  0  0  0
 23 24  1  0  0  0  0
 23 29  1  0  0  0  0
 24 25  2  0  0  0  0
 26 40  1  0  0  0  0
 26 24  1  0  0  0  0
 27 26  1  0  0  0  0
 28 27  2  0  0  0  0
 29 41  1  0  0  0  0
 29 43  1  0  0  0  0
 31 13  1  0  0  0  0
 32 13  1  0  0  0  0
 33 13  1  0  0  0  0
 36 15  1  0  0  0  0
 38 16  1  0  0  0  0
 42 29  1  0  0  0  0
M  END
>  <Pose>
1

>  <Score>
-7.83

$$$$
