
 OpenBabel03222201593D

 49 52  0  0  0  0  0  0  0  0999 V2000
  -14.4690    4.1200  -23.3080 B   0  0  0  0  0  0  0  0  0  0  0  0
  -16.0910    3.9180  -24.3230 C   0  0  0  0  0  0  0  0  0  0  0  0
  -16.2390    3.7720  -25.6060 O   0  0  0  0  0  0  0  0  0  0  0  0
  -17.4780    3.6630  -25.9520 C   0  0  0  0  0  0  0  0  0  0  0  0
  -18.2580    3.7400  -24.7920 C   0  0  0  0  0  0  0  0  0  0  0  0
  -17.3500    3.9040  -23.7670 C   0  0  0  0  0  0  0  0  0  0  0  0
  -17.9900    3.4900  -27.2880 C   0  0  0  0  0  0  0  0  0  0  0  0
  -17.3310    3.9660  -28.2600 O   0  0  0  0  0  0  0  0  0  0  0  0
  -19.2020    2.8100  -27.5830 N   0  0  0  0  0  0  0  0  0  0  0  0
  -19.2630    1.7000  -28.4810 C   0  0  0  0  0  0  0  0  0  0  0  0
  -19.0490    0.3770  -27.8120 C   0  0  0  0  0  0  0  0  0  0  0  0
  -19.4650   -0.7650  -28.6410 C   0  0  0  0  0  0  0  0  0  0  0  0
  -19.7850   -1.8340  -28.0220 O   0  0  0  0  0  0  0  0  0  0  0  0
  -19.5170   -0.7150  -30.0610 N   0  0  0  0  0  0  0  0  0  0  0  0
  -18.2970   -0.7630  -30.8180 C   0  0  0  0  0  0  0  0  0  0  0  0
  -18.4250   -1.4570  -32.1400 C   0  0  0  0  0  0  0  0  0  0  0  0
  -19.8230   -1.4570  -32.6850 C   0  0  0  0  0  0  0  0  0  0  0  0
  -19.8110   -1.4860  -34.1160 N   0  0  0  0  0  0  0  0  0  0  0  0
  -21.1000   -1.4440  -34.7180 C   0  0  0  0  0  0  0  0  0  0  0  0
  -22.1300   -2.3230  -34.0890 C   0  0  0  0  0  0  0  0  0  0  0  0
  -21.6130   -3.0900  -32.9270 C   0  0  0  0  0  0  0  0  0  0  0  0
  -22.0410   -4.2090  -32.3420 N   0  0  0  0  0  0  0  0  0  0  0  0
  -21.2330   -4.5110  -31.3160 C   0  0  0  0  0  0  0  0  0  0  0  0
  -20.2720   -3.5800  -31.2340 N   0  0  0  0  0  0  0  0  0  0  0  0
  -20.5000   -2.7030  -32.2200 C   0  0  0  0  0  0  0  0  0  0  0  0
  -20.6050   -0.2810  -32.1220 C   0  0  0  0  0  0  0  0  0  0  0  0
  -20.8420   -0.6160  -30.6640 C   0  0  0  0  0  0  0  0  0  0  0  0
  -19.3210    3.6870  -24.7190 H   0  0  0  0  0  0  0  0  0  0  0  0
  -17.5660    4.0060  -22.6940 H   0  0  0  0  0  0  0  0  0  0  0  0
  -20.0700    3.1430  -27.1200 H   0  0  0  0  0  0  0  0  0  0  0  0
  -20.1930    1.6890  -29.0800 H   0  0  0  0  0  0  0  0  0  0  0  0
  -18.4370    1.8540  -29.2370 H   0  0  0  0  0  0  0  0  0  0  0  0
  -17.9400    0.2710  -27.6460 H   0  0  0  0  0  0  0  0  0  0  0  0
  -19.5030    0.3870  -26.8020 H   0  0  0  0  0  0  0  0  0  0  0  0
  -17.5160   -1.2280  -30.1830 H   0  0  0  0  0  0  0  0  0  0  0  0
  -17.9770    0.2840  -31.0060 H   0  0  0  0  0  0  0  0  0  0  0  0
  -18.1140   -2.5130  -32.0030 H   0  0  0  0  0  0  0  0  0  0  0  0
  -17.7440   -1.0370  -32.9120 H   0  0  0  0  0  0  0  0  0  0  0  0
  -19.2560   -0.6690  -34.4520 H   0  0  0  0  0  0  0  0  0  0  0  0
  -20.9780   -1.7990  -35.7830 H   0  0  0  0  0  0  0  0  0  0  0  0
  -21.4820   -0.4000  -34.8180 H   0  0  0  0  0  0  0  0  0  0  0  0
  -22.9900   -1.6920  -33.7360 H   0  0  0  0  0  0  0  0  0  0  0  0
  -22.5770   -3.0540  -34.7930 H   0  0  0  0  0  0  0  0  0  0  0  0
  -21.2890   -5.3540  -30.6270 H   0  0  0  0  0  0  0  0  0  0  0  0
  -19.4760   -3.5410  -30.5200 H   0  0  0  0  0  0  0  0  0  0  0  0
  -21.5410   -0.1010  -32.6720 H   0  0  0  0  0  0  0  0  0  0  0  0
  -19.9660    0.6490  -32.1150 H   0  0  0  0  0  0  0  0  0  0  0  0
  -21.3450   -1.5830  -30.5210 H   0  0  0  0  0  0  0  0  0  0  0  0
  -21.4080    0.2360  -30.2380 H   0  0  0  0  0  0  0  0  0  0  0  0
  2  6  2  0  0  0  0
  2  1  1  0  0  0  0
  3  2  1  0  0  0  0
  4  3  1  0  0  0  0
  4  5  2  0  0  0  0
  5 28  1  0  0  0  0
  5  6  1  0  0  0  0
  6 29  1  0  0  0  0
  7  4  1  0  0  0  0
  8  7  2  0  0  0  0
  9  7  1  0  0  0  0
  9 30  1  0  0  0  0
 10 11  1  0  0  0  0
 10  9  1  0  0  0  0
 11 33  1  0  0  0  0
 11 34  1  0  0  0  0
 12 13  2  0  0  0  0
 12 11  1  0  0  0  0
 14 12  1  0  0  0  0
 15 35  1  0  0  0  0
 15 14  1  0  0  0  0
 16 37  1  0  0  0  0
 16 15  1  0  0  0  0
 17 25  1  0  0  0  0
 17 16  1  0  0  0  0
 17 26  1  0  0  0  0
 18 17  1  0  0  0  0
 19 18  1  0  0  0  0
 19 20  1  0  0  0  0
 20 42  1  0  0  0  0
 20 21  1  0  0  0  0
 21 22  1  0  0  0  0
 21 25  2  0  0  0  0
 22 23  2  0  0  0  0
 23 24  1  0  0  0  0
 23 44  1  0  0  0  0
 24 45  1  0  0  0  0
 25 24  1  0  0  0  0
 26 47  1  0  0  0  0
 26 27  1  0  0  0  0
 27 48  1  0  0  0  0
 27 49  1  0  0  0  0
 27 14  1  0  0  0  0
 31 10  1  0  0  0  0
 32 10  1  0  0  0  0
 36 15  1  0  0  0  0
 38 16  1  0  0  0  0
 39 18  1  0  0  0  0
 40 19  1  0  0  0  0
 41 19  1  0  0  0  0
 43 20  1  0  0  0  0
 46 26  1  0  0  0  0
M  END
>  <Pose>
1

>  <Score>
-6.59

$$$$
