
 OpenBabel03222201593D

 43 46  0  0  0  0  0  0  0  0999 V2000
  -18.7530    0.8730  -36.2310 B   0  0  0  0  0  0  0  0  0  0  0  0
  -20.4100    0.1090  -35.7610 C   0  0  0  0  0  0  0  0  0  0  0  0
  -20.4880   -1.0590  -34.9960 C   0  0  0  0  0  0  0  0  0  0  0  0
  -21.7160   -1.5750  -34.6800 C   0  0  0  0  0  0  0  0  0  0  0  0
  -22.8350   -0.8850  -35.1550 C   0  0  0  0  0  0  0  0  0  0  0  0
  -22.7120    0.1940  -35.8600 O   0  0  0  0  0  0  0  0  0  0  0  0
  -21.5750    0.7070  -36.1750 C   0  0  0  0  0  0  0  0  0  0  0  0
  -21.5590    1.7590  -36.8660 O   0  0  0  0  0  0  0  0  0  0  0  0
  -21.9020   -2.7800  -33.8940 C   0  0  0  0  0  0  0  0  0  0  0  0
  -22.4360   -3.7570  -34.6030 O   0  0  0  0  0  0  0  0  0  0  0  0
  -21.6280   -3.0840  -32.5690 N   0  0  0  0  0  0  0  0  0  0  0  0
  -22.4630   -4.1000  -31.8790 C   0  0  0  0  0  0  0  0  0  0  0  0
  -21.5590   -5.1800  -31.3340 C   0  0  0  0  0  0  0  0  0  0  0  0
  -20.6070   -4.6100  -30.4660 N   0  0  0  0  0  0  0  0  0  0  0  0
  -20.7430   -3.1970  -30.3680 C   0  0  0  0  0  0  0  0  0  0  0  0
  -20.6130   -2.5300  -31.7580 C   0  0  0  0  0  0  0  0  0  0  0  0
  -20.4580   -5.2350  -29.1910 C   0  0  0  0  0  0  0  0  0  0  0  0
  -19.9860   -4.3590  -28.1030 C   0  0  0  0  0  0  0  0  0  0  0  0
  -19.7190   -3.0360  -28.2340 C   0  0  0  0  0  0  0  0  0  0  0  0
  -19.2790   -2.3020  -27.1600 C   0  0  0  0  0  0  0  0  0  0  0  0
  -19.1080   -2.9130  -25.9480 C   0  0  0  0  0  0  0  0  0  0  0  0
  -19.3730   -4.2550  -25.7910 C   0  0  0  0  0  0  0  0  0  0  0  0
  -19.8070   -4.9560  -26.8680 C   0  0  0  0  0  0  0  0  0  0  0  0
  -18.6610   -1.9870  -25.0210 O   0  0  0  0  0  0  0  0  0  0  0  0
  -18.2040   -0.8690  -25.7690 C   0  0  0  0  0  0  0  0  0  0  0  0
  -18.9280   -0.9550  -26.9820 O   0  0  0  0  0  0  0  0  0  0  0  0
  -19.5600   -1.4860  -34.6980 H   0  0  0  0  0  0  0  0  0  0  0  0
  -23.8620   -1.2500  -34.9340 H   0  0  0  0  0  0  0  0  0  0  0  0
  -23.1620   -4.5270  -32.6360 H   0  0  0  0  0  0  0  0  0  0  0  0
  -23.0250   -3.6320  -31.0740 H   0  0  0  0  0  0  0  0  0  0  0  0
  -22.2100   -5.9340  -30.7910 H   0  0  0  0  0  0  0  0  0  0  0  0
  -21.1230   -5.7940  -32.1660 H   0  0  0  0  0  0  0  0  0  0  0  0
  -21.6510   -2.8050  -29.9200 H   0  0  0  0  0  0  0  0  0  0  0  0
  -19.8680   -2.8380  -29.7560 H   0  0  0  0  0  0  0  0  0  0  0  0
  -19.5730   -2.6810  -32.0820 H   0  0  0  0  0  0  0  0  0  0  0  0
  -20.7630   -1.4230  -31.6140 H   0  0  0  0  0  0  0  0  0  0  0  0
  -21.4880   -5.5870  -28.8820 H   0  0  0  0  0  0  0  0  0  0  0  0
  -19.8430   -6.1500  -29.2090 H   0  0  0  0  0  0  0  0  0  0  0  0
  -19.8500   -2.5350  -29.1750 H   0  0  0  0  0  0  0  0  0  0  0  0
  -19.2340   -4.7270  -24.8320 H   0  0  0  0  0  0  0  0  0  0  0  0
  -20.0120   -6.0140  -26.7280 H   0  0  0  0  0  0  0  0  0  0  0  0
  -17.1240   -0.8590  -25.9100 H   0  0  0  0  0  0  0  0  0  0  0  0
  -18.5050    0.0880  -25.2920 H   0  0  0  0  0  0  0  0  0  0  0  0
  1  2  1  0  0  0  0
  2  3  2  0  0  0  0
  3 27  1  0  0  0  0
  3  4  1  0  0  0  0
  4  9  1  0  0  0  0
  5 28  1  0  0  0  0
  5  4  2  0  0  0  0
  6  5  1  0  0  0  0
  7  6  1  0  0  0  0
  7  2  1  0  0  0  0
  8  7  2  0  0  0  0
  9 11  1  0  0  0  0
 10  9  2  0  0  0  0
 11 12  1  0  0  0  0
 11 16  1  0  0  0  0
 12 13  1  0  0  0  0
 12 30  1  0  0  0  0
 13 31  1  0  0  0  0
 13 14  1  0  0  0  0
 14 15  1  0  0  0  0
 14 17  1  0  0  0  0
 15 33  1  0  0  0  0
 15 34  1  0  0  0  0
 16 36  1  0  0  0  0
 16 15  1  0  0  0  0
 17 37  1  0  0  0  0
 17 18  1  0  0  0  0
 18 23  1  0  0  0  0
 19 18  2  0  0  0  0
 19 20  1  0  0  0  0
 20 26  1  0  0  0  0
 20 21  2  0  0  0  0
 21 22  1  0  0  0  0
 21 24  1  0  0  0  0
 22 40  1  0  0  0  0
 23 41  1  0  0  0  0
 23 22  2  0  0  0  0
 25 43  1  0  0  0  0
 25 24  1  0  0  0  0
 26 25  1  0  0  0  0
 29 12  1  0  0  0  0
 32 13  1  0  0  0  0
 35 16  1  0  0  0  0
 38 17  1  0  0  0  0
 39 19  1  0  0  0  0
 42 25  1  0  0  0  0
M  END
>  <Pose>
1

>  <Score>
-5.98

$$$$
