
 OpenBabel03222201593D

 41 44  0  0  1  0  0  0  0  0999 V2000
  -19.5460   -3.0480  -26.9130 B   0  0  0  0  0  0  0  0  0  0  0  0
  -19.9650   -3.0610  -28.7820 C   0  0  0  0  0  0  0  0  0  0  0  0
  -19.4930   -2.0970  -29.6450 C   0  0  0  0  0  0  0  0  0  0  0  0
  -19.7890   -2.1040  -30.9760 N   0  0  0  0  0  0  0  0  0  0  0  0
  -20.5690   -3.0880  -31.4570 C   0  0  0  0  0  0  0  0  0  0  0  0
  -20.7270   -2.8970  -32.7790 N   0  0  0  0  0  0  0  0  0  0  0  0
  -20.0530   -1.7950  -33.1560 C   0  0  0  0  0  0  0  0  0  0  0  0
  -19.4660   -1.3040  -32.0090 C   0  0  0  0  0  0  0  0  0  0  0  0
  -19.9550   -1.2140  -34.5190 C   0  0  0  0  0  0  0  0  0  0  0  0
  -21.2650   -0.9600  -35.0750 N   0  0  0  0  0  0  0  0  0  0  0  0
  -21.3840   -0.2190  -36.2610 C   0  0  0  0  0  0  0  0  0  0  0  0
  -20.3970   -0.0800  -37.0130 O   0  0  0  0  0  0  0  0  0  0  0  0
  -22.6700    0.4020  -36.6310 C   0  0  1  0  0  0  0  0  0  0  0  0
  -22.8900    0.3160  -38.1210 C   0  0  0  0  0  0  0  0  0  0  0  0
  -22.9040   -1.0930  -38.4650 N   0  0  0  0  0  0  0  0  0  0  0  0
  -23.4520   -1.9860  -37.6240 C   0  0  0  0  0  0  0  0  0  0  0  0
  -23.3210   -3.1980  -38.2020 N   0  0  0  0  0  0  0  0  0  0  0  0
  -22.7200   -3.0700  -39.3480 N   0  0  0  0  0  0  0  0  0  0  0  0
  -22.4560   -1.7690  -39.5230 C   0  0  0  0  0  0  0  0  0  0  0  0
  -21.7640   -1.2440  -40.7410 C   0  0  0  0  0  0  0  0  0  0  0  0
  -24.0670   -1.6520  -36.3310 C   0  0  0  0  0  0  0  0  0  0  0  0
  -23.7880   -0.2640  -35.8720 C   0  0  0  0  0  0  0  0  0  0  0  0
  -21.0620   -4.0780  -30.6120 C   0  0  0  0  0  0  0  0  0  0  0  0
  -20.7650   -4.0720  -29.2720 C   0  0  0  0  0  0  0  0  0  0  0  0
  -18.8750   -1.3190  -29.2540 H   0  0  0  0  0  0  0  0  0  0  0  0
  -18.8400   -0.4330  -31.8770 H   0  0  0  0  0  0  0  0  0  0  0  0
  -19.3290   -0.2900  -34.4760 H   0  0  0  0  0  0  0  0  0  0  0  0
  -19.4000   -1.9280  -35.1880 H   0  0  0  0  0  0  0  0  0  0  0  0
  -22.1220   -1.3180  -34.6110 H   0  0  0  0  0  0  0  0  0  0  0  0
  -22.6470    1.4640  -36.2920 H   0  0  0  0  0  0  0  0  0  0  0  0
  -23.8820    0.7680  -38.3600 H   0  0  0  0  0  0  0  0  0  0  0  0
  -22.0780    0.8710  -38.6310 H   0  0  0  0  0  0  0  0  0  0  0  0
  -21.3470   -0.2530  -40.5370 H   0  0  0  0  0  0  0  0  0  0  0  0
  -20.9130   -1.9200  -41.0250 H   0  0  0  0  0  0  0  0  0  0  0  0
  -22.4850   -1.2470  -41.5830 H   0  0  0  0  0  0  0  0  0  0  0  0
  -25.1840   -1.7660  -36.4020 H   0  0  0  0  0  0  0  0  0  0  0  0
  -23.7430   -2.4120  -35.5900 H   0  0  0  0  0  0  0  0  0  0  0  0
  -23.4860   -0.2870  -34.7900 H   0  0  0  0  0  0  0  0  0  0  0  0
  -24.6850    0.3900  -35.9310 H   0  0  0  0  0  0  0  0  0  0  0  0
  -21.6830   -4.8410  -31.0610 H   0  0  0  0  0  0  0  0  0  0  0  0
  -21.1730   -4.8640  -28.6510 H   0  0  0  0  0  0  0  0  0  0  0  0
  2  1  1  0  0  0  0
  3 25  1  0  0  0  0
  3  2  2  0  0  0  0
  4  3  1  0  0  0  0
  5  4  1  0  0  0  0
  5 23  1  0  0  0  0
  6  5  2  0  0  0  0
  7  6  1  0  0  0  0
  7  8  2  0  0  0  0
  8 26  1  0  0  0  0
  8  4  1  0  0  0  0
  9 27  1  0  0  0  0
  9  7  1  0  0  0  0
 10 29  1  0  0  0  0
 10  9  1  0  0  0  0
 11 10  1  0  0  0  0
 12 11  2  0  0  0  0
 13 30  1  1  0  0  0
 13 11  1  0  0  0  0
 13 22  1  0  0  0  0
 14 13  1  0  0  0  0
 15 14  1  0  0  0  0
 15 16  1  0  0  0  0
 16 21  1  0  0  0  0
 17 16  2  0  0  0  0
 18 17  1  0  0  0  0
 19 18  2  0  0  0  0
 19 15  1  0  0  0  0
 20 33  1  0  0  0  0
 20 19  1  0  0  0  0
 21 22  1  0  0  0  0
 21 37  1  0  0  0  0
 22 38  1  0  0  0  0
 23 24  2  0  0  0  0
 24  2  1  0  0  0  0
 24 41  1  0  0  0  0
 28  9  1  0  0  0  0
 31 14  1  0  0  0  0
 32 14  1  0  0  0  0
 34 20  1  0  0  0  0
 35 20  1  0  0  0  0
 36 21  1  0  0  0  0
 39 22  1  0  0  0  0
 40 23  1  0  0  0  0
M  END
>  <Pose>
1

>  <Score>
-5.65

$$$$
