
 OpenBabel03222201593D

 39 42  0  0  0  0  0  0  0  0999 V2000
  -19.3210   -2.7700  -26.0420 B   0  0  0  0  0  0  0  0  0  0  0  0
  -19.7280   -2.8120  -27.9020 C   0  0  0  0  0  0  0  0  0  0  0  0
  -20.2870   -3.9140  -28.4680 C   0  0  0  0  0  0  0  0  0  0  0  0
  -20.5730   -3.9490  -29.7640 N   0  0  0  0  0  0  0  0  0  0  0  0
  -21.1130   -4.9000  -30.5280 N   0  0  0  0  0  0  0  0  0  0  0  0
  -21.1900   -4.4320  -31.7850 C   0  0  0  0  0  0  0  0  0  0  0  0
  -20.6860   -3.1530  -31.8250 C   0  0  0  0  0  0  0  0  0  0  0  0
  -20.3000   -2.8710  -30.5190 C   0  0  0  0  0  0  0  0  0  0  0  0
  -19.7480   -1.7750  -29.9750 N   0  0  0  0  0  0  0  0  0  0  0  0
  -19.4530   -1.7170  -28.6750 C   0  0  0  0  0  0  0  0  0  0  0  0
  -20.5630   -2.2570  -32.9480 C   0  0  0  0  0  0  0  0  0  0  0  0
  -19.4240   -2.1270  -33.4810 O   0  0  0  0  0  0  0  0  0  0  0  0
  -21.6850   -1.5440  -33.4440 N   0  0  0  0  0  0  0  0  0  0  0  0
  -21.6320   -0.0750  -33.3860 C   0  0  0  0  0  0  0  0  0  0  0  0
  -22.5630    0.3720  -34.5130 C   0  0  0  0  0  0  0  0  0  0  0  0
  -22.3450   -0.5490  -35.5880 N   0  0  0  0  0  0  0  0  0  0  0  0
  -23.1440   -1.8000  -35.4320 C   0  0  0  0  0  0  0  0  0  0  0  0
  -22.8500   -2.2240  -33.9910 C   0  0  0  0  0  0  0  0  0  0  0  0
  -21.4880   -0.4290  -36.6700 C   0  0  0  0  0  0  0  0  0  0  0  0
  -20.2640   -0.0700  -36.4170 O   0  0  0  0  0  0  0  0  0  0  0  0
  -21.7410   -0.6430  -38.0850 C   0  0  0  0  0  0  0  0  0  0  0  0
  -20.8410   -0.4390  -39.0570 O   0  0  0  0  0  0  0  0  0  0  0  0
  -21.3210   -0.7020  -40.2240 C   0  0  0  0  0  0  0  0  0  0  0  0
  -22.6240   -1.1140  -40.0990 C   0  0  0  0  0  0  0  0  0  0  0  0
  -22.8730   -1.0700  -38.7370 C   0  0  0  0  0  0  0  0  0  0  0  0
  -20.5080   -4.7900  -27.8510 H   0  0  0  0  0  0  0  0  0  0  0  0
  -21.5910   -5.0000  -32.6160 H   0  0  0  0  0  0  0  0  0  0  0  0
  -19.0080   -0.8500  -28.2070 H   0  0  0  0  0  0  0  0  0  0  0  0
  -20.6270    0.2600  -33.6520 H   0  0  0  0  0  0  0  0  0  0  0  0
  -22.0140    0.2680  -32.4220 H   0  0  0  0  0  0  0  0  0  0  0  0
  -22.5560    1.4230  -34.7310 H   0  0  0  0  0  0  0  0  0  0  0  0
  -23.6260    0.1990  -34.0960 H   0  0  0  0  0  0  0  0  0  0  0  0
  -22.8400   -2.5520  -36.1650 H   0  0  0  0  0  0  0  0  0  0  0  0
  -24.1960   -1.4680  -35.5500 H   0  0  0  0  0  0  0  0  0  0  0  0
  -23.7200   -2.0510  -33.3380 H   0  0  0  0  0  0  0  0  0  0  0  0
  -22.6130   -3.3030  -34.0200 H   0  0  0  0  0  0  0  0  0  0  0  0
  -20.8000   -0.6200  -41.1910 H   0  0  0  0  0  0  0  0  0  0  0  0
  -23.3240   -1.4130  -40.8840 H   0  0  0  0  0  0  0  0  0  0  0  0
  -23.8350   -1.3310  -38.3190 H   0  0  0  0  0  0  0  0  0  0  0  0
  2  1  1  0  0  0  0
  3  2  2  0  0  0  0
  3 26  1  0  0  0  0
  4  3  1  0  0  0  0
  5  4  1  0  0  0  0
  6  5  2  0  0  0  0
  7  6  1  0  0  0  0
  7  8  2  0  0  0  0
  8  9  1  0  0  0  0
  8  4  1  0  0  0  0
  9 10  2  0  0  0  0
 10 28  1  0  0  0  0
 10  2  1  0  0  0  0
 11  7  1  0  0  0  0
 12 11  2  0  0  0  0
 13 14  1  0  0  0  0
 13 11  1  0  0  0  0
 14 30  1  0  0  0  0
 15 32  1  0  0  0  0
 15 14  1  0  0  0  0
 16 17  1  0  0  0  0
 16 15  1  0  0  0  0
 17 18  1  0  0  0  0
 18 13  1  0  0  0  0
 18 35  1  0  0  0  0
 19 20  2  0  0  0  0
 19 16  1  0  0  0  0
 21 19  1  0  0  0  0
 22 21  1  0  0  0  0
 23 24  2  0  0  0  0
 23 22  1  0  0  0  0
 24 25  1  0  0  0  0
 25 39  1  0  0  0  0
 25 21  2  0  0  0  0
 27  6  1  0  0  0  0
 29 14  1  0  0  0  0
 31 15  1  0  0  0  0
 33 17  1  0  0  0  0
 34 17  1  0  0  0  0
 36 18  1  0  0  0  0
 37 23  1  0  0  0  0
 38 24  1  0  0  0  0
M  END
>  <Pose>
1

>  <Score>
-5.98

$$$$
