
 OpenBabel03222201593D

 40 43  0  0  0  0  0  0  0  0999 V2000
  -22.8710   -0.5430  -37.8630 B   0  0  0  0  0  0  0  0  0  0  0  0
  -22.2900   -1.0770  -36.1150 C   0  0  0  0  0  0  0  0  0  0  0  0
  -21.1140   -0.6090  -35.5700 C   0  0  0  0  0  0  0  0  0  0  0  0
  -20.6720   -0.9620  -34.3440 N   0  0  0  0  0  0  0  0  0  0  0  0
  -21.3650   -1.8100  -33.5640 C   0  0  0  0  0  0  0  0  0  0  0  0
  -20.9390   -2.1730  -32.3420 N   0  0  0  0  0  0  0  0  0  0  0  0
  -19.7860   -1.7150  -31.8000 C   0  0  0  0  0  0  0  0  0  0  0  0
  -19.0580   -0.8440  -32.5830 C   0  0  0  0  0  0  0  0  0  0  0  0
  -19.5140   -0.4790  -33.8460 C   0  0  0  0  0  0  0  0  0  0  0  0
  -18.8670    0.3040  -34.5580 O   0  0  0  0  0  0  0  0  0  0  0  0
  -19.3420   -2.1300  -30.4440 C   0  0  0  0  0  0  0  0  0  0  0  0
  -20.1010   -1.5670  -29.4060 O   0  0  0  0  0  0  0  0  0  0  0  0
  -20.0130   -1.9090  -28.0730 C   0  0  0  0  0  0  0  0  0  0  0  0
  -21.0560   -2.0820  -27.4110 O   0  0  0  0  0  0  0  0  0  0  0  0
  -18.6710   -2.0630  -27.4660 C   0  0  0  0  0  0  0  0  0  0  0  0
  -18.3430   -0.9320  -26.6460 N   0  0  0  0  0  0  0  0  0  0  0  0
  -18.2370   -0.9250  -25.2400 C   0  0  0  0  0  0  0  0  0  0  0  0
  -18.4010   -1.8670  -24.4220 O   0  0  0  0  0  0  0  0  0  0  0  0
  -17.8810    0.4450  -24.8110 C   0  0  0  0  0  0  0  0  0  0  0  0
  -17.7810    1.2180  -25.9350 C   0  0  0  0  0  0  0  0  0  0  0  0
  -17.4610    2.5430  -25.8670 C   0  0  0  0  0  0  0  0  0  0  0  0
  -17.2390    3.1020  -24.6320 C   0  0  0  0  0  0  0  0  0  0  0  0
  -17.3400    2.3220  -23.4960 C   0  0  0  0  0  0  0  0  0  0  0  0
  -17.6610    0.9830  -23.5540 C   0  0  0  0  0  0  0  0  0  0  0  0
  -18.0660    0.3740  -27.0980 C   0  0  0  0  0  0  0  0  0  0  0  0
  -18.0570    0.7830  -28.2990 O   0  0  0  0  0  0  0  0  0  0  0  0
  -22.5620   -2.3020  -34.0910 C   0  0  0  0  0  0  0  0  0  0  0  0
  -23.0230   -1.9490  -35.3400 C   0  0  0  0  0  0  0  0  0  0  0  0
  -20.5310    0.0820  -36.1820 H   0  0  0  0  0  0  0  0  0  0  0  0
  -18.1150   -0.4310  -32.2070 H   0  0  0  0  0  0  0  0  0  0  0  0
  -19.3700   -3.2310  -30.3310 H   0  0  0  0  0  0  0  0  0  0  0  0
  -18.2700   -1.8350  -30.2650 H   0  0  0  0  0  0  0  0  0  0  0  0
  -17.9520   -2.0660  -28.3330 H   0  0  0  0  0  0  0  0  0  0  0  0
  -18.5700   -3.0290  -26.9230 H   0  0  0  0  0  0  0  0  0  0  0  0
  -17.3850    3.1400  -26.7580 H   0  0  0  0  0  0  0  0  0  0  0  0
  -16.9870    4.1500  -24.6020 H   0  0  0  0  0  0  0  0  0  0  0  0
  -17.1540    2.8180  -22.5530 H   0  0  0  0  0  0  0  0  0  0  0  0
  -17.7420    0.3700  -22.6730 H   0  0  0  0  0  0  0  0  0  0  0  0
  -23.1100   -2.9810  -33.4600 H   0  0  0  0  0  0  0  0  0  0  0  0
  -23.9500   -2.3340  -35.7440 H   0  0  0  0  0  0  0  0  0  0  0  0
  1  2  1  0  0  0  0
  2  3  1  0  0  0  0
  2 28  2  0  0  0  0
  3  4  1  0  0  0  0
  4  9  1  0  0  0  0
  4  5  1  0  0  0  0
  5  6  1  0  0  0  0
  6  7  2  0  0  0  0
  7 11  1  0  0  0  0
  8 30  1  0  0  0  0
  8  7  1  0  0  0  0
  9  8  1  0  0  0  0
 10  9  2  0  0  0  0
 11 31  1  0  0  0  0
 11 32  1  0  0  0  0
 11 12  1  0  0  0  0
 12 13  1  0  0  0  0
 13 15  1  0  0  0  0
 13 14  2  0  0  0  0
 15 34  1  0  0  0  0
 15 16  1  0  0  0  0
 16 17  1  0  0  0  0
 17 19  1  0  0  0  0
 17 18  2  0  0  0  0
 19 24  1  0  0  0  0
 20 21  1  0  0  0  0
 20 19  2  0  0  0  0
 21 22  2  0  0  0  0
 22 36  1  0  0  0  0
 22 23  1  0  0  0  0
 23 37  1  0  0  0  0
 24 23  2  0  0  0  0
 24 38  1  0  0  0  0
 25 16  1  0  0  0  0
 25 20  1  0  0  0  0
 26 25  2  0  0  0  0
 27  5  2  0  0  0  0
 27 39  1  0  0  0  0
 28 27  1  0  0  0  0
 29  3  1  0  0  0  0
 33 15  1  0  0  0  0
 35 21  1  0  0  0  0
 40 28  1  0  0  0  0
M  END
>  <Pose>
1

>  <Score>
-6.68

$$$$
