
 OpenBabel03222201593D

 53 56  0  0  1  0  0  0  0  0999 V2000
  -21.3920    5.8390  -35.1280 B   0  0  0  0  0  0  0  0  0  0  0  0
  -20.5150    4.1630  -35.0500 C   0  0  0  0  0  0  0  0  0  0  0  0
  -19.3030    3.9990  -35.6940 C   0  0  0  0  0  0  0  0  0  0  0  0
  -18.6440    2.7890  -35.6430 C   0  0  0  0  0  0  0  0  0  0  0  0
  -19.1810    1.7270  -34.9530 C   0  0  0  0  0  0  0  0  0  0  0  0
  -20.3760    1.8910  -34.3200 C   0  0  0  0  0  0  0  0  0  0  0  0
  -21.0620    3.1120  -34.3580 C   0  0  0  0  0  0  0  0  0  0  0  0
  -18.5110    0.3970  -34.8760 C   0  0  2  0  0  0  0  0  0  0  0  0
  -19.4980   -0.6720  -34.7450 N   0  0  0  0  0  4  0  0  0  0  0  0
  -19.6020   -1.0470  -33.4280 C   0  0  0  0  0  0  0  0  0  0  0  0
  -20.1010   -2.1390  -32.9030 C   0  0  0  0  0  0  0  0  0  0  0  0
  -20.2710   -2.6420  -31.5090 C   0  0  0  0  0  0  0  0  0  0  0  0
  -19.5960   -1.8040  -30.4690 C   0  0  0  0  0  0  0  0  0  0  0  0
  -20.0790   -0.3730  -30.5070 C   0  0  0  0  0  0  0  0  0  0  0  0
  -19.1240    0.4730  -31.3250 C   0  0  0  0  0  0  0  0  0  0  0  0
  -18.9240   -0.0410  -32.6410 N   0  0  0  0  0  0  0  0  0  0  0  0
  -17.8210    0.4530  -33.4760 C   0  0  0  0  0  0  0  0  0  0  0  0
  -20.5370   -0.6490  -35.6380 C   0  0  0  0  0  0  0  0  0  0  0  0
  -21.7640   -1.2060  -35.4450 C   0  0  0  0  0  0  0  0  0  0  0  0
  -22.7290   -1.3030  -36.4620 C   0  0  0  0  0  0  0  0  0  0  0  0
  -22.4710   -0.8290  -37.7210 C   0  0  0  0  0  0  0  0  0  0  0  0
  -21.2240   -0.2570  -37.9250 C   0  0  0  0  0  0  0  0  0  0  0  0
  -20.2800   -0.1650  -36.9260 C   0  0  0  0  0  0  0  0  0  0  0  0
  -23.4050   -0.9250  -38.7390 O   0  0  0  0  0  0  0  0  0  0  0  0
  -23.4390   -1.9340  -39.7160 C   0  0  0  0  0  0  0  0  0  0  0  0
  -22.2840   -1.6110  -40.6840 C   0  0  0  0  0  0  0  0  0  0  0  0
  -17.5570    0.1410  -35.7830 O   0  0  0  0  0  0  0  0  0  0  0  0
  -18.8300    4.7950  -36.2460 H   0  0  0  0  0  0  0  0  0  0  0  0
  -17.6860    2.7180  -36.1660 H   0  0  0  0  0  0  0  0  0  0  0  0
  -20.8050    1.0690  -33.7820 H   0  0  0  0  0  0  0  0  0  0  0  0
  -22.0090    3.2550  -33.8550 H   0  0  0  0  0  0  0  0  0  0  0  0
  -18.8660   -1.5240  -35.1610 H   0  0  0  0  0  0  0  0  0  0  0  0
  -20.4430   -2.8920  -33.6100 H   0  0  0  0  0  0  0  0  0  0  0  0
  -19.8670   -3.6670  -31.4460 H   0  0  0  0  0  0  0  0  0  0  0  0
  -21.3700   -2.6120  -31.2780 H   0  0  0  0  0  0  0  0  0  0  0  0
  -18.5180   -1.9060  -30.4530 H   0  0  0  0  0  0  0  0  0  0  0  0
  -19.9570   -2.2120  -29.4780 H   0  0  0  0  0  0  0  0  0  0  0  0
  -21.1020   -0.3220  -30.8580 H   0  0  0  0  0  0  0  0  0  0  0  0
  -20.0430    0.0510  -29.4570 H   0  0  0  0  0  0  0  0  0  0  0  0
  -19.3690    1.5420  -31.2480 H   0  0  0  0  0  0  0  0  0  0  0  0
  -18.1290    0.3600  -30.7930 H   0  0  0  0  0  0  0  0  0  0  0  0
  -16.9740   -0.2250  -33.4160 H   0  0  0  0  0  0  0  0  0  0  0  0
  -17.6040    1.4790  -33.1980 H   0  0  0  0  0  0  0  0  0  0  0  0
  -22.0800   -1.5770  -34.4900 H   0  0  0  0  0  0  0  0  0  0  0  0
  -23.6720   -1.7650  -36.2350 H   0  0  0  0  0  0  0  0  0  0  0  0
  -20.9420    0.1540  -38.9050 H   0  0  0  0  0  0  0  0  0  0  0  0
  -19.3070    0.2830  -37.1820 H   0  0  0  0  0  0  0  0  0  0  0  0
  -24.4130   -1.8830  -40.3070 H   0  0  0  0  0  0  0  0  0  0  0  0
  -23.3800   -2.9400  -39.2920 H   0  0  0  0  0  0  0  0  0  0  0  0
  -21.5340   -2.3930  -40.4670 H   0  0  0  0  0  0  0  0  0  0  0  0
  -21.8360   -0.6300  -40.4490 H   0  0  0  0  0  0  0  0  0  0  0  0
  -22.6130   -1.5780  -41.7330 H   0  0  0  0  0  0  0  0  0  0  0  0
  -16.7720   -0.3740  -35.5470 H   0  0  0  0  0  0  0  0  0  0  0  0
  1  2  1  0  0  0  0
  2  7  1  0  0  0  0
  3  4  1  0  0  0  0
  3  2  2  0  0  0  0
  4  5  2  0  0  0  0
  5  8  1  0  0  0  0
  5  6  1  0  0  0  0
  6 30  1  0  0  0  0
  7  6  2  0  0  0  0
  7 31  1  0  0  0  0
  8 27  1  6  0  0  0
  8  9  1  0  0  0  0
  8 17  1  0  0  0  0
  9 10  1  0  0  0  0
 10 11  2  0  0  0  0
 10 16  1  0  0  0  0
 11 12  1  0  0  0  0
 12 34  1  0  0  0  0
 12 35  1  0  0  0  0
 12 13  1  0  0  0  0
 13 36  1  0  0  0  0
 13 37  1  0  0  0  0
 14 13  1  0  0  0  0
 14 39  1  0  0  0  0
 15 40  1  0  0  0  0
 15 41  1  0  0  0  0
 15 14  1  0  0  0  0
 16 15  1  0  0  0  0
 17 42  1  0  0  0  0
 17 43  1  0  0  0  0
 17 16  1  0  0  0  0
 18 19  1  0  0  0  0
 18  9  1  0  0  0  0
 19 44  1  0  0  0  0
 20 45  1  0  0  0  0
 20 19  2  0  0  0  0
 21 20  1  0  0  0  0
 22 21  2  0  0  0  0
 22 23  1  0  0  0  0
 23 18  2  0  0  0  0
 24 21  1  0  0  0  0
 25 49  1  0  0  0  0
 25 24  1  0  0  0  0
 26 50  1  0  0  0  0
 26 51  1  0  0  0  0
 26 25  1  0  0  0  0
 27 53  1  0  0  0  0
 28  3  1  0  0  0  0
 29  4  1  0  0  0  0
 32  9  1  0  0  0  0
 33 11  1  0  0  0  0
 38 14  1  0  0  0  0
 46 22  1  0  0  0  0
 47 23  1  0  0  0  0
 48 25  1  0  0  0  0
 52 26  1  0  0  0  0
M  END
>  <Pose>
1

>  <Score>
-5.41

$$$$
