
 OpenBabel03222201593D

 47 50  0  0  1  0  0  0  0  0999 V2000
  -18.6300   -1.9670  -25.5230 B   0  0  0  0  0  0  0  0  0  0  0  0
  -18.8930   -1.4710  -27.3590 C   0  0  0  0  0  0  0  0  0  0  0  0
  -19.3080   -2.4250  -28.2610 C   0  0  0  0  0  0  0  0  0  0  0  0
  -19.5030   -2.0520  -29.5900 C   0  0  0  0  0  0  0  0  0  0  0  0
  -19.2960   -0.7650  -30.0390 C   0  0  0  0  0  0  0  0  0  0  0  0
  -18.8800    0.1740  -29.1140 C   0  0  0  0  0  0  0  0  0  0  0  0
  -18.6840   -0.1800  -27.7930 C   0  0  0  0  0  0  0  0  0  0  0  0
  -19.5110   -0.4370  -31.4690 C   0  0  2  0  0  0  0  0  0  0  0  0
  -20.6160   -1.1610  -32.0600 N   0  0  0  0  0  0  0  0  0  0  0  0
  -21.8680   -1.7450  -31.6260 C   0  0  0  0  0  0  0  0  0  0  0  0
  -22.9490   -1.6300  -32.6810 C   0  0  0  0  0  0  0  0  0  0  0  0
  -22.4660   -2.3020  -33.9220 C   0  0  0  0  0  0  0  0  0  0  0  0
  -21.1240   -1.8230  -34.3150 C   0  0  0  0  0  0  0  0  0  0  0  0
  -20.2690   -1.2910  -33.4370 C   0  0  0  0  0  0  0  0  0  0  0  0
  -18.9610   -0.8230  -33.6780 N   0  0  0  0  0  4  0  0  0  0  0  0
  -18.3570   -0.8640  -32.3300 C   0  0  0  0  0  0  0  0  0  0  0  0
  -18.8320    0.4380  -34.2490 C   0  0  0  0  0  0  0  0  0  0  0  0
  -19.1510    0.7190  -35.5550 C   0  0  0  0  0  0  0  0  0  0  0  0
  -18.9780    2.0060  -36.0680 C   0  0  0  0  0  0  0  0  0  0  0  0
  -18.4880    3.0170  -35.2830 C   0  0  0  0  0  0  0  0  0  0  0  0
  -18.1670    2.7450  -33.9710 C   0  0  0  0  0  0  0  0  0  0  0  0
  -18.3400    1.4790  -33.4720 C   0  0  0  0  0  0  0  0  0  0  0  0
  -19.6520   -0.2370  -36.4150 O   0  0  0  0  0  0  0  0  0  0  0  0
  -19.6100   -0.0620  -37.7920 C   0  0  0  0  0  0  0  0  0  0  0  0
  -19.6490    0.9420  -31.5850 O   0  0  0  0  0  0  0  0  0  0  0  0
  -19.5010   -3.4710  -27.9800 H   0  0  0  0  0  0  0  0  0  0  0  0
  -19.8330   -2.7900  -30.3350 H   0  0  0  0  0  0  0  0  0  0  0  0
  -18.7140    1.1990  -29.4740 H   0  0  0  0  0  0  0  0  0  0  0  0
  -18.3590    0.5640  -27.0750 H   0  0  0  0  0  0  0  0  0  0  0  0
  -21.6940   -2.8520  -31.4970 H   0  0  0  0  0  0  0  0  0  0  0  0
  -22.2000   -1.3150  -30.6570 H   0  0  0  0  0  0  0  0  0  0  0  0
  -23.3110   -0.5980  -32.8060 H   0  0  0  0  0  0  0  0  0  0  0  0
  -23.8190   -2.2250  -32.2970 H   0  0  0  0  0  0  0  0  0  0  0  0
  -23.1980   -2.2510  -34.7550 H   0  0  0  0  0  0  0  0  0  0  0  0
  -22.3270   -3.3900  -33.6550 H   0  0  0  0  0  0  0  0  0  0  0  0
  -20.8620   -1.9220  -35.3710 H   0  0  0  0  0  0  0  0  0  0  0  0
  -18.3820   -1.5580  -34.2030 H   0  0  0  0  0  0  0  0  0  0  0  0
  -18.0720   -1.8840  -32.0800 H   0  0  0  0  0  0  0  0  0  0  0  0
  -17.5160   -0.1490  -32.3030 H   0  0  0  0  0  0  0  0  0  0  0  0
  -19.2120    2.2730  -37.0890 H   0  0  0  0  0  0  0  0  0  0  0  0
  -18.3390    4.0480  -35.6430 H   0  0  0  0  0  0  0  0  0  0  0  0
  -17.7870    3.5540  -33.3620 H   0  0  0  0  0  0  0  0  0  0  0  0
  -18.0870    1.2730  -32.4560 H   0  0  0  0  0  0  0  0  0  0  0  0
  -19.9330    0.9420  -38.1590 H   0  0  0  0  0  0  0  0  0  0  0  0
  -20.2960   -0.7850  -38.3440 H   0  0  0  0  0  0  0  0  0  0  0  0
  -18.5790   -0.2580  -38.1830 H   0  0  0  0  0  0  0  0  0  0  0  0
  -18.8640    1.2630  -32.0930 H   0  0  0  0  0  0  0  0  0  0  0  0
  2  1  1  0  0  0  0
  3 26  1  0  0  0  0
  3  2  2  0  0  0  0
  4  3  1  0  0  0  0
  5  4  2  0  0  0  0
  5  6  1  0  0  0  0
  6  7  2  0  0  0  0
  7  2  1  0  0  0  0
  7 29  1  0  0  0  0
  8 25  1  6  0  0  0
  8  5  1  0  0  0  0
  9 10  1  0  0  0  0
  9  8  1  0  0  0  0
 10 30  1  0  0  0  0
 10 31  1  0  0  0  0
 11 33  1  0  0  0  0
 11 10  1  0  0  0  0
 12 35  1  0  0  0  0
 12 11  1  0  0  0  0
 13 12  1  0  0  0  0
 13 14  2  0  0  0  0
 14  9  1  0  0  0  0
 15 14  1  0  0  0  0
 15 16  1  0  0  0  0
 16 39  1  0  0  0  0
 16 38  1  0  0  0  0
 16  8  1  0  0  0  0
 17 15  1  0  0  0  0
 17 22  1  0  0  0  0
 18 17  2  0  0  0  0
 19 18  1  0  0  0  0
 19 20  2  0  0  0  0
 20 21  1  0  0  0  0
 21 22  2  0  0  0  0
 21 42  1  0  0  0  0
 22 43  1  0  0  0  0
 23 18  1  0  0  0  0
 24 23  1  0  0  0  0
 27  4  1  0  0  0  0
 28  6  1  0  0  0  0
 32 11  1  0  0  0  0
 34 12  1  0  0  0  0
 36 13  1  0  0  0  0
 37 15  1  0  0  0  0
 40 19  1  0  0  0  0
 41 20  1  0  0  0  0
 44 24  1  0  0  0  0
 45 24  1  0  0  0  0
 46 24  1  0  0  0  0
 47 25  1  0  0  0  0
M  END
>  <Pose>
1

>  <Score>
-4.96

$$$$
