
 OpenBabel03222201593D

 53 56  0  0  1  0  0  0  0  0999 V2000
  -20.2880   -4.8080  -28.9540 B   0  0  0  0  0  0  0  0  0  0  0  0
  -20.3170   -3.7010  -30.5180 C   0  0  0  0  0  0  0  0  0  0  0  0
  -20.8690   -4.1430  -31.7000 C   0  0  0  0  0  0  0  0  0  0  0  0
  -20.8700   -3.3370  -32.8280 C   0  0  0  0  0  0  0  0  0  0  0  0
  -20.3210   -2.0560  -32.8270 C   0  0  0  0  0  0  0  0  0  0  0  0
  -19.7890   -1.6660  -31.6330 C   0  0  0  0  0  0  0  0  0  0  0  0
  -19.7740   -2.4540  -30.4860 C   0  0  0  0  0  0  0  0  0  0  0  0
  -20.3300   -1.3150  -33.9890 N   0  0  0  0  0  4  0  0  0  0  0  0
  -19.6220   -0.0700  -34.0000 C   0  0  1  0  0  0  0  0  0  0  0  0
  -20.6240    0.8060  -33.2480 C   0  0  0  0  0  0  0  0  0  0  0  0
  -21.9200    0.3450  -33.7690 N   0  0  0  0  0  0  0  0  0  0  0  0
  -23.0840    1.1480  -33.6440 C   0  0  0  0  0  0  0  0  0  0  0  0
  -24.3180    0.5760  -34.2740 C   0  0  0  0  0  0  0  0  0  0  0  0
  -24.0060    0.1470  -35.6820 C   0  0  0  0  0  0  0  0  0  0  0  0
  -23.8020   -1.3730  -35.6000 C   0  0  0  0  0  0  0  0  0  0  0  0
  -22.4240   -1.6360  -35.1380 C   0  0  0  0  0  0  0  0  0  0  0  0
  -21.6450   -0.9280  -34.3520 C   0  0  0  0  0  0  0  0  0  0  0  0
  -18.3550   -0.0610  -33.5100 O   0  0  0  0  0  0  0  0  0  0  0  0
  -19.5470    0.5170  -35.3690 C   0  0  0  0  0  0  0  0  0  0  0  0
  -19.6050   -0.1940  -36.5300 C   0  0  0  0  0  0  0  0  0  0  0  0
  -19.5360    0.4250  -37.7960 C   0  0  0  0  0  0  0  0  0  0  0  0
  -19.4050    1.7880  -37.9070 C   0  0  0  0  0  0  0  0  0  0  0  0
  -19.3450    2.5150  -36.7430 C   0  0  0  0  0  0  0  0  0  0  0  0
  -19.4120    1.9070  -35.5100 C   0  0  0  0  0  0  0  0  0  0  0  0
  -19.3400    2.4150  -39.1630 O   0  0  0  0  0  0  0  0  0  0  0  0
  -20.2510    2.1040  -40.1900 C   0  0  0  0  0  0  0  0  0  0  0  0
  -19.6800    1.1550  -41.1970 C   0  0  0  0  0  0  0  0  0  0  0  0
  -21.2930   -5.1380  -31.6830 H   0  0  0  0  0  0  0  0  0  0  0  0
  -21.3220   -3.7630  -33.7080 H   0  0  0  0  0  0  0  0  0  0  0  0
  -19.3390   -0.7140  -31.5260 H   0  0  0  0  0  0  0  0  0  0  0  0
  -19.3180   -2.0500  -29.5640 H   0  0  0  0  0  0  0  0  0  0  0  0
  -19.8670   -1.9380  -34.7220 H   0  0  0  0  0  0  0  0  0  0  0  0
  -20.5680    0.7650  -32.1770 H   0  0  0  0  0  0  0  0  0  0  0  0
  -20.5800    1.8670  -33.5360 H   0  0  0  0  0  0  0  0  0  0  0  0
  -23.3000    1.3070  -32.5660 H   0  0  0  0  0  0  0  0  0  0  0  0
  -22.8880    2.1410  -34.1620 H   0  0  0  0  0  0  0  0  0  0  0  0
  -24.6680   -0.2580  -33.6350 H   0  0  0  0  0  0  0  0  0  0  0  0
  -25.0590    1.3940  -34.3410 H   0  0  0  0  0  0  0  0  0  0  0  0
  -24.7910    0.3850  -36.4160 H   0  0  0  0  0  0  0  0  0  0  0  0
  -23.0480    0.5480  -36.0710 H   0  0  0  0  0  0  0  0  0  0  0  0
  -24.5110   -1.8390  -34.8880 H   0  0  0  0  0  0  0  0  0  0  0  0
  -24.0160   -1.7960  -36.6050 H   0  0  0  0  0  0  0  0  0  0  0  0
  -22.0110   -2.5380  -35.5480 H   0  0  0  0  0  0  0  0  0  0  0  0
  -17.7610   -0.6960  -33.9510 H   0  0  0  0  0  0  0  0  0  0  0  0
  -19.6920   -1.2610  -36.4920 H   0  0  0  0  0  0  0  0  0  0  0  0
  -19.5870   -0.1990  -38.6780 H   0  0  0  0  0  0  0  0  0  0  0  0
  -19.2460    3.6050  -36.8620 H   0  0  0  0  0  0  0  0  0  0  0  0
  -19.3540    2.4980  -34.5980 H   0  0  0  0  0  0  0  0  0  0  0  0
  -20.4560    3.0790  -40.7290 H   0  0  0  0  0  0  0  0  0  0  0  0
  -21.2570    1.7990  -39.8170 H   0  0  0  0  0  0  0  0  0  0  0  0
  -18.5760    1.0380  -41.0790 H   0  0  0  0  0  0  0  0  0  0  0  0
  -19.8820    1.4310  -42.2510 H   0  0  0  0  0  0  0  0  0  0  0  0
  -20.2130    0.1690  -41.0650 H   0  0  0  0  0  0  0  0  0  0  0  0
  2  7  1  0  0  0  0
  2  1  1  0  0  0  0
  3 28  1  0  0  0  0
  3  2  2  0  0  0  0
  4  5  2  0  0  0  0
  4  3  1  0  0  0  0
  5  6  1  0  0  0  0
  6 30  1  0  0  0  0
  6  7  2  0  0  0  0
  7 31  1  0  0  0  0
  8  5  1  0  0  0  0
  9  8  1  0  0  0  0
  9 18  1  1  0  0  0
  9 10  1  0  0  0  0
 10 33  1  0  0  0  0
 11 12  1  0  0  0  0
 11 10  1  0  0  0  0
 12 35  1  0  0  0  0
 13 12  1  0  0  0  0
 13 37  1  0  0  0  0
 14 15  1  0  0  0  0
 14 13  1  0  0  0  0
 15 16  1  0  0  0  0
 15 41  1  0  0  0  0
 16 17  2  0  0  0  0
 17  8  1  0  0  0  0
 17 11  1  0  0  0  0
 19  9  1  0  0  0  0
 20 45  1  0  0  0  0
 20 19  2  0  0  0  0
 21 20  1  0  0  0  0
 22 21  2  0  0  0  0
 22 23  1  0  0  0  0
 23 24  2  0  0  0  0
 24 19  1  0  0  0  0
 24 48  1  0  0  0  0
 25 22  1  0  0  0  0
 26 50  1  0  0  0  0
 26 25  1  0  0  0  0
 27 51  1  0  0  0  0
 27 53  1  0  0  0  0
 27 26  1  0  0  0  0
 29  4  1  0  0  0  0
 32  8  1  0  0  0  0
 34 10  1  0  0  0  0
 36 12  1  0  0  0  0
 38 13  1  0  0  0  0
 39 14  1  0  0  0  0
 40 14  1  0  0  0  0
 42 15  1  0  0  0  0
 43 16  1  0  0  0  0
 44 18  1  0  0  0  0
 46 21  1  0  0  0  0
 47 23  1  0  0  0  0
 49 26  1  0  0  0  0
 52 27  1  0  0  0  0
M  END
>  <Pose>
1

>  <Score>
-6.30

$$$$
