
 OpenBabel03222201593D

 60 63  0  0  0  0  0  0  0  0999 V2000
  -20.5370   -4.4610  -28.9190 B   0  0  0  0  0  0  0  0  0  0  0  0
  -19.7050   -2.7770  -29.1090 C   0  0  0  0  0  0  0  0  0  0  0  0
  -19.6130   -2.2440  -30.3710 C   0  0  0  0  0  0  0  0  0  0  0  0
  -19.0170   -1.0000  -30.6370 C   0  0  0  0  0  0  0  0  0  0  0  0
  -18.4910   -0.2680  -29.5650 C   0  0  0  0  0  0  0  0  0  0  0  0
  -18.5900   -0.8150  -28.3050 C   0  0  0  0  0  0  0  0  0  0  0  0
  -19.1810   -2.0420  -28.0660 C   0  0  0  0  0  0  0  0  0  0  0  0
  -19.2730   -2.6130  -26.6790 C   0  0  0  0  0  0  0  0  0  0  0  0
  -17.8750    0.1830  -26.8470 B   0  0  0  0  0  0  0  0  0  0  0  0
  -18.9420   -0.4900  -31.9930 C   0  0  0  0  0  0  0  0  0  0  0  0
  -17.9460    0.2250  -32.2660 O   0  0  0  0  0  0  0  0  0  0  0  0
  -20.0330   -0.8590  -32.9150 C   0  0  0  0  0  0  0  0  0  0  0  0
  -19.9470   -2.4480  -32.8080 C   0  0  0  0  0  0  0  0  0  0  0  0
  -20.0960   -2.8770  -31.5020 O   0  0  0  0  0  0  0  0  0  0  0  0
  -19.8430   -0.5560  -34.3200 C   0  0  0  0  0  0  0  0  0  0  0  0
  -18.8660    0.2250  -34.9170 N   0  0  0  0  0  4  0  0  0  0  0  0
  -18.8560    1.6330  -34.8460 C   0  0  0  0  0  0  0  0  0  0  0  0
  -18.1810    2.3030  -36.0350 C   0  0  0  0  0  0  0  0  0  0  0  0
  -18.9370    2.0770  -37.3050 C   0  0  0  0  0  0  0  0  0  0  0  0
  -19.5550    0.7140  -37.2480 C   0  0  0  0  0  0  0  0  0  0  0  0
  -18.7490   -0.1580  -36.3420 C   0  0  0  0  0  0  0  0  0  0  0  0
  -21.3380   -0.4540  -32.3430 C   0  0  0  0  0  0  0  0  0  0  0  0
  -22.3800   -0.0050  -33.1680 N   0  0  0  0  0  4  0  0  0  0  0  0
  -21.8990    1.1600  -33.9220 C   0  0  0  0  0  0  0  0  0  0  0  0
  -23.0280    1.8950  -34.6160 C   0  0  0  0  0  0  0  0  0  0  0  0
  -23.5730    0.9140  -35.6670 C   0  0  0  0  0  0  0  0  0  0  0  0
  -24.0670   -0.2620  -34.8570 C   0  0  0  0  0  0  0  0  0  0  0  0
  -22.8420   -0.9190  -34.1990 C   0  0  0  0  0  0  0  0  0  0  0  0
  -18.0360    0.6790  -29.7730 H   0  0  0  0  0  0  0  0  0  0  0  0
  -20.0340   -1.9840  -26.1490 H   0  0  0  0  0  0  0  0  0  0  0  0
  -19.5520   -3.6650  -26.7290 H   0  0  0  0  0  0  0  0  0  0  0  0
  -18.2970   -2.4210  -26.1900 H   0  0  0  0  0  0  0  0  0  0  0  0
  -18.9100   -2.6540  -33.1400 H   0  0  0  0  0  0  0  0  0  0  0  0
  -20.6380   -2.8760  -33.5220 H   0  0  0  0  0  0  0  0  0  0  0  0
  -20.8430   -0.1930  -34.7560 H   0  0  0  0  0  0  0  0  0  0  0  0
  -19.7960   -1.5850  -34.8550 H   0  0  0  0  0  0  0  0  0  0  0  0
  -17.8590   -0.0790  -34.5820 H   0  0  0  0  0  0  0  0  0  0  0  0
  -18.3080    1.9590  -33.9260 H   0  0  0  0  0  0  0  0  0  0  0  0
  -19.8330    2.1210  -34.7920 H   0  0  0  0  0  0  0  0  0  0  0  0
  -17.1760    1.8650  -36.1340 H   0  0  0  0  0  0  0  0  0  0  0  0
  -18.0730    3.3810  -35.8810 H   0  0  0  0  0  0  0  0  0  0  0  0
  -18.3380    2.1920  -38.2170 H   0  0  0  0  0  0  0  0  0  0  0  0
  -19.7590    2.8540  -37.3100 H   0  0  0  0  0  0  0  0  0  0  0  0
  -19.4790    0.2680  -38.2620 H   0  0  0  0  0  0  0  0  0  0  0  0
  -20.6360    0.7200  -37.0140 H   0  0  0  0  0  0  0  0  0  0  0  0
  -18.9670   -1.2550  -36.4560 H   0  0  0  0  0  0  0  0  0  0  0  0
  -17.6910   -0.0230  -36.6230 H   0  0  0  0  0  0  0  0  0  0  0  0
  -21.1960    0.2670  -31.4950 H   0  0  0  0  0  0  0  0  0  0  0  0
  -21.7880   -1.3510  -31.7470 H   0  0  0  0  0  0  0  0  0  0  0  0
  -23.2530    0.3410  -32.7190 H   0  0  0  0  0  0  0  0  0  0  0  0
  -21.2620    0.7420  -34.7560 H   0  0  0  0  0  0  0  0  0  0  0  0
  -21.2730    1.8350  -33.3620 H   0  0  0  0  0  0  0  0  0  0  0  0
  -23.8100    2.1630  -33.8870 H   0  0  0  0  0  0  0  0  0  0  0  0
  -22.5950    2.7430  -35.1390 H   0  0  0  0  0  0  0  0  0  0  0  0
  -24.3500    1.3770  -36.2740 H   0  0  0  0  0  0  0  0  0  0  0  0
  -22.6940    0.5540  -36.2440 H   0  0  0  0  0  0  0  0  0  0  0  0
  -24.6730    0.1300  -33.9910 H   0  0  0  0  0  0  0  0  0  0  0  0
  -24.6620   -0.9870  -35.4130 H   0  0  0  0  0  0  0  0  0  0  0  0
  -23.2450   -1.8720  -33.8300 H   0  0  0  0  0  0  0  0  0  0  0  0
  -22.0940   -1.0370  -35.0000 H   0  0  0  0  0  0  0  0  0  0  0  0
  2  1  1  0  0  0  0
  2  7  1  0  0  0  0
  3  2  2  0  0  0  0
  4  3  1  0  0  0  0
  4  5  2  0  0  0  0
  5  6  1  0  0  0  0
  6  7  2  0  0  0  0
  6  9  1  0  0  0  0
  7  8  1  0  0  0  0
  8 32  1  0  0  0  0
  8 30  1  0  0  0  0
 10  4  1  0  0  0  0
 11 10  2  0  0  0  0
 12 13  1  0  0  0  0
 12 22  1  0  0  0  0
 12 10  1  0  0  0  0
 13 14  1  0  0  0  0
 14  3  1  0  0  0  0
 15 12  1  0  0  0  0
 16 17  1  0  0  0  0
 16 37  1  0  0  0  0
 16 15  1  0  0  0  0
 17 39  1  0  0  0  0
 17 38  1  0  0  0  0
 18 41  1  0  0  0  0
 18 17  1  0  0  0  0
 19 20  1  0  0  0  0
 19 18  1  0  0  0  0
 20 45  1  0  0  0  0
 20 21  1  0  0  0  0
 21 16  1  0  0  0  0
 22 49  1  0  0  0  0
 22 48  1  0  0  0  0
 23 50  1  0  0  0  0
 23 22  1  0  0  0  0
 24 52  1  0  0  0  0
 24 23  1  0  0  0  0
 25 24  1  0  0  0  0
 25 53  1  0  0  0  0
 26 27  1  0  0  0  0
 26 25  1  0  0  0  0
 27 28  1  0  0  0  0
 27 57  1  0  0  0  0
 28 59  1  0  0  0  0
 28 23  1  0  0  0  0
 29  5  1  0  0  0  0
 31  8  1  0  0  0  0
 33 13  1  0  0  0  0
 34 13  1  0  0  0  0
 35 15  1  0  0  0  0
 36 15  1  0  0  0  0
 40 18  1  0  0  0  0
 42 19  1  0  0  0  0
 43 19  1  0  0  0  0
 44 20  1  0  0  0  0
 46 21  1  0  0  0  0
 47 21  1  0  0  0  0
 51 24  1  0  0  0  0
 54 25  1  0  0  0  0
 55 26  1  0  0  0  0
 56 26  1  0  0  0  0
 58 27  1  0  0  0  0
 60 28  1  0  0  0  0
M  END
>  <Pose>
1

>  <Score>
-6.09

$$$$
