
 OpenBabel03222201593D

 41 44  0  0  0  0  0  0  0  0999 V2000
  -17.9720    0.3110  -28.5020 F   0  0  0  0  0  0  0  0  0  0  0  0
  -17.8770    0.5680  -27.1680 C   0  0  0  0  0  0  0  0  0  0  0  0
  -18.3380   -0.4200  -26.2820 C   0  0  0  0  0  0  0  0  0  0  0  0
  -18.2460   -0.1670  -24.9490 C   0  0  0  0  0  0  0  0  0  0  0  0
  -17.7130    1.0320  -24.4280 C   0  0  0  0  0  0  0  0  0  0  0  0
  -17.2730    1.9740  -25.3290 C   0  0  0  0  0  0  0  0  0  0  0  0
  -17.3570    1.7410  -26.6860 C   0  0  0  0  0  0  0  0  0  0  0  0
  -16.7520    3.1440  -24.8940 F   0  0  0  0  0  0  0  0  0  0  0  0
  -18.8640   -1.6050  -26.8180 N   0  0  0  0  0  0  0  0  0  0  0  0
  -19.1070   -2.7720  -26.0970 C   0  0  0  0  0  0  0  0  0  0  0  0
  -18.2720   -3.3270  -25.3770 O   0  0  0  0  0  0  0  0  0  0  0  0
  -20.4720   -3.4250  -26.1830 C   0  0  0  0  0  0  0  0  0  0  0  0
  -20.5180   -4.2690  -27.3570 N   0  0  0  0  0  0  0  0  0  0  0  0
  -20.6000   -5.5860  -27.3010 N   0  0  0  0  0  0  0  0  0  0  0  0
  -20.6120   -6.0020  -28.5550 N   0  0  0  0  0  0  0  0  0  0  0  0
  -20.5400   -4.9630  -29.4120 C   0  0  0  0  0  0  0  0  0  0  0  0
  -20.4800   -3.8670  -28.6390 C   0  0  0  0  0  0  0  0  0  0  0  0
  -20.4080   -2.8190  -29.5260 C   0  0  0  0  0  0  0  0  0  0  0  0
  -20.3370   -1.6050  -29.1960 O   0  0  0  0  0  0  0  0  0  0  0  0
  -20.4220   -3.2440  -30.8060 N   0  0  0  0  0  0  0  0  0  0  0  0
  -20.5040   -4.5830  -30.7420 C   0  0  0  0  0  0  0  0  0  0  0  0
  -20.5420   -5.3560  -31.7350 O   0  0  0  0  0  0  0  0  0  0  0  0
  -20.3590   -2.4020  -31.9700 C   0  0  0  0  0  0  0  0  0  0  0  0
  -21.3380   -2.4680  -32.9420 C   0  0  0  0  0  0  0  0  0  0  0  0
  -21.3190   -1.6800  -34.0740 C   0  0  0  0  0  0  0  0  0  0  0  0
  -20.2630   -0.8000  -34.2110 C   0  0  0  0  0  0  0  0  0  0  0  0
  -19.2540   -0.6900  -33.2700 C   0  0  0  0  0  0  0  0  0  0  0  0
  -19.3330   -1.5080  -32.1600 C   0  0  0  0  0  0  0  0  0  0  0  0
  -20.2570    0.2870  -35.7960 B   0  0  0  0  0  0  0  0  0  0  0  0
  -18.5700   -0.8600  -24.2080 H   0  0  0  0  0  0  0  0  0  0  0  0
  -17.6580    1.1950  -23.3640 H   0  0  0  0  0  0  0  0  0  0  0  0
  -17.0030    2.4990  -27.3960 H   0  0  0  0  0  0  0  0  0  0  0  0
  -19.1090   -1.6440  -27.8660 H   0  0  0  0  0  0  0  0  0  0  0  0
  -21.2480   -2.6290  -26.2710 H   0  0  0  0  0  0  0  0  0  0  0  0
  -20.6390   -3.9530  -25.2430 H   0  0  0  0  0  0  0  0  0  0  0  0
  -20.6460   -6.1980  -26.4360 H   0  0  0  0  0  0  0  0  0  0  0  0
  -20.6730   -7.0220  -28.8120 H   0  0  0  0  0  0  0  0  0  0  0  0
  -22.1390   -3.1750  -32.7810 H   0  0  0  0  0  0  0  0  0  0  0  0
  -22.1090   -1.7480  -34.8370 H   0  0  0  0  0  0  0  0  0  0  0  0
  -18.4600    0.0170  -33.4400 H   0  0  0  0  0  0  0  0  0  0  0  0
  -18.5450   -1.4260  -31.4200 H   0  0  0  0  0  0  0  0  0  0  0  0
  1  2  1  0  0  0  0
  2  7  2  0  0  0  0
  2  3  1  0  0  0  0
  3  4  2  0  0  0  0
  4  5  1  0  0  0  0
  4 30  1  0  0  0  0
  5 31  1  0  0  0  0
  6  8  1  0  0  0  0
  6  5  2  0  0  0  0
  7  6  1  0  0  0  0
  9  3  1  0  0  0  0
  9 10  1  0  0  0  0
 10 11  2  0  0  0  0
 12 10  1  0  0  0  0
 12 35  1  0  0  0  0
 13 14  1  0  0  0  0
 13 12  1  0  0  0  0
 14 36  1  0  0  0  0
 15 14  1  0  0  0  0
 16 17  2  0  0  0  0
 16 15  1  0  0  0  0
 17 13  1  0  0  0  0
 18 19  2  0  0  0  0
 18 17  1  0  0  0  0
 20 21  1  0  0  0  0
 20 18  1  0  0  0  0
 21 16  1  0  0  0  0
 22 21  2  0  0  0  0
 23 20  1  0  0  0  0
 24 38  1  0  0  0  0
 24 23  2  0  0  0  0
 25 24  1  0  0  0  0
 26 25  2  0  0  0  0
 26 27  1  0  0  0  0
 27 28  2  0  0  0  0
 28 23  1  0  0  0  0
 28 41  1  0  0  0  0
 29 26  1  0  0  0  0
 32  7  1  0  0  0  0
 33  9  1  0  0  0  0
 34 12  1  0  0  0  0
 37 15  1  0  0  0  0
 39 25  1  0  0  0  0
 40 27  1  0  0  0  0
M  END
>  <Pose>
1

>  <Score>
-7.65

$$$$
