
 OpenBabel03222201593D

 53 56  0  0  1  0  0  0  0  0999 V2000
  -18.6290    2.0140  -33.3580 F   0  0  0  0  0  0  0  0  0  0  0  0
  -19.6100    2.6840  -33.9420 C   0  0  0  0  0  0  0  0  0  0  0  0
  -20.6360    2.0440  -34.6070 C   0  0  0  0  0  0  0  0  0  0  0  0
  -21.5800    2.8730  -35.1600 C   0  0  0  0  0  0  0  0  0  0  0  0
  -21.5480    4.2570  -35.0880 C   0  0  0  0  0  0  0  0  0  0  0  0
  -20.5160    4.8540  -34.4220 C   0  0  0  0  0  0  0  0  0  0  0  0
  -19.5590    4.0780  -33.8550 C   0  0  0  0  0  0  0  0  0  0  0  0
  -20.7440    0.5780  -34.6960 C   0  0  2  0  0  0  0  0  0  0  0  0
  -22.0780    0.0840  -34.9980 N   0  0  0  0  0  0  0  0  0  0  0  0
  -22.8020    0.4660  -33.8100 C   0  0  0  0  0  0  0  0  0  0  0  0
  -24.0150    0.7840  -33.6970 O   0  0  0  0  0  0  0  0  0  0  0  0
  -21.8650    0.4360  -32.6510 C   0  0  0  0  0  0  0  0  0  0  0  0
  -22.0180    0.6780  -31.4560 O   0  0  0  0  0  0  0  0  0  0  0  0
  -20.5890    0.0120  -33.3000 C   0  0  0  0  0  0  0  0  0  0  0  0
  -19.6140   -0.6700  -32.7520 C   0  0  0  0  0  0  0  0  0  0  0  0
  -18.4710   -0.9740  -33.5190 O   0  0  0  0  0  0  0  0  0  0  0  0
  -19.6760   -1.1280  -31.3710 C   0  0  0  0  0  0  0  0  0  0  0  0
  -19.9980   -2.4430  -31.1170 C   0  0  0  0  0  0  0  0  0  0  0  0
  -20.1020   -2.9380  -29.8280 C   0  0  0  0  0  0  0  0  0  0  0  0
  -19.8780   -2.1040  -28.7540 C   0  0  0  0  0  0  0  0  0  0  0  0
  -19.5590   -0.8000  -28.9810 C   0  0  0  0  0  0  0  0  0  0  0  0
  -19.4570   -0.3090  -30.2950 C   0  0  0  0  0  0  0  0  0  0  0  0
  -20.0140   -2.7650  -26.9470 B   0  0  0  0  0  0  0  0  0  0  0  0
  -22.6550   -0.5890  -36.0810 C   0  0  0  0  0  0  0  0  0  0  0  0
  -21.9840   -0.6000  -37.4080 C   0  0  0  0  0  0  0  0  0  0  0  0
  -22.3500   -1.7080  -38.2450 N   0  0  0  0  0  4  0  0  0  0  0  0
  -22.7020   -1.2070  -39.5570 C   0  0  0  0  0  0  0  0  0  0  0  0
  -22.9820   -2.3530  -40.5120 C   0  0  0  0  0  0  0  0  0  0  0  0
  -24.0220   -3.1130  -40.0120 O   0  0  0  0  0  0  0  0  0  0  0  0
  -23.7220   -3.5720  -38.7320 C   0  0  0  0  0  0  0  0  0  0  0  0
  -23.5740   -2.3850  -37.7700 C   0  0  0  0  0  0  0  0  0  0  0  0
  -22.4030    2.4530  -35.6760 H   0  0  0  0  0  0  0  0  0  0  0  0
  -22.3050    4.8850  -35.5330 H   0  0  0  0  0  0  0  0  0  0  0  0
  -20.4730    5.9350  -34.3540 H   0  0  0  0  0  0  0  0  0  0  0  0
  -18.7460    4.5690  -33.3310 H   0  0  0  0  0  0  0  0  0  0  0  0
  -19.9470    0.1830  -35.3080 H   0  0  0  0  0  0  0  0  0  0  0  0
  -20.1880   -3.1590  -31.9150 H   0  0  0  0  0  0  0  0  0  0  0  0
  -20.3530   -3.9620  -29.5990 H   0  0  0  0  0  0  0  0  0  0  0  0
  -19.3810   -0.1420  -28.1410 H   0  0  0  0  0  0  0  0  0  0  0  0
  -19.2200    0.7170  -30.4570 H   0  0  0  0  0  0  0  0  0  0  0  0
  -23.6930   -0.1910  -36.2710 H   0  0  0  0  0  0  0  0  0  0  0  0
  -22.8740   -1.6890  -35.8770 H   0  0  0  0  0  0  0  0  0  0  0  0
  -22.3580    0.3190  -37.9450 H   0  0  0  0  0  0  0  0  0  0  0  0
  -20.8830   -0.4260  -37.3530 H   0  0  0  0  0  0  0  0  0  0  0  0
  -21.6490   -2.4760  -38.2660 H   0  0  0  0  0  0  0  0  0  0  0  0
  -23.6910   -0.6770  -39.4230 H   0  0  0  0  0  0  0  0  0  0  0  0
  -22.0180   -0.4580  -39.9510 H   0  0  0  0  0  0  0  0  0  0  0  0
  -22.0360   -2.9190  -40.6410 H   0  0  0  0  0  0  0  0  0  0  0  0
  -23.3030   -1.9040  -41.4690 H   0  0  0  0  0  0  0  0  0  0  0  0
  -22.7090   -4.0540  -38.8030 H   0  0  0  0  0  0  0  0  0  0  0  0
  -24.4480   -4.2950  -38.3490 H   0  0  0  0  0  0  0  0  0  0  0  0
  -24.4200   -1.7000  -37.8510 H   0  0  0  0  0  0  0  0  0  0  0  0
  -23.3660   -2.7820  -36.7660 H   0  0  0  0  0  0  0  0  0  0  0  0
  2  7  1  0  0  0  0
  2  1  1  0  0  0  0
  3  2  2  0  0  0  0
  4  5  2  0  0  0  0
  4  3  1  0  0  0  0
  5  6  1  0  0  0  0
  6 34  1  0  0  0  0
  6  7  2  0  0  0  0
  7 35  1  0  0  0  0
  8 36  1  6  0  0  0
  8  3  1  0  0  0  0
  8 14  1  0  0  0  0
  9  8  1  0  0  0  0
  9 10  1  0  0  0  0
 10 11  2  0  0  0  0
 10 12  1  0  0  0  0
 12 13  2  0  0  0  0
 14 15  2  0  0  0  0
 14 12  1  0  0  0  0
 15 17  1  0  0  0  0
 16 15  1  0  0  0  0
 17 18  2  0  0  0  0
 17 22  1  0  0  0  0
 18 19  1  0  0  0  0
 19 38  1  0  0  0  0
 19 20  2  0  0  0  0
 20 23  1  0  0  0  0
 21 20  1  0  0  0  0
 21 39  1  0  0  0  0
 22 21  2  0  0  0  0
 24 42  1  0  0  0  0
 24  9  1  0  0  0  0
 25 44  1  0  0  0  0
 25 24  1  0  0  0  0
 26 31  1  0  0  0  0
 26 25  1  0  0  0  0
 27 46  1  0  0  0  0
 27 26  1  0  0  0  0
 28 29  1  0  0  0  0
 28 27  1  0  0  0  0
 29 30  1  0  0  0  0
 30 51  1  0  0  0  0
 30 31  1  0  0  0  0
 31 53  1  0  0  0  0
 32  4  1  0  0  0  0
 33  5  1  0  0  0  0
 37 18  1  0  0  0  0
 40 22  1  0  0  0  0
 41 24  1  0  0  0  0
 43 25  1  0  0  0  0
 45 26  1  0  0  0  0
 47 27  1  0  0  0  0
 48 28  1  0  0  0  0
 49 28  1  0  0  0  0
 50 30  1  0  0  0  0
 52 31  1  0  0  0  0
M  END
>  <Pose>
1

>  <Score>
-6.12

$$$$
