
 OpenBabel03222201593D

 39 42  0  0  1  0  0  0  0  0999 V2000
  -20.7860    5.2240  -34.7110 I   0  0  0  0  0  0  0  0  0  0  0  0
  -21.0940    3.1430  -34.7210 C   0  0  0  0  0  0  0  0  0  0  0  0
  -20.0270    2.2820  -34.9830 C   0  0  0  0  0  0  0  0  0  0  0  0
  -20.1840    0.9170  -34.9990 C   0  0  0  0  0  0  0  0  0  0  0  0
  -21.4780    0.4450  -34.7370 C   0  0  0  0  0  0  0  0  0  0  0  0
  -22.5200    1.2970  -34.4810 C   0  0  0  0  0  0  0  0  0  0  0  0
  -22.3410    2.6610  -34.4700 C   0  0  0  0  0  0  0  0  0  0  0  0
  -24.2640    0.6180  -34.1300 B   0  0  0  0  0  0  0  0  0  0  0  0
  -19.0810   -0.0450  -35.2590 C   0  0  2  0  0  0  0  0  0  0  0  0
  -19.5710   -1.3480  -34.8690 N   0  0  0  0  0  0  0  0  0  0  0  0
  -19.7040   -1.6650  -33.4790 C   0  0  0  0  0  0  0  0  0  0  0  0
  -20.7040   -2.7880  -32.6050 S   0  0  0  0  0  0  0  0  0  0  0  0
  -20.1710   -2.4620  -31.0240 C   0  0  0  0  0  0  0  0  0  0  0  0
  -19.2410   -1.4980  -31.2130 C   0  0  0  0  0  0  0  0  0  0  0  0
  -18.9960   -1.0840  -32.4670 C   0  0  0  0  0  0  0  0  0  0  0  0
  -18.0470   -0.0600  -32.9890 C   0  0  0  0  0  0  0  0  0  0  0  0
  -17.3000    0.5850  -32.2160 O   0  0  0  0  0  0  0  0  0  0  0  0
  -17.9600    0.2130  -34.3720 N   0  0  0  0  0  0  0  0  0  0  0  0
  -18.5790   -1.0030  -29.9330 C   0  0  0  0  0  0  0  0  0  0  0  0
  -18.7230   -2.0640  -28.8910 C   0  0  0  0  0  0  0  0  0  0  0  0
  -20.1710   -2.2050  -28.6680 N   0  0  0  0  0  4  0  0  0  0  0  0
  -20.6030   -3.0700  -29.7450 C   0  0  0  0  0  0  0  0  0  0  0  0
  -20.4500   -2.7610  -27.3660 C   0  0  0  0  0  0  0  0  0  0  0  0
  -18.7850    2.8220  -35.2330 O   0  0  0  0  0  0  0  0  0  0  0  0
  -21.6060   -0.6300  -34.7500 H   0  0  0  0  0  0  0  0  0  0  0  0
  -23.1700    3.3500  -34.2650 H   0  0  0  0  0  0  0  0  0  0  0  0
  -18.7620   -0.0240  -36.3220 H   0  0  0  0  0  0  0  0  0  0  0  0
  -19.8360   -2.0890  -35.5550 H   0  0  0  0  0  0  0  0  0  0  0  0
  -17.0800    0.6100  -34.7890 H   0  0  0  0  0  0  0  0  0  0  0  0
  -19.1370   -0.1110  -29.6240 H   0  0  0  0  0  0  0  0  0  0  0  0
  -17.5330   -0.7350  -30.1150 H   0  0  0  0  0  0  0  0  0  0  0  0
  -18.3140   -3.0270  -29.2390 H   0  0  0  0  0  0  0  0  0  0  0  0
  -18.2430   -1.7320  -27.9720 H   0  0  0  0  0  0  0  0  0  0  0  0
  -20.6230   -1.2780  -28.8130 H   0  0  0  0  0  0  0  0  0  0  0  0
  -20.1980   -4.0960  -29.6400 H   0  0  0  0  0  0  0  0  0  0  0  0
  -21.7040   -3.1610  -29.6580 H   0  0  0  0  0  0  0  0  0  0  0  0
  -20.9170   -3.7580  -27.4260 H   0  0  0  0  0  0  0  0  0  0  0  0
  -21.2070   -2.0840  -26.8850 H   0  0  0  0  0  0  0  0  0  0  0  0
  -19.5730   -2.7410  -26.6860 H   0  0  0  0  0  0  0  0  0  0  0  0
  2  1  1  0  0  0  0
  2  7  1  0  0  0  0
  3  2  2  0  0  0  0
  4  3  1  0  0  0  0
  4  5  2  0  0  0  0
  5  6  1  0  0  0  0
  6  7  2  0  0  0  0
  6  8  1  0  0  0  0
  7 26  1  0  0  0  0
  9 27  1  6  0  0  0
  9  4  1  0  0  0  0
  9 10  1  0  0  0  0
  9 18  1  0  0  0  0
 10 11  1  0  0  0  0
 11 12  1  0  0  0  0
 11 15  2  0  0  0  0
 12 13  1  0  0  0  0
 13 22  1  0  0  0  0
 14 13  2  0  0  0  0
 14 19  1  0  0  0  0
 15 14  1  0  0  0  0
 16 15  1  0  0  0  0
 16 17  2  0  0  0  0
 18 16  1  0  0  0  0
 19 30  1  0  0  0  0
 19 20  1  0  0  0  0
 20 21  1  0  0  0  0
 20 33  1  0  0  0  0
 21 23  1  0  0  0  0
 22 36  1  0  0  0  0
 22 35  1  0  0  0  0
 22 21  1  0  0  0  0
 23 38  1  0  0  0  0
 23 39  1  0  0  0  0
 24  3  1  0  0  0  0
 25  5  1  0  0  0  0
 28 10  1  0  0  0  0
 29 18  1  0  0  0  0
 31 19  1  0  0  0  0
 32 20  1  0  0  0  0
 34 21  1  0  0  0  0
 37 23  1  0  0  0  0
M  END
>  <Pose>
1

>  <Score>
-5.79

$$$$
