
 OpenBabel03222201593D

 43 46  0  0  1  0  0  0  0  0999 V2000
  -17.6030    2.1520  -26.4660 I   0  0  0  0  0  0  0  0  0  0  0  0
  -18.2460    0.2540  -27.1260 C   0  0  0  0  0  0  0  0  0  0  0  0
  -18.6350   -0.6950  -26.2020 C   0  0  0  0  0  0  0  0  0  0  0  0
  -19.0620   -1.9530  -26.6230 C   0  0  0  0  0  0  0  0  0  0  0  0
  -19.0780   -2.1980  -27.9630 C   0  0  0  0  0  0  0  0  0  0  0  0
  -18.6920   -1.2620  -28.9140 C   0  0  0  0  0  0  0  0  0  0  0  0
  -18.2770   -0.0330  -28.4810 C   0  0  0  0  0  0  0  0  0  0  0  0
  -18.7550   -1.6530  -30.3490 C   0  0  2  0  0  0  0  0  0  0  0  0
  -18.9720   -0.4120  -31.0920 N   0  0  0  0  0  0  0  0  0  0  0  0
  -19.8620   -0.3720  -32.2350 C   0  0  0  0  0  0  0  0  0  0  0  0
  -20.1070    0.7820  -33.4850 S   0  0  0  0  0  0  0  0  0  0  0  0
  -21.3260   -0.0170  -34.3520 C   0  0  0  0  0  0  0  0  0  0  0  0
  -21.5170   -1.1730  -33.6430 C   0  0  0  0  0  0  0  0  0  0  0  0
  -20.7530   -1.3500  -32.5430 C   0  0  0  0  0  0  0  0  0  0  0  0
  -20.7670   -2.5130  -31.6090 C   0  0  0  0  0  0  0  0  0  0  0  0
  -21.5510   -3.4940  -31.7830 O   0  0  0  0  0  0  0  0  0  0  0  0
  -19.8900   -2.5210  -30.5070 N   0  0  0  0  0  0  0  0  0  0  0  0
  -22.5950   -2.0500  -34.2690 C   0  0  0  0  0  0  0  0  0  0  0  0
  -23.8250   -1.2190  -34.5250 C   0  0  0  0  0  0  0  0  0  0  0  0
  -23.5570    0.0540  -35.1050 N   0  0  0  0  0  4  0  0  0  0  0  0
  -22.1830    0.1760  -35.5790 C   0  0  0  0  0  0  0  0  0  0  0  0
  -23.6900    1.0550  -34.0350 C   0  0  0  0  0  0  0  0  0  0  0  0
  -19.4410   -2.8670  -25.6490 O   0  0  0  0  0  0  0  0  0  0  0  0
  -19.3410   -4.2480  -25.9430 C   0  0  0  0  0  0  0  0  0  0  0  0
  -18.6050   -0.4080  -24.8500 O   0  0  0  0  0  0  0  0  0  0  0  0
  -19.4090   -3.1760  -28.3030 H   0  0  0  0  0  0  0  0  0  0  0  0
  -17.9730    0.7010  -29.2300 H   0  0  0  0  0  0  0  0  0  0  0  0
  -17.8100   -2.1180  -30.6870 H   0  0  0  0  0  0  0  0  0  0  0  0
  -18.5000    0.4730  -30.8280 H   0  0  0  0  0  0  0  0  0  0  0  0
  -20.0620   -3.2100  -29.7290 H   0  0  0  0  0  0  0  0  0  0  0  0
  -22.1940   -2.4880  -35.1810 H   0  0  0  0  0  0  0  0  0  0  0  0
  -22.8870   -2.8440  -33.5590 H   0  0  0  0  0  0  0  0  0  0  0  0
  -24.4750   -1.1320  -33.6310 H   0  0  0  0  0  0  0  0  0  0  0  0
  -24.4400   -1.8000  -35.2730 H   0  0  0  0  0  0  0  0  0  0  0  0
  -24.2210    0.3160  -35.8800 H   0  0  0  0  0  0  0  0  0  0  0  0
  -22.0650    1.1980  -35.9640 H   0  0  0  0  0  0  0  0  0  0  0  0
  -22.0230   -0.6220  -36.3180 H   0  0  0  0  0  0  0  0  0  0  0  0
  -23.1960    0.6320  -33.1370 H   0  0  0  0  0  0  0  0  0  0  0  0
  -23.1620    1.9860  -34.3370 H   0  0  0  0  0  0  0  0  0  0  0  0
  -24.7480    1.3080  -33.8620 H   0  0  0  0  0  0  0  0  0  0  0  0
  -18.2520   -4.5430  -25.9430 H   0  0  0  0  0  0  0  0  0  0  0  0
  -19.7250   -4.5020  -26.9500 H   0  0  0  0  0  0  0  0  0  0  0  0
  -19.9110   -4.8680  -25.2220 H   0  0  0  0  0  0  0  0  0  0  0  0
  2  1  1  0  0  0  0
  2  3  1  0  0  0  0
  3 25  1  0  0  0  0
  4  3  2  0  0  0  0
  4 23  1  0  0  0  0
  5  4  1  0  0  0  0
  6  7  1  0  0  0  0
  6  5  2  0  0  0  0
  7  2  2  0  0  0  0
  8 28  1  6  0  0  0
  8  6  1  0  0  0  0
  9 29  1  0  0  0  0
  9  8  1  0  0  0  0
 10  9  1  0  0  0  0
 11 10  1  0  0  0  0
 12 13  2  0  0  0  0
 12 11  1  0  0  0  0
 13 14  1  0  0  0  0
 14 10  2  0  0  0  0
 14 15  1  0  0  0  0
 15 17  1  0  0  0  0
 16 15  2  0  0  0  0
 17  8  1  0  0  0  0
 17 30  1  0  0  0  0
 18 13  1  0  0  0  0
 18 32  1  0  0  0  0
 19 18  1  0  0  0  0
 19 33  1  0  0  0  0
 20 19  1  0  0  0  0
 20 22  1  0  0  0  0
 21 20  1  0  0  0  0
 21 12  1  0  0  0  0
 22 40  1  0  0  0  0
 22 38  1  0  0  0  0
 24 41  1  0  0  0  0
 24 23  1  0  0  0  0
 24 43  1  0  0  0  0
 26  5  1  0  0  0  0
 27  7  1  0  0  0  0
 31 18  1  0  0  0  0
 34 19  1  0  0  0  0
 35 20  1  0  0  0  0
 36 21  1  0  0  0  0
 37 21  1  0  0  0  0
 39 22  1  0  0  0  0
 42 24  1  0  0  0  0
M  END
>  <Pose>
1

>  <Score>
-5.94

$$$$
