
 OpenBabel03222201593D

 38 41  0  0  1  0  0  0  0  0999 V2000
  -19.8610   -0.7480  -32.9200 I   0  0  0  0  0  0  0  0  0  0  0  0
  -20.3860   -2.4600  -31.8000 C   0  0  0  0  0  0  0  0  0  0  0  0
  -20.0230   -2.5370  -30.4370 C   0  0  0  0  0  0  0  0  0  0  0  0
  -20.3500   -3.6370  -29.6970 C   0  0  0  0  0  0  0  0  0  0  0  0
  -21.0500   -4.6640  -30.3350 C   0  0  0  0  0  0  0  0  0  0  0  0
  -21.4140   -4.6180  -31.6520 C   0  0  0  0  0  0  0  0  0  0  0  0
  -21.0720   -3.4900  -32.3950 C   0  0  0  0  0  0  0  0  0  0  0  0
  -19.3260   -1.4560  -29.8590 N   0  0  0  0  0  0  0  0  0  0  0  0
  -19.0320   -1.2380  -28.4970 C   0  0  1  0  0  0  0  0  0  0  0  0
  -18.9980   -2.1610  -27.5430 N   0  0  0  0  0  0  0  0  0  0  0  0
  -18.7160   -1.9410  -26.2480 C   0  0  0  0  0  0  0  0  0  0  0  0
  -18.6110   -2.6460  -25.1150 N   0  0  0  0  0  0  0  0  0  0  0  0
  -18.2960   -1.8660  -24.1220 O   0  0  0  0  0  0  0  0  0  0  0  0
  -18.1830   -0.6410  -24.5500 N   0  0  0  0  0  0  0  0  0  0  0  0
  -18.4340   -0.6250  -25.8680 C   0  0  0  0  0  0  0  0  0  0  0  0
  -18.4520    0.3340  -26.7750 N   0  0  0  0  0  0  0  0  0  0  0  0
  -18.7380    0.0660  -28.0520 C   0  0  0  0  0  0  0  0  0  0  0  0
  -18.6790    1.2170  -28.7010 N   0  0  0  0  0  0  0  0  0  0  0  0
  -18.3590    2.1990  -27.8390 N   0  0  0  0  0  0  0  0  0  0  0  0
  -18.2100    1.6670  -26.6180 C   0  0  0  0  0  0  0  0  0  0  0  0
  -17.8650    2.3330  -25.3330 C   0  0  0  0  0  0  0  0  0  0  0  0
  -16.7060    3.2500  -25.4440 C   0  0  0  0  0  0  0  0  0  0  0  0
  -15.8820    3.1980  -26.3810 O   0  0  0  0  0  0  0  0  0  0  0  0
  -16.5240    4.1970  -24.4750 O   0  0  0  0  0  0  0  0  0  0  0  0
  -15.3210    4.4920  -23.8600 C   0  0  0  0  0  0  0  0  0  0  0  0
  -14.8260    3.5030  -22.8750 C   0  0  0  0  0  0  0  0  0  0  0  0
  -20.1130   -3.7730  -28.6590 H   0  0  0  0  0  0  0  0  0  0  0  0
  -21.3190   -5.5510  -29.7550 H   0  0  0  0  0  0  0  0  0  0  0  0
  -21.9520   -5.4260  -32.1180 H   0  0  0  0  0  0  0  0  0  0  0  0
  -21.3630   -3.4640  -33.4350 H   0  0  0  0  0  0  0  0  0  0  0  0
  -18.9820   -0.7140  -30.5650 H   0  0  0  0  0  0  0  0  0  0  0  0
  -17.7540    1.6130  -24.5030 H   0  0  0  0  0  0  0  0  0  0  0  0
  -18.7320    2.9980  -25.0310 H   0  0  0  0  0  0  0  0  0  0  0  0
  -14.5700    4.6530  -24.6840 H   0  0  0  0  0  0  0  0  0  0  0  0
  -15.3770    5.5010  -23.3580 H   0  0  0  0  0  0  0  0  0  0  0  0
  -13.8400    3.0990  -23.2530 H   0  0  0  0  0  0  0  0  0  0  0  0
  -15.4810    2.6050  -22.8000 H   0  0  0  0  0  0  0  0  0  0  0  0
  -14.6600    3.9830  -21.9020 H   0  0  0  0  0  0  0  0  0  0  0  0
  1  2  1  0  0  0  0
  2  3  1  0  0  0  0
  3  8  1  0  0  0  0
  3  4  2  0  0  0  0
  4 27  1  0  0  0  0
  5 28  1  0  0  0  0
  5  4  1  0  0  0  0
  6  5  2  0  0  0  0
  7  2  2  0  0  0  0
  7  6  1  0  0  0  0
  9  8  1  6  0  0  0
  9 17  1  0  0  0  0
  9 10  1  0  0  0  0
 10 11  2  0  0  0  0
 11 15  1  0  0  0  0
 11 12  1  0  0  0  0
 12 13  1  0  0  0  0
 14 13  1  0  0  0  0
 15 14  2  0  0  0  0
 16 20  1  0  0  0  0
 16 15  1  0  0  0  0
 17 16  1  0  0  0  0
 18 17  2  0  0  0  0
 18 19  1  0  0  0  0
 19 20  2  0  0  0  0
 20 21  1  0  0  0  0
 21 33  1  0  0  0  0
 21 32  1  0  0  0  0
 22 21  1  0  0  0  0
 22 24  1  0  0  0  0
 23 22  2  0  0  0  0
 24 25  1  0  0  0  0
 25 35  1  0  0  0  0
 25 26  1  0  0  0  0
 26 37  1  0  0  0  0
 26 38  1  0  0  0  0
 29  6  1  0  0  0  0
 30  7  1  0  0  0  0
 31  8  1  0  0  0  0
 34 25  1  0  0  0  0
 36 26  1  0  0  0  0
M  END
>  <Pose>
1

>  <Score>
-7.19

$$$$
