
 OpenBabel03222201593D

 50 53  0  0  0  0  0  0  0  0999 V2000
  -21.3930    7.6900  -23.8750 I   0  0  0  0  0  0  0  0  0  0  0  0
  -20.1110    6.5180  -25.0410 C   0  0  0  0  0  0  0  0  0  0  0  0
  -19.5140    6.9820  -26.1720 C   0  0  0  0  0  0  0  0  0  0  0  0
  -18.6650    6.1430  -26.9100 C   0  0  0  0  0  0  0  0  0  0  0  0
  -18.3940    4.8560  -26.5520 C   0  0  0  0  0  0  0  0  0  0  0  0
  -19.0230    4.4040  -25.3820 C   0  0  0  0  0  0  0  0  0  0  0  0
  -19.8550    5.2210  -24.6560 C   0  0  0  0  0  0  0  0  0  0  0  0
  -17.5450    3.9180  -27.2330 C   0  0  0  0  0  0  0  0  0  0  0  0
  -17.8730    2.8580  -27.8290 N   0  0  0  0  0  0  0  0  0  0  0  0
  -19.1460    2.4040  -27.9350 N   0  0  0  0  0  0  0  0  0  0  0  0
  -19.3920    1.1240  -28.5630 C   0  0  0  0  0  0  0  0  0  0  0  0
  -19.5130    0.0150  -27.8130 N   0  0  0  0  0  4  0  0  0  0  0  0
  -19.7400   -1.1800  -28.3730 C   0  0  0  0  0  0  0  0  0  0  0  0
  -19.8410   -1.2120  -29.7120 N   0  0  0  0  0  0  0  0  0  0  0  0
  -19.7260   -0.1220  -30.4970 C   0  0  0  0  0  0  0  0  0  0  0  0
  -19.4970    1.0600  -29.8960 N   0  0  0  0  0  0  0  0  0  0  0  0
  -19.8470   -0.2430  -31.9080 N   0  0  0  0  0  0  0  0  0  0  0  0
  -18.6580   -0.3720  -32.7190 C   0  0  0  0  0  0  0  0  0  0  0  0
  -18.9700    0.3810  -34.0200 C   0  0  0  0  0  0  0  0  0  0  0  0
  -19.9700   -0.3040  -34.6610 O   0  0  0  0  0  0  0  0  0  0  0  0
  -21.1620   -0.3990  -34.0000 C   0  0  0  0  0  0  0  0  0  0  0  0
  -21.1280   -0.2370  -32.5240 C   0  0  0  0  0  0  0  0  0  0  0  0
  -19.8730   -2.3710  -27.5970 N   0  0  0  0  0  0  0  0  0  0  0  0
  -19.1050   -2.6290  -26.4170 C   0  0  0  0  0  0  0  0  0  0  0  0
  -19.3970   -4.0670  -25.9800 C   0  0  0  0  0  0  0  0  0  0  0  0
  -19.2800   -4.9540  -27.0370 O   0  0  0  0  0  0  0  0  0  0  0  0
  -20.2120   -4.7540  -28.0250 C   0  0  0  0  0  0  0  0  0  0  0  0
  -20.8320   -3.3800  -28.0150 C   0  0  0  0  0  0  0  0  0  0  0  0
  -19.7090    7.9960  -26.4810 H   0  0  0  0  0  0  0  0  0  0  0  0
  -18.2500    6.5950  -27.7680 H   0  0  0  0  0  0  0  0  0  0  0  0
  -18.8590    3.3980  -25.0330 H   0  0  0  0  0  0  0  0  0  0  0  0
  -20.3030    4.7930  -23.7620 H   0  0  0  0  0  0  0  0  0  0  0  0
  -16.4400    4.1170  -27.2590 H   0  0  0  0  0  0  0  0  0  0  0  0
  -19.9480    2.9750  -27.5890 H   0  0  0  0  0  0  0  0  0  0  0  0
  -18.4680   -1.4320  -32.9350 H   0  0  0  0  0  0  0  0  0  0  0  0
  -17.7830    0.1340  -32.2590 H   0  0  0  0  0  0  0  0  0  0  0  0
  -19.2110    1.4120  -33.7590 H   0  0  0  0  0  0  0  0  0  0  0  0
  -18.0600    0.3240  -34.6330 H   0  0  0  0  0  0  0  0  0  0  0  0
  -21.9520    0.2500  -34.4850 H   0  0  0  0  0  0  0  0  0  0  0  0
  -21.5500   -1.4440  -34.1990 H   0  0  0  0  0  0  0  0  0  0  0  0
  -21.7570   -1.0070  -31.9870 H   0  0  0  0  0  0  0  0  0  0  0  0
  -21.6660    0.7310  -32.2910 H   0  0  0  0  0  0  0  0  0  0  0  0
  -18.0290   -2.4550  -26.5180 H   0  0  0  0  0  0  0  0  0  0  0  0
  -19.5080   -1.9700  -25.6070 H   0  0  0  0  0  0  0  0  0  0  0  0
  -20.4200   -4.0720  -25.5210 H   0  0  0  0  0  0  0  0  0  0  0  0
  -18.6790   -4.3800  -25.1970 H   0  0  0  0  0  0  0  0  0  0  0  0
  -21.0660   -5.4840  -27.9670 H   0  0  0  0  0  0  0  0  0  0  0  0
  -19.6900   -4.8770  -29.0120 H   0  0  0  0  0  0  0  0  0  0  0  0
  -21.7000   -3.3880  -27.3220 H   0  0  0  0  0  0  0  0  0  0  0  0
  -21.1830   -3.1870  -29.0630 H   0  0  0  0  0  0  0  0  0  0  0  0
  2  7  1  0  0  0  0
  2  1  1  0  0  0  0
  3  2  2  0  0  0  0
  4  5  2  0  0  0  0
  4  3  1  0  0  0  0
  5  6  1  0  0  0  0
  6 31  1  0  0  0  0
  6  7  2  0  0  0  0
  7 32  1  0  0  0  0
  8  5  1  0  0  0  0
  9  8  2  0  0  0  0
 10  9  1  0  0  0  0
 10 34  1  0  0  0  0
 11 10  1  0  0  0  0
 11 12  2  0  0  0  0
 13 12  2  0  0  0  0
 13 23  1  0  0  0  0
 14 13  1  0  0  0  0
 15 16  1  0  0  0  0
 15 14  2  0  0  0  0
 16 11  1  0  0  0  0
 17 15  1  0  0  0  0
 18 36  1  0  0  0  0
 18 17  1  0  0  0  0
 19 37  1  0  0  0  0
 19 18  1  0  0  0  0
 20 19  1  0  0  0  0
 20 21  1  0  0  0  0
 21 22  1  0  0  0  0
 22 42  1  0  0  0  0
 22 41  1  0  0  0  0
 22 17  1  0  0  0  0
 23 24  1  0  0  0  0
 24 25  1  0  0  0  0
 24 44  1  0  0  0  0
 25 45  1  0  0  0  0
 25 46  1  0  0  0  0
 26 25  1  0  0  0  0
 27 28  1  0  0  0  0
 27 47  1  0  0  0  0
 27 26  1  0  0  0  0
 28 23  1  0  0  0  0
 28 49  1  0  0  0  0
 29  3  1  0  0  0  0
 30  4  1  0  0  0  0
 33  8  1  0  0  0  0
 35 18  1  0  0  0  0
 38 19  1  0  0  0  0
 39 21  1  0  0  0  0
 40 21  1  0  0  0  0
 43 24  1  0  0  0  0
 48 27  1  0  0  0  0
 50 28  1  0  0  0  0
M  END
>  <Pose>
1

>  <Score>
-6.99

$$$$
