
 OpenBabel03222201593D

 44 47  0  0  1  0  0  0  0  0999 V2000
  -19.0800   -2.8510  -25.7680 I   0  0  0  0  0  0  0  0  0  0  0  0
  -19.7090   -2.8870  -27.7840 C   0  0  0  0  0  0  0  0  0  0  0  0
  -19.7590   -1.7460  -28.5570 C   0  0  0  0  0  0  0  0  0  0  0  0
  -20.1750   -1.7990  -29.8720 C   0  0  0  0  0  0  0  0  0  0  0  0
  -20.5560   -2.9850  -30.4640 C   0  0  0  0  0  0  0  0  0  0  0  0
  -20.4990   -4.1100  -29.6770 C   0  0  0  0  0  0  0  0  0  0  0  0
  -20.0860   -4.0810  -28.3590 C   0  0  0  0  0  0  0  0  0  0  0  0
  -20.9810   -2.9880  -31.8400 N   0  0  0  0  0  0  0  0  0  0  0  0
  -20.4710   -2.2200  -32.9170 C   0  0  0  0  0  0  0  0  0  0  0  0
  -19.3240   -1.7030  -32.9260 O   0  0  0  0  0  0  0  0  0  0  0  0
  -21.4920   -2.1380  -33.9990 C   0  0  1  0  0  0  0  0  0  0  0  0
  -22.2440   -3.4430  -33.8060 C   0  0  0  0  0  0  0  0  0  0  0  0
  -22.0240   -3.7910  -32.3880 C   0  0  0  0  0  0  0  0  0  0  0  0
  -22.6510   -4.6670  -31.7230 O   0  0  0  0  0  0  0  0  0  0  0  0
  -22.2780   -0.9940  -33.7810 N   0  0  0  0  0  0  0  0  0  0  0  0
  -21.7230    0.1810  -33.2760 C   0  0  0  0  0  0  0  0  0  0  0  0
  -22.6190    1.3510  -33.7620 C   0  0  0  0  0  0  0  0  0  0  0  0
  -22.8220    1.1930  -35.1940 N   0  0  0  0  0  0  0  0  0  0  0  0
  -23.4700   -0.0230  -35.6200 C   0  0  0  0  0  0  0  0  0  0  0  0
  -23.5360   -0.9480  -34.4090 C   0  0  0  0  0  0  0  0  0  0  0  0
  -22.3990    2.1810  -36.1070 C   0  0  0  0  0  0  0  0  0  0  0  0
  -21.8490    3.3450  -35.6650 N   0  0  0  0  0  0  0  0  0  0  0  0
  -21.4220    4.3090  -36.4770 C   0  0  0  0  0  0  0  0  0  0  0  0
  -21.5250    4.1590  -37.8530 C   0  0  0  0  0  0  0  0  0  0  0  0
  -22.0840    2.9740  -38.2960 C   0  0  0  0  0  0  0  0  0  0  0  0
  -22.5010    2.0290  -37.4430 N   0  0  0  0  0  0  0  0  0  0  0  0
  -19.4660   -0.8150  -28.1130 H   0  0  0  0  0  0  0  0  0  0  0  0
  -20.2180   -0.8950  -30.4880 H   0  0  0  0  0  0  0  0  0  0  0  0
  -20.7940   -5.0520  -30.1200 H   0  0  0  0  0  0  0  0  0  0  0  0
  -20.0470   -4.9850  -27.7490 H   0  0  0  0  0  0  0  0  0  0  0  0
  -21.0170   -2.1930  -34.9940 H   0  0  0  0  0  0  0  0  0  0  0  0
  -23.3300   -3.3470  -33.9810 H   0  0  0  0  0  0  0  0  0  0  0  0
  -21.7930   -4.2460  -34.4250 H   0  0  0  0  0  0  0  0  0  0  0  0
  -21.6010    0.2860  -32.1970 H   0  0  0  0  0  0  0  0  0  0  0  0
  -20.7560    0.3870  -33.8250 H   0  0  0  0  0  0  0  0  0  0  0  0
  -22.1280    2.3270  -33.5900 H   0  0  0  0  0  0  0  0  0  0  0  0
  -23.5770    1.3650  -33.1980 H   0  0  0  0  0  0  0  0  0  0  0  0
  -24.5340    0.1510  -35.9060 H   0  0  0  0  0  0  0  0  0  0  0  0
  -22.9450   -0.5400  -36.4420 H   0  0  0  0  0  0  0  0  0  0  0  0
  -23.8890   -1.9620  -34.7130 H   0  0  0  0  0  0  0  0  0  0  0  0
  -24.3570   -0.5620  -33.7430 H   0  0  0  0  0  0  0  0  0  0  0  0
  -20.9890    5.2240  -36.1000 H   0  0  0  0  0  0  0  0  0  0  0  0
  -21.1800    4.9400  -38.5160 H   0  0  0  0  0  0  0  0  0  0  0  0
  -22.1660    2.8570  -39.3750 H   0  0  0  0  0  0  0  0  0  0  0  0
  2  1  1  0  0  0  0
  3 27  1  0  0  0  0
  3  2  2  0  0  0  0
  4  3  1  0  0  0  0
  5  4  2  0  0  0  0
  5  6  1  0  0  0  0
  6  7  2  0  0  0  0
  7  2  1  0  0  0  0
  7 30  1  0  0  0  0
  8  5  1  0  0  0  0
  9  8  1  0  0  0  0
 10  9  2  0  0  0  0
 11 31  1  6  0  0  0
 11 12  1  0  0  0  0
 11 15  1  0  0  0  0
 11  9  1  0  0  0  0
 12 13  1  0  0  0  0
 13  8  1  0  0  0  0
 13 14  2  0  0  0  0
 15 16  1  0  0  0  0
 16 34  1  0  0  0  0
 17 36  1  0  0  0  0
 17 16  1  0  0  0  0
 17 37  1  0  0  0  0
 18 17  1  0  0  0  0
 19 18  1  0  0  0  0
 19 20  1  0  0  0  0
 20 15  1  0  0  0  0
 20 41  1  0  0  0  0
 21 22  2  0  0  0  0
 21 18  1  0  0  0  0
 23 42  1  0  0  0  0
 23 22  1  0  0  0  0
 24 23  2  0  0  0  0
 25 24  1  0  0  0  0
 25 26  2  0  0  0  0
 26 21  1  0  0  0  0
 28  4  1  0  0  0  0
 29  6  1  0  0  0  0
 32 12  1  0  0  0  0
 33 12  1  0  0  0  0
 35 16  1  0  0  0  0
 38 19  1  0  0  0  0
 39 19  1  0  0  0  0
 40 20  1  0  0  0  0
 43 24  1  0  0  0  0
 44 25  1  0  0  0  0
M  END
>  <Pose>
1

>  <Score>
-5.80

$$$$
