
 OpenBabel03222201593D

 40 43  0  0  0  0  0  0  0  0999 V2000
  -24.0670    0.4610  -34.3270 I   0  0  0  0  0  0  0  0  0  0  0  0
  -22.1110    1.1780  -34.4140 C   0  0  0  0  0  0  0  0  0  0  0  0
  -21.7680    2.5280  -34.3390 C   0  0  0  0  0  0  0  0  0  0  0  0
  -20.4420    2.6320  -34.4450 N   0  0  0  0  0  0  0  0  0  0  0  0
  -19.9640    1.4260  -34.5790 N   0  0  0  0  0  0  0  0  0  0  0  0
  -20.9630    0.4800  -34.5650 C   0  0  0  0  0  0  0  0  0  0  0  0
  -20.6870   -0.9640  -34.6750 C   0  0  0  0  0  0  0  0  0  0  0  0
  -21.4260   -1.6010  -35.5030 O   0  0  0  0  0  0  0  0  0  0  0  0
  -19.7090   -1.6420  -33.9600 N   0  0  0  0  0  0  0  0  0  0  0  0
  -19.7470   -2.0090  -32.5950 C   0  0  0  0  0  0  0  0  0  0  0  0
  -20.5590   -3.0930  -32.2460 C   0  0  0  0  0  0  0  0  0  0  0  0
  -21.3460   -3.8910  -32.9880 N   0  0  0  0  0  0  0  0  0  0  0  0
  -21.9040   -4.7640  -32.2020 O   0  0  0  0  0  0  0  0  0  0  0  0
  -21.5210   -4.5780  -30.9770 N   0  0  0  0  0  0  0  0  0  0  0  0
  -20.6710   -3.5330  -30.9530 C   0  0  0  0  0  0  0  0  0  0  0  0
  -19.9680   -2.9010  -29.9500 C   0  0  0  0  0  0  0  0  0  0  0  0
  -19.1750   -1.8390  -30.3040 C   0  0  0  0  0  0  0  0  0  0  0  0
  -19.0540   -1.3800  -31.6220 C   0  0  0  0  0  0  0  0  0  0  0  0
  -20.0970   -3.3710  -28.6190 N   0  0  0  0  0  0  0  0  0  0  0  0
  -19.9590   -4.7810  -28.3180 C   0  0  0  0  0  0  0  0  0  0  0  0
  -20.0580   -4.9750  -26.8450 C   0  0  0  0  0  0  0  0  0  0  0  0
  -19.2620   -4.1230  -26.1050 O   0  0  0  0  0  0  0  0  0  0  0  0
  -19.4690   -2.7990  -26.3260 C   0  0  0  0  0  0  0  0  0  0  0  0
  -20.3690   -2.4950  -27.4970 C   0  0  0  0  0  0  0  0  0  0  0  0
  -19.6950    3.8970  -34.4110 C   0  0  0  0  0  0  0  0  0  0  0  0
  -22.4410    3.3730  -34.2160 H   0  0  0  0  0  0  0  0  0  0  0  0
  -18.8450   -1.9160  -34.5270 H   0  0  0  0  0  0  0  0  0  0  0  0
  -18.6260   -1.3450  -29.5160 H   0  0  0  0  0  0  0  0  0  0  0  0
  -18.3970   -0.5330  -31.7780 H   0  0  0  0  0  0  0  0  0  0  0  0
  -18.9660   -5.0900  -28.7050 H   0  0  0  0  0  0  0  0  0  0  0  0
  -20.7820   -5.3750  -28.7920 H   0  0  0  0  0  0  0  0  0  0  0  0
  -19.8390   -6.0380  -26.6200 H   0  0  0  0  0  0  0  0  0  0  0  0
  -21.1220   -4.7700  -26.5490 H   0  0  0  0  0  0  0  0  0  0  0  0
  -19.9410   -2.3550  -25.4250 H   0  0  0  0  0  0  0  0  0  0  0  0
  -18.4940   -2.2570  -26.4560 H   0  0  0  0  0  0  0  0  0  0  0  0
  -20.1360   -1.4620  -27.8310 H   0  0  0  0  0  0  0  0  0  0  0  0
  -21.4400   -2.5190  -27.2230 H   0  0  0  0  0  0  0  0  0  0  0  0
  -20.2680    4.5990  -33.7960 H   0  0  0  0  0  0  0  0  0  0  0  0
  -18.7370    3.6760  -33.8870 H   0  0  0  0  0  0  0  0  0  0  0  0
  -19.5510    4.2550  -35.4430 H   0  0  0  0  0  0  0  0  0  0  0  0
  2  3  2  0  0  0  0
  2  1  1  0  0  0  0
  3 26  1  0  0  0  0
  4 25  1  0  0  0  0
  4  3  1  0  0  0  0
  5  6  2  0  0  0  0
  5  4  1  0  0  0  0
  6  2  1  0  0  0  0
  7  6  1  0  0  0  0
  7  9  1  0  0  0  0
  8  7  2  0  0  0  0
  9 10  1  0  0  0  0
 10 11  1  0  0  0  0
 10 18  2  0  0  0  0
 11 15  1  0  0  0  0
 12 11  2  0  0  0  0
 12 13  1  0  0  0  0
 13 14  1  0  0  0  0
 14 15  2  0  0  0  0
 15 16  1  0  0  0  0
 16 19  1  0  0  0  0
 17 16  2  0  0  0  0
 17 28  1  0  0  0  0
 18 17  1  0  0  0  0
 19 20  1  0  0  0  0
 19 24  1  0  0  0  0
 20 21  1  0  0  0  0
 21 32  1  0  0  0  0
 21 33  1  0  0  0  0
 21 22  1  0  0  0  0
 23 22  1  0  0  0  0
 23 34  1  0  0  0  0
 24 37  1  0  0  0  0
 24 23  1  0  0  0  0
 25 39  1  0  0  0  0
 25 38  1  0  0  0  0
 27  9  1  0  0  0  0
 29 18  1  0  0  0  0
 30 20  1  0  0  0  0
 31 20  1  0  0  0  0
 35 23  1  0  0  0  0
 36 24  1  0  0  0  0
 40 25  1  0  0  0  0
M  END
>  <Pose>
1

>  <Score>
-7.12

$$$$
