
 OpenBabel03222201593D

 35 38  0  0  1  0  0  0  0  0999 V2000
  -20.7500   -6.4070  -29.0040 B   0  0  0  0  0  0  0  0  0  0  0  0
  -20.8500   -5.0630  -30.3440 C   0  0  0  0  0  0  0  0  0  0  0  0
  -20.5070   -3.7330  -30.1200 C   0  0  0  0  0  0  0  0  0  0  0  0
  -20.5990   -2.7900  -31.1310 C   0  0  0  0  0  0  0  0  0  0  0  0
  -21.0350   -3.1630  -32.3860 C   0  0  0  0  0  0  0  0  0  0  0  0
  -21.3730   -4.4670  -32.6150 C   0  0  0  0  0  0  0  0  0  0  0  0
  -21.2800   -5.3950  -31.6090 C   0  0  0  0  0  0  0  0  0  0  0  0
  -21.6440   -6.7180  -31.9220 O   0  0  0  0  0  0  0  0  0  0  0  0
  -21.9700   -4.9180  -34.3830 B   0  0  0  0  0  0  0  0  0  0  0  0
  -20.2670   -1.4670  -30.9340 C   0  0  0  0  0  0  0  0  0  0  0  0
  -19.8310   -1.1030  -29.6780 C   0  0  0  0  0  0  0  0  0  0  0  0
  -19.7660   -2.1670  -28.6680 C   0  0  0  0  0  0  0  0  0  0  0  0
  -19.3240   -1.7830  -27.4010 C   0  0  1  0  0  0  0  0  0  0  0  0
  -18.9770   -0.4760  -27.1450 C   0  0  0  0  0  0  0  0  0  0  0  0
  -18.5840   -0.1770  -25.9890 O   0  0  0  0  0  0  0  0  0  0  0  0
  -19.0500    0.5090  -28.1240 C   0  0  0  0  0  0  0  0  0  0  0  0
  -19.4730    0.2030  -29.3850 C   0  0  0  0  0  0  0  0  0  0  0  0
  -18.5480    2.3000  -27.6820 B   0  0  0  0  0  0  0  0  0  0  0  0
  -19.2160   -3.1230  -26.0280 B   0  0  0  0  0  0  0  0  0  0  0  0
  -20.0980   -3.4110  -28.9200 O   0  0  0  0  0  0  0  0  0  0  0  0
  -20.3720   -0.4710  -32.0020 C   0  0  0  0  0  0  0  0  0  0  0  0
  -19.2430   -0.0310  -32.6680 C   0  0  0  0  0  0  0  0  0  0  0  0
  -19.3150    0.9100  -33.6730 C   0  0  0  0  0  0  0  0  0  0  0  0
  -20.5520    1.4180  -34.0140 C   0  0  0  0  0  0  0  0  0  0  0  0
  -21.6880    1.0120  -33.3840 C   0  0  0  0  0  0  0  0  0  0  0  0
  -21.5970    0.0710  -32.3820 C   0  0  0  0  0  0  0  0  0  0  0  0
  -22.7970   -0.3610  -31.7060 C   0  0  0  0  0  0  0  0  0  0  0  0
  -23.6570   -1.0970  -32.2620 O   0  0  0  0  0  0  0  0  0  0  0  0
  -23.0450    0.0310  -30.3920 O   0  0  0  0  0  0  0  0  0  0  0  0
  -23.2220    1.7090  -33.8830 Cl  0  0  0  0  0  0  0  0  0  0  0  0
  -17.6700   -0.6970  -32.2140 Cl  0  0  0  0  0  0  0  0  0  0  0  0
  -21.1020   -2.3980  -33.1760 H   0  0  0  0  0  0  0  0  0  0  0  0
  -19.5480    0.9260  -30.1800 H   0  0  0  0  0  0  0  0  0  0  0  0
  -18.4020    1.2400  -34.1820 H   0  0  0  0  0  0  0  0  0  0  0  0
  -20.6170    2.1580  -34.8040 H   0  0  0  0  0  0  0  0  0  0  0  0
  2  3  2  0  0  0  0
  2  1  1  0  0  0  0
  3 20  1  0  0  0  0
  4 10  2  0  0  0  0
  4  3  1  0  0  0  0
  5  4  1  0  0  0  0
  6  5  1  0  0  0  0
  6  7  2  0  0  0  0
  7  2  1  0  0  0  0
  8  7  1  0  0  0  0
  9  6  1  0  0  0  0
 10 11  1  0  0  0  0
 11 17  1  0  0  0  0
 11 12  2  0  0  0  0
 12 13  1  0  0  0  0
 13 14  1  0  0  0  0
 13 19  1  1  0  0  0
 14 15  2  0  0  0  0
 16 18  1  0  0  0  0
 16 14  1  0  0  0  0
 17 16  2  0  0  0  0
 20 12  1  0  0  0  0
 21 10  1  0  0  0  0
 22 31  1  0  0  0  0
 22 21  2  0  0  0  0
 23 22  1  0  0  0  0
 24 23  2  0  0  0  0
 24 25  1  0  0  0  0
 25 26  2  0  0  0  0
 26 21  1  0  0  0  0
 26 27  1  0  0  0  0
 27 29  1  0  0  0  0
 28 27  2  0  0  0  0
 30 25  1  0  0  0  0
 32  5  1  0  0  0  0
 33 17  1  0  0  0  0
 34 23  1  0  0  0  0
 35 24  1  0  0  0  0
M  END
>  <Pose>
1

>  <Score>
-5.88

$$$$
