
 OpenBabel03222201593D

 35 39  0  0  0  0  0  0  0  0999 V2000
  -17.9340   -0.8540  -25.0010 B   0  0  0  0  0  0  0  0  0  0  0  0
  -18.3930    0.1220  -26.5730 C   0  0  0  0  0  0  0  0  0  0  0  0
  -19.0020   -0.5060  -27.6760 C   0  0  0  0  0  0  0  0  0  0  0  0
  -19.3450    0.1560  -28.8180 C   0  0  0  0  0  0  0  0  0  0  0  0
  -19.0730    1.5240  -28.8770 C   0  0  0  0  0  0  0  0  0  0  0  0
  -18.4830    2.1330  -27.8090 C   0  0  0  0  0  0  0  0  0  0  0  0
  -18.1340    1.4690  -26.6500 C   0  0  0  0  0  0  0  0  0  0  0  0
  -17.5290    2.1620  -25.5880 O   0  0  0  0  0  0  0  0  0  0  0  0
  -18.1080    4.0020  -27.8810 B   0  0  0  0  0  0  0  0  0  0  0  0
  -19.9740   -0.5220  -29.9430 C   0  0  0  0  0  0  0  0  0  0  0  0
  -21.2660    0.0620  -30.1000 O   0  0  0  0  0  0  0  0  0  0  0  0
  -21.4180    0.6510  -31.3260 C   0  0  0  0  0  0  0  0  0  0  0  0
  -22.4480    1.2370  -31.7300 O   0  0  0  0  0  0  0  0  0  0  0  0
  -20.1630    0.4490  -32.0230 C   0  0  0  0  0  0  0  0  0  0  0  0
  -19.2770   -0.2460  -31.2320 C   0  0  0  0  0  0  0  0  0  0  0  0
  -18.0490   -0.5220  -31.7350 C   0  0  0  0  0  0  0  0  0  0  0  0
  -17.7160   -0.1070  -33.0080 C   0  0  0  0  0  0  0  0  0  0  0  0
  -18.6000    0.5900  -33.8030 C   0  0  0  0  0  0  0  0  0  0  0  0
  -19.8450    0.8760  -33.3090 C   0  0  0  0  0  0  0  0  0  0  0  0
  -20.1910   -1.9490  -29.7240 C   0  0  0  0  0  0  0  0  0  0  0  0
  -19.8240   -2.5570  -28.5560 C   0  0  0  0  0  0  0  0  0  0  0  0
  -20.0410   -3.9370  -28.3620 C   0  0  0  0  0  0  0  0  0  0  0  0
  -20.6300   -4.6620  -29.3710 C   0  0  0  0  0  0  0  0  0  0  0  0
  -21.0060   -4.0520  -30.5590 C   0  0  0  0  0  0  0  0  0  0  0  0
  -20.7910   -2.7150  -30.7400 C   0  0  0  0  0  0  0  0  0  0  0  0
  -21.8230   -5.0450  -31.9650 B   0  0  0  0  0  0  0  0  0  0  0  0
  -20.8390   -6.0180  -29.1670 O   0  0  0  0  0  0  0  0  0  0  0  0
  -19.5140   -4.7510  -26.7140 B   0  0  0  0  0  0  0  0  0  0  0  0
  -19.2270   -1.8740  -27.5050 O   0  0  0  0  0  0  0  0  0  0  0  0
  -19.3550    2.0280  -29.7950 H   0  0  0  0  0  0  0  0  0  0  0  0
  -17.3300   -1.0640  -31.1450 H   0  0  0  0  0  0  0  0  0  0  0  0
  -16.7360   -0.3110  -33.4440 H   0  0  0  0  0  0  0  0  0  0  0  0
  -18.3460    0.9230  -34.8130 H   0  0  0  0  0  0  0  0  0  0  0  0
  -20.5540    1.4190  -33.9120 H   0  0  0  0  0  0  0  0  0  0  0  0
  -21.0600   -2.1810  -31.6410 H   0  0  0  0  0  0  0  0  0  0  0  0
  2  1  1  0  0  0  0
  3 29  1  0  0  0  0
  3  2  2  0  0  0  0
  4  3  1  0  0  0  0
  5  4  2  0  0  0  0
  5  6  1  0  0  0  0
  6  7  2  0  0  0  0
  7  2  1  0  0  0  0
  7  8  1  0  0  0  0
  9  6  1  0  0  0  0
 10 20  1  0  0  0  0
 10  4  1  0  0  0  0
 11 10  1  0  0  0  0
 12 11  1  0  0  0  0
 13 12  2  0  0  0  0
 14 12  1  0  0  0  0
 14 15  1  0  0  0  0
 15 10  1  0  0  0  0
 16 15  2  0  0  0  0
 16 31  1  0  0  0  0
 17 16  1  0  0  0  0
 18 19  1  0  0  0  0
 18 17  2  0  0  0  0
 19 14  2  0  0  0  0
 20 21  1  0  0  0  0
 21 22  2  0  0  0  0
 21 29  1  0  0  0  0
 22 28  1  0  0  0  0
 23 27  1  0  0  0  0
 23 22  1  0  0  0  0
 24 23  2  0  0  0  0
 25 24  1  0  0  0  0
 25 20  2  0  0  0  0
 26 24  1  0  0  0  0
 30  5  1  0  0  0  0
 32 17  1  0  0  0  0
 33 18  1  0  0  0  0
 34 19  1  0  0  0  0
 35 25  1  0  0  0  0
M  END
>  <Pose>
1

>  <Score>
-6.49

$$$$
