
 OpenBabel03222201593D

 35 39  0  0  0  0  0  0  0  0999 V2000
  -20.5780   -6.1670  -28.7310 I   0  0  0  0  0  0  0  0  0  0  0  0
  -20.6750   -4.8070  -30.3520 C   0  0  0  0  0  0  0  0  0  0  0  0
  -20.3160   -3.4780  -30.0700 C   0  0  0  0  0  0  0  0  0  0  0  0
  -20.3700   -2.5860  -31.0930 C   0  0  0  0  0  0  0  0  0  0  0  0
  -20.7760   -3.0240  -32.3670 C   0  0  0  0  0  0  0  0  0  0  0  0
  -21.1250   -4.3200  -32.6400 C   0  0  0  0  0  0  0  0  0  0  0  0
  -21.0700   -5.2240  -31.6020 C   0  0  0  0  0  0  0  0  0  0  0  0
  -21.4170   -6.5460  -31.8430 O   0  0  0  0  0  0  0  0  0  0  0  0
  -21.7270   -4.9130  -34.5840 I   0  0  0  0  0  0  0  0  0  0  0  0
  -20.0150   -1.1750  -30.8990 C   0  0  0  0  0  0  0  0  0  0  0  0
  -21.0390   -0.3080  -31.3490 O   0  0  0  0  0  0  0  0  0  0  0  0
  -20.6180    0.5220  -32.3540 C   0  0  0  0  0  0  0  0  0  0  0  0
  -21.2680    1.4050  -32.9740 O   0  0  0  0  0  0  0  0  0  0  0  0
  -19.2200    0.2070  -32.6120 C   0  0  0  0  0  0  0  0  0  0  0  0
  -18.8570   -0.7880  -31.7640 C   0  0  0  0  0  0  0  0  0  0  0  0
  -17.5420   -1.2650  -31.8240 C   0  0  0  0  0  0  0  0  0  0  0  0
  -16.6510   -0.7300  -32.7260 C   0  0  0  0  0  0  0  0  0  0  0  0
  -17.0190    0.2800  -33.5900 C   0  0  0  0  0  0  0  0  0  0  0  0
  -18.3060    0.7570  -33.5390 C   0  0  0  0  0  0  0  0  0  0  0  0
  -19.6100   -0.8610  -29.5180 C   0  0  0  0  0  0  0  0  0  0  0  0
  -19.5760   -1.7960  -28.5420 C   0  0  0  0  0  0  0  0  0  0  0  0
  -19.1850   -1.4270  -27.2590 C   0  0  0  0  0  0  0  0  0  0  0  0
  -18.8350   -0.1360  -26.9800 C   0  0  0  0  0  0  0  0  0  0  0  0
  -18.8570    0.8400  -27.9490 C   0  0  0  0  0  0  0  0  0  0  0  0
  -19.2460    0.4540  -29.2010 C   0  0  0  0  0  0  0  0  0  0  0  0
  -18.3140    2.8370  -27.5110 I   0  0  0  0  0  0  0  0  0  0  0  0
  -18.4470    0.2050  -25.6900 O   0  0  0  0  0  0  0  0  0  0  0  0
  -19.1350   -2.9040  -25.7300 I   0  0  0  0  0  0  0  0  0  0  0  0
  -19.9260   -3.1360  -28.7730 O   0  0  0  0  0  0  0  0  0  0  0  0
  -20.8120   -2.2850  -33.1800 H   0  0  0  0  0  0  0  0  0  0  0  0
  -17.2970   -2.0520  -31.1350 H   0  0  0  0  0  0  0  0  0  0  0  0
  -15.6540   -1.1240  -32.7400 H   0  0  0  0  0  0  0  0  0  0  0  0
  -16.3220    0.7180  -34.3160 H   0  0  0  0  0  0  0  0  0  0  0  0
  -18.6500    1.5510  -34.1960 H   0  0  0  0  0  0  0  0  0  0  0  0
  -19.2720    1.2010  -29.9820 H   0  0  0  0  0  0  0  0  0  0  0  0
  2  3  1  0  0  0  0
  2  1  1  0  0  0  0
  3 29  1  0  0  0  0
  4 10  1  0  0  0  0
  4  3  2  0  0  0  0
  5  4  1  0  0  0  0
  6  5  2  0  0  0  0
  6  7  1  0  0  0  0
  7  2  2  0  0  0  0
  8  7  1  0  0  0  0
  9  6  1  0  0  0  0
 10 20  1  0  0  0  0
 11 10  1  0  0  0  0
 12 11  1  0  0  0  0
 13 12  2  0  0  0  0
 14 12  1  0  0  0  0
 14 15  1  0  0  0  0
 15 10  1  0  0  0  0
 16 15  2  0  0  0  0
 16 31  1  0  0  0  0
 17 16  1  0  0  0  0
 18 19  1  0  0  0  0
 18 17  2  0  0  0  0
 19 14  2  0  0  0  0
 20 25  2  0  0  0  0
 20 21  1  0  0  0  0
 21 22  2  0  0  0  0
 22 23  1  0  0  0  0
 22 28  1  0  0  0  0
 23 27  1  0  0  0  0
 24 26  1  0  0  0  0
 24 23  2  0  0  0  0
 25 24  1  0  0  0  0
 29 21  1  0  0  0  0
 30  5  1  0  0  0  0
 32 17  1  0  0  0  0
 33 18  1  0  0  0  0
 34 19  1  0  0  0  0
 35 25  1  0  0  0  0
M  END
>  <Pose>
1

>  <Score>
-5.67

$$$$
