
 OpenBabel03222201593D

 38 41  0  0  1  0  0  0  0  0999 V2000
  -18.8680   -0.0850  -32.4360 S   0  0  0  0  0  0  0  0  0  0  0  0
  -18.7530    1.2950  -33.0230 O   0  0  0  0  0  0  0  0  0  0  0  0
  -17.4870   -0.5950  -32.1070 O   0  0  0  0  0  0  0  0  0  0  0  0
  -19.6210   -1.0690  -33.5730 O   0  0  0  0  0  0  0  0  0  0  0  0
  -19.8190    0.0630  -31.0200 O   0  0  0  0  0  0  0  0  0  0  0  0
  -19.7550   -0.8850  -30.0060 C   0  0  0  0  0  0  0  0  0  0  0  0
  -20.2000   -2.2040  -30.1740 C   0  0  0  0  0  0  0  0  0  0  0  0
  -19.9630   -2.8110  -28.9600 C   0  0  0  0  0  0  0  0  0  0  0  0
  -19.4160   -1.9110  -28.1320 N   0  0  0  0  0  0  0  0  0  0  0  0
  -19.2680   -0.6950  -28.7400 C   0  0  2  0  0  0  0  0  0  0  0  0
  -18.7430    0.5070  -28.1020 C   0  0  0  0  0  0  0  0  0  0  0  0
  -19.1900    1.7570  -28.4050 N   0  0  0  0  0  0  0  0  0  0  0  0
  -18.5320    2.6830  -27.6900 C   0  0  0  0  0  0  0  0  0  0  0  0
  -17.6130    2.0520  -26.8810 C   0  0  0  0  0  0  0  0  0  0  0  0
  -17.7730    0.6920  -27.1680 C   0  0  0  0  0  0  0  0  0  0  0  0
  -17.0130   -0.2870  -26.5530 O   0  0  0  0  0  0  0  0  0  0  0  0
  -17.6970   -1.4620  -25.5240 S   0  0  0  0  0  0  0  0  0  0  0  0
  -18.6650   -2.3330  -26.2710 O   0  0  0  0  0  0  0  0  0  0  0  0
  -18.4480   -0.8330  -24.3840 O   0  0  0  0  0  0  0  0  0  0  0  0
  -16.4590   -2.3860  -24.8220 O   0  0  0  0  0  0  0  0  0  0  0  0
  -16.7840    2.7500  -26.0250 C   0  0  0  0  0  0  0  0  0  0  0  0
  -16.8520    4.1320  -25.9540 C   0  0  0  0  0  0  0  0  0  0  0  0
  -17.7720    4.7820  -26.7620 C   0  0  0  0  0  0  0  0  0  0  0  0
  -18.5920    4.0670  -27.6110 C   0  0  0  0  0  0  0  0  0  0  0  0
  -19.8340    5.0240  -28.6950 B   0  0  0  0  0  0  0  0  0  0  0  0
  -15.7110    5.1220  -24.7740 B   0  0  0  0  0  0  0  0  0  0  0  0
  -20.3060   -4.1520  -28.8100 C   0  0  0  0  0  0  0  0  0  0  0  0
  -20.8640   -4.8260  -29.8610 C   0  0  0  0  0  0  0  0  0  0  0  0
  -21.1050   -4.2140  -31.0950 C   0  0  0  0  0  0  0  0  0  0  0  0
  -20.7600   -2.8670  -31.2420 C   0  0  0  0  0  0  0  0  0  0  0  0
  -21.8830   -5.2050  -32.5160 B   0  0  0  0  0  0  0  0  0  0  0  0
  -19.9920   -5.0140  -27.1530 B   0  0  0  0  0  0  0  0  0  0  0  0
  -19.1270   -2.0980  -27.1300 H   0  0  0  0  0  0  0  0  0  0  0  0
  -19.9380    1.9980  -29.0910 H   0  0  0  0  0  0  0  0  0  0  0  0
  -16.0900    2.2110  -25.4210 H   0  0  0  0  0  0  0  0  0  0  0  0
  -17.8240    5.8770  -26.7050 H   0  0  0  0  0  0  0  0  0  0  0  0
  -21.1430   -5.8690  -29.7840 H   0  0  0  0  0  0  0  0  0  0  0  0
  -20.9340   -2.3600  -32.1850 H   0  0  0  0  0  0  0  0  0  0  0  0
  1  3  1  0  0  0  0
  1  5  1  0  0  0  0
  2  1  1  0  0  0  0
  4  1  1  0  0  0  0
  5  6  1  0  0  0  0
  6 10  1  0  0  0  0
  7  6  2  0  0  0  0
  7  8  1  0  0  0  0
  8 27  1  0  0  0  0
  8  9  2  0  0  0  0
 10  9  1  0  0  0  0
 10 11  1  1  0  0  0
 11 15  2  0  0  0  0
 12 11  1  0  0  0  0
 12 13  1  0  0  0  0
 13 24  2  0  0  0  0
 13 14  1  0  0  0  0
 14 21  2  0  0  0  0
 15 14  1  0  0  0  0
 15 16  1  0  0  0  0
 16 17  1  0  0  0  0
 17 20  1  0  0  0  0
 17 19  1  0  0  0  0
 18 17  1  0  0  0  0
 21 22  1  0  0  0  0
 21 35  1  0  0  0  0
 22 26  1  0  0  0  0
 23 36  1  0  0  0  0
 23 22  2  0  0  0  0
 24 23  1  0  0  0  0
 25 24  1  0  0  0  0
 27 32  1  0  0  0  0
 28 37  1  0  0  0  0
 28 27  2  0  0  0  0
 29 28  1  0  0  0  0
 30 29  2  0  0  0  0
 30  7  1  0  0  0  0
 31 29  1  0  0  0  0
 33 18  1  0  0  0  0
 34 12  1  0  0  0  0
 38 30  1  0  0  0  0
M  END
>  <Pose>
1

>  <Score>
-7.82

$$$$
