
 OpenBabel03222201593D

 34 37  0  0  1  0  0  0  0  0999 V2000
  -19.2660    1.5570  -33.4710 P   0  0  1  0  0  0  0  0  0  0  0  0
  -19.2320    2.7090  -32.4910 O   0  0  0  0  0  0  0  0  0  0  0  0
  -18.3300    0.2470  -32.9060 O   0  0  0  0  0  0  0  0  0  0  0  0
  -19.2310   -0.7600  -32.5670 C   0  0  2  0  0  0  0  0  0  0  0  0
  -20.4150   -0.0540  -31.8960 C   0  0  2  0  0  0  0  0  0  0  0  0
  -20.8060   -0.9880  -30.9690 O   0  0  0  0  0  0  0  0  0  0  0  0
  -19.6080   -1.2270  -30.2970 C   0  0  2  0  0  0  0  0  0  0  0  0
  -18.7080   -1.6480  -31.4580 C   0  0  2  0  0  0  0  0  0  0  0  0
  -17.3760   -1.4600  -31.1900 O   0  0  0  0  0  0  0  0  0  0  0  0
  -19.7360   -2.2730  -29.3130 N   0  0  0  0  0  0  0  0  0  0  0  0
  -19.3030   -2.1560  -28.0520 C   0  0  0  0  0  0  0  0  0  0  0  0
  -18.6850   -1.1360  -27.3960 N   0  0  0  0  0  0  0  0  0  0  0  0
  -18.3220   -1.2040  -26.1180 C   0  0  0  0  0  0  0  0  0  0  0  0
  -18.5780   -2.3370  -25.4390 N   0  0  0  0  0  0  0  0  0  0  0  0
  -19.1880   -3.3860  -26.0270 C   0  0  0  0  0  0  0  0  0  0  0  0
  -19.5640   -3.3180  -27.3530 C   0  0  0  0  0  0  0  0  0  0  0  0
  -20.1680   -4.1420  -28.2220 N   0  0  0  0  0  0  0  0  0  0  0  0
  -20.2700   -3.5040  -29.4110 C   0  0  0  0  0  0  0  0  0  0  0  0
  -21.0500   -4.2170  -31.0090 B   0  0  0  0  0  0  0  0  0  0  0  0
  -19.4550   -4.5600  -25.3280 O   0  0  0  0  0  0  0  0  0  0  0  0
  -17.6770   -0.1090  -25.4750 N   0  0  0  0  0  0  0  0  0  0  0  0
  -21.4160    0.2650  -32.9410 C   0  0  0  0  0  0  0  0  0  0  0  0
  -20.8120    1.0950  -33.8920 O   0  0  0  0  0  0  0  0  0  0  0  0
  -18.4740    2.1140  -34.8820 O   0  0  0  0  0  0  0  0  0  0  0  0
  -19.5580   -1.3320  -33.4520 H   0  0  0  0  0  0  0  0  0  0  0  0
  -20.0740    0.8480  -31.3550 H   0  0  0  0  0  0  0  0  0  0  0  0
  -19.1560   -0.2950  -29.8880 H   0  0  0  0  0  0  0  0  0  0  0  0
  -18.9430   -2.7270  -31.6900 H   0  0  0  0  0  0  0  0  0  0  0  0
  -16.8570   -1.4070  -32.0550 H   0  0  0  0  0  0  0  0  0  0  0  0
  -19.8700   -5.3260  -25.8790 H   0  0  0  0  0  0  0  0  0  0  0  0
  -17.2120   -0.3110  -24.5640 H   0  0  0  0  0  0  0  0  0  0  0  0
  -17.6630    0.8580  -25.8860 H   0  0  0  0  0  0  0  0  0  0  0  0
  -21.6790   -0.6750  -33.4910 H   0  0  0  0  0  0  0  0  0  0  0  0
  -22.3210    0.7220  -32.5010 H   0  0  0  0  0  0  0  0  0  0  0  0
  1 24  2  6  0  0  0
  1  3  1  0  0  0  0
  1  2  1  0  0  0  0
  3  4  1  0  0  0  0
  4 25  1  6  0  0  0
  4  5  1  0  0  0  0
  4  8  1  0  0  0  0
  5 26  1  1  0  0  0
  5  6  1  0  0  0  0
  6  7  1  0  0  0  0
  7 27  1  1  0  0  0
  7 10  1  0  0  0  0
  8 28  1  6  0  0  0
  8  9  1  0  0  0  0
  8  7  1  0  0  0  0
 10 11  1  0  0  0  0
 11 12  1  0  0  0  0
 11 16  2  0  0  0  0
 12 13  2  0  0  0  0
 13 21  1  0  0  0  0
 13 14  1  0  0  0  0
 15 14  2  0  0  0  0
 15 20  1  0  0  0  0
 16 15  1  0  0  0  0
 17 16  1  0  0  0  0
 18 10  1  0  0  0  0
 18 17  2  0  0  0  0
 19 18  1  0  0  0  0
 21 31  1  0  0  0  0
 22 34  1  0  0  0  0
 22  5  1  0  0  0  0
 23  1  1  0  0  0  0
 23 22  1  0  0  0  0
 29  9  1  0  0  0  0
 30 20  1  0  0  0  0
 32 21  1  0  0  0  0
 33 22  1  0  0  0  0
M  END
>  <Pose>
1

>  <Score>
-7.41

$$$$
