
 OpenBabel03222201593D

 46 51  0  0  1  0  0  0  0  0999 V2000
  -16.9800    6.1150  -28.4680 P   0  0  2  0  0  0  0  0  0  0  0  0
  -15.8290    6.9630  -29.4540 S   0  0  0  0  0  0  0  0  0  0  0  0
  -16.1170    5.1250  -27.3910 O   0  0  0  0  0  0  0  0  0  0  0  0
  -16.7160    3.8700  -27.4380 C   0  0  2  0  0  0  0  0  0  0  0  0
  -18.2260    4.1230  -27.4220 C   0  0  2  0  0  0  0  0  0  0  0  0
  -18.7370    3.0430  -26.7560 O   0  0  0  0  0  0  0  0  0  0  0  0
  -17.8420    2.6930  -25.7480 C   0  0  2  0  0  0  0  0  0  0  0  0
  -16.4710    3.0500  -26.2070 C   0  0  2  0  0  0  0  0  0  0  0  0
  -15.7920    3.8050  -25.2420 O   0  0  0  0  0  0  0  0  0  0  0  0
  -17.9750    1.2820  -25.3960 N   0  0  0  0  0  0  0  0  0  0  0  0
  -18.4240    0.2680  -26.1780 C   0  0  0  0  0  0  0  0  0  0  0  0
  -18.4020   -0.9250  -25.4870 C   0  0  0  0  0  0  0  0  0  0  0  0
  -17.9280   -0.6150  -24.2620 N   0  0  0  0  0  0  0  0  0  0  0  0
  -17.6740    0.7090  -24.2170 C   0  0  0  0  0  0  0  0  0  0  0  0
  -16.9880    1.7030  -22.7340 B   0  0  0  0  0  0  0  0  0  0  0  0
  -18.8230   -2.0810  -26.1130 C   0  0  0  0  0  0  0  0  0  0  0  0
  -18.8080   -3.1690  -25.4950 O   0  0  0  0  0  0  0  0  0  0  0  0
  -19.2620   -2.0900  -27.3920 N   0  0  0  0  0  0  0  0  0  0  0  0
  -19.2750   -0.9150  -28.0470 C   0  0  0  0  0  0  0  0  0  0  0  0
  -19.7450   -1.1880  -29.2770 N   0  0  0  0  0  0  0  0  0  0  0  0
  -20.0300   -2.4940  -29.4240 C   0  0  0  0  0  0  0  0  0  0  0  0
  -19.7200   -3.0750  -28.2120 C   0  0  0  0  0  0  0  0  0  0  0  0
  -20.5590   -3.1670  -30.6180 C   0  0  0  0  0  0  0  0  0  0  0  0
  -21.0470   -4.4510  -30.5330 C   0  0  0  0  0  0  0  0  0  0  0  0
  -21.5530   -5.1130  -31.6450 C   0  0  0  0  0  0  0  0  0  0  0  0
  -21.5630   -4.4600  -32.8560 C   0  0  0  0  0  0  0  0  0  0  0  0
  -21.0810   -3.1670  -32.9850 C   0  0  0  0  0  0  0  0  0  0  0  0
  -20.5910   -2.5590  -31.8490 C   0  0  0  0  0  0  0  0  0  0  0  0
  -18.8630    0.2380  -27.4470 N   0  0  0  0  0  0  0  0  0  0  0  0
  -18.6550    4.2140  -28.8670 C   0  0  0  0  0  0  0  0  0  0  0  0
  -17.9430    5.2000  -29.5110 O   0  0  0  0  0  0  0  0  0  0  0  0
  -17.9940    7.1890  -27.6470 O   0  0  0  0  0  0  0  0  0  0  0  0
  -16.3960    3.3390  -28.3440 H   0  0  0  0  0  0  0  0  0  0  0  0
  -18.4830    5.0360  -26.8750 H   0  0  0  0  0  0  0  0  0  0  0  0
  -18.1630    3.2930  -24.8460 H   0  0  0  0  0  0  0  0  0  0  0  0
  -15.8980    2.1580  -26.4650 H   0  0  0  0  0  0  0  0  0  0  0  0
  -14.8250    3.8190  -25.3970 H   0  0  0  0  0  0  0  0  0  0  0  0
  -19.8150   -4.1250  -27.9410 H   0  0  0  0  0  0  0  0  0  0  0  0
  -21.0390   -4.9620  -29.5840 H   0  0  0  0  0  0  0  0  0  0  0  0
  -21.9390   -6.1240  -31.5830 H   0  0  0  0  0  0  0  0  0  0  0  0
  -21.9520   -4.9520  -33.7350 H   0  0  0  0  0  0  0  0  0  0  0  0
  -21.1000   -2.6710  -33.9530 H   0  0  0  0  0  0  0  0  0  0  0  0
  -20.2130   -1.5540  -31.9310 H   0  0  0  0  0  0  0  0  0  0  0  0
  -18.8750    1.1480  -27.9600 H   0  0  0  0  0  0  0  0  0  0  0  0
  -19.7530    4.3020  -28.9840 H   0  0  0  0  0  0  0  0  0  0  0  0
  -18.3830    3.2310  -29.3500 H   0  0  0  0  0  0  0  0  0  0  0  0
  1  2  1  6  0  0  0
  1 32  2  0  0  0  0
  1  3  1  0  0  0  0
  4 33  1  6  0  0  0
  4  5  1  0  0  0  0
  4  3  1  0  0  0  0
  4  8  1  0  0  0  0
  5 34  1  1  0  0  0
  5  6  1  0  0  0  0
  6  7  1  0  0  0  0
  7 10  1  0  0  0  0
  7 35  1  1  0  0  0
  8 36  1  6  0  0  0
  8  7  1  0  0  0  0
  8  9  1  0  0  0  0
 10 14  1  0  0  0  0
 11 12  2  0  0  0  0
 11 10  1  0  0  0  0
 12 13  1  0  0  0  0
 13 14  2  0  0  0  0
 14 15  1  0  0  0  0
 16 17  2  0  0  0  0
 16 12  1  0  0  0  0
 18 16  1  0  0  0  0
 19 29  1  0  0  0  0
 19 18  1  0  0  0  0
 20 19  2  0  0  0  0
 21 20  1  0  0  0  0
 21 22  2  0  0  0  0
 22 38  1  0  0  0  0
 22 18  1  0  0  0  0
 23 24  1  0  0  0  0
 23 21  1  0  0  0  0
 24 39  1  0  0  0  0
 25 40  1  0  0  0  0
 25 24  2  0  0  0  0
 26 25  1  0  0  0  0
 27 26  2  0  0  0  0
 27 28  1  0  0  0  0
 28 23  2  0  0  0  0
 29 11  1  0  0  0  0
 30  5  1  0  0  0  0
 31 30  1  0  0  0  0
 31  1  1  0  0  0  0
 37  9  1  0  0  0  0
 41 26  1  0  0  0  0
 42 27  1  0  0  0  0
 43 28  1  0  0  0  0
 44 29  1  0  0  0  0
 45 30  1  0  0  0  0
 46 30  1  0  0  0  0
M  END
>  <Pose>
1

>  <Score>
-8.52

$$$$
