
 OpenBabel03222201593D

 33 36  0  0  1  0  0  0  0  0999 V2000
  -20.0720   -0.1210  -34.8840 P   0  0  2  0  0  0  0  0  0  0  0  0
  -19.8440   -0.6230  -36.3110 O   0  0  0  0  0  0  0  0  0  0  0  0
  -18.8850   -0.8020  -33.9130 O   0  0  0  0  0  0  0  0  0  0  0  0
  -19.4060   -1.3240  -32.7580 C   0  0  2  0  0  0  0  0  0  0  0  0
  -20.5830   -0.4230  -32.3620 C   0  0  2  0  0  0  0  0  0  0  0  0
  -20.6900   -0.5080  -31.0060 O   0  0  0  0  0  0  0  0  0  0  0  0
  -19.4830   -0.8470  -30.4610 C   0  0  2  0  0  0  0  0  0  0  0  0
  -18.5190   -1.1620  -31.5520 C   0  0  2  0  0  0  0  0  0  0  0  0
  -17.5820   -0.1720  -31.7730 O   0  0  0  0  0  0  0  0  0  0  0  0
  -19.7010   -1.9700  -29.5600 N   0  0  0  0  0  0  0  0  0  0  0  0
  -19.2890   -2.0450  -28.2720 C   0  0  0  0  0  0  0  0  0  0  0  0
  -18.6100   -1.1690  -27.5120 N   0  0  0  0  0  0  0  0  0  0  0  0
  -18.3170   -1.4880  -26.2410 C   0  0  0  0  0  0  0  0  0  0  0  0
  -18.7060   -2.6750  -25.7420 N   0  0  0  0  0  0  0  0  0  0  0  0
  -19.3870   -3.5970  -26.4410 C   0  0  0  0  0  0  0  0  0  0  0  0
  -19.6860   -3.2620  -27.7590 C   0  0  0  0  0  0  0  0  0  0  0  0
  -20.3320   -3.9190  -28.7180 N   0  0  0  0  0  0  0  0  0  0  0  0
  -20.3350   -3.1280  -29.8060 C   0  0  0  0  0  0  0  0  0  0  0  0
  -21.1220   -3.5280  -31.5200 B   0  0  0  0  0  0  0  0  0  0  0  0
  -19.8020   -4.8530  -25.9250 N   0  0  0  0  0  0  0  0  0  0  0  0
  -21.7640   -0.9220  -33.1300 C   0  0  0  0  0  0  0  0  0  0  0  0
  -21.6240   -0.5490  -34.4460 O   0  0  0  0  0  0  0  0  0  0  0  0
  -19.8710    1.5770  -34.9540 O   0  0  0  0  0  0  0  0  0  0  0  0
  -19.7320   -2.3650  -32.8300 H   0  0  0  0  0  0  0  0  0  0  0  0
  -20.3770    0.6340  -32.6400 H   0  0  0  0  0  0  0  0  0  0  0  0
  -19.0600    0.0310  -29.8920 H   0  0  0  0  0  0  0  0  0  0  0  0
  -17.9720   -2.1010  -31.3250 H   0  0  0  0  0  0  0  0  0  0  0  0
  -16.6650   -0.4910  -31.7800 H   0  0  0  0  0  0  0  0  0  0  0  0
  -17.7600   -0.7840  -25.5980 H   0  0  0  0  0  0  0  0  0  0  0  0
  -20.6680   -4.8740  -25.3080 H   0  0  0  0  0  0  0  0  0  0  0  0
  -19.3280   -5.7420  -26.1080 H   0  0  0  0  0  0  0  0  0  0  0  0
  -21.7220   -2.0500  -33.1100 H   0  0  0  0  0  0  0  0  0  0  0  0
  -22.7350   -0.6600  -32.6840 H   0  0  0  0  0  0  0  0  0  0  0  0
  1  2  2  6  0  0  0
  1 22  1  0  0  0  0
  1  3  1  0  0  0  0
  3  4  1  0  0  0  0
  4 24  1  6  0  0  0
  4  5  1  0  0  0  0
  4  8  1  0  0  0  0
  5 25  1  6  0  0  0
  5  6  1  0  0  0  0
  6  7  1  0  0  0  0
  7 26  1  1  0  0  0
  7 10  1  0  0  0  0
  8 27  1  1  0  0  0
  8  7  1  0  0  0  0
  9  8  1  0  0  0  0
 10 11  1  0  0  0  0
 11 16  2  0  0  0  0
 11 12  1  0  0  0  0
 12 13  2  0  0  0  0
 13 14  1  0  0  0  0
 13 29  1  0  0  0  0
 15 20  1  0  0  0  0
 15 14  2  0  0  0  0
 16 15  1  0  0  0  0
 17 16  1  0  0  0  0
 18 10  1  0  0  0  0
 18 17  2  0  0  0  0
 19 18  1  0  0  0  0
 20 30  1  0  0  0  0
 21 32  1  0  0  0  0
 21 33  1  0  0  0  0
 21  5  1  0  0  0  0
 22 21  1  0  0  0  0
 23  1  1  0  0  0  0
 28  9  1  0  0  0  0
 31 20  1  0  0  0  0
M  END
>  <Pose>
1

>  <Score>
-6.77

$$$$
