
 OpenBabel03222201593D

 54 57  0  0  0  0  0  0  0  0999 V2000
  -18.9880   -0.2450  -28.4550 S   0  0  0  0  0  0  0  0  0  0  0  0
  -17.5100   -0.1580  -28.8180 O   0  0  0  0  0  0  0  0  0  0  0  0
  -19.6130    1.0060  -28.9720 O   0  0  0  0  0  0  0  0  0  0  0  0
  -19.0410   -0.3380  -26.7360 N   0  0  0  0  0  0  0  0  0  0  0  0
  -17.7440   -0.1330  -26.1240 C   0  0  0  0  0  0  0  0  0  0  0  0
  -17.6720    1.3420  -25.7610 C   0  0  0  0  0  0  0  0  0  0  0  0
  -17.0780    2.1450  -26.8870 C   0  0  0  0  0  0  0  0  0  0  0  0
  -17.1960    3.5220  -26.5820 N   0  0  0  0  0  0  0  0  0  0  0  0
  -16.5100    3.9780  -25.4260 C   0  0  0  0  0  0  0  0  0  0  0  0
  -17.1410    5.2850  -24.9780 C   0  0  0  0  0  0  0  0  0  0  0  0
  -17.4160    6.1100  -26.0510 O   0  0  0  0  0  0  0  0  0  0  0  0
  -16.7150    5.7740  -27.2030 C   0  0  0  0  0  0  0  0  0  0  0  0
  -17.2570    4.4210  -27.6740 C   0  0  0  0  0  0  0  0  0  0  0  0
  -19.6900   -1.6710  -29.1700 C   0  0  0  0  0  0  0  0  0  0  0  0
  -19.9880   -1.6820  -30.5360 C   0  0  0  0  0  0  0  0  0  0  0  0
  -20.5480   -2.7970  -31.1220 C   0  0  0  0  0  0  0  0  0  0  0  0
  -20.8390   -3.9430  -30.4050 C   0  0  0  0  0  0  0  0  0  0  0  0
  -20.5510   -3.9430  -29.0680 C   0  0  0  0  0  0  0  0  0  0  0  0
  -19.9840   -2.8140  -28.4670 C   0  0  0  0  0  0  0  0  0  0  0  0
  -19.5740   -2.8260  -26.5940 B   0  0  0  0  0  0  0  0  0  0  0  0
  -21.4190   -4.9630  -31.3230 C   0  0  0  0  0  0  0  0  0  0  0  0
  -20.9480   -4.4470  -32.6990 C   0  0  0  0  0  0  0  0  0  0  0  0
  -20.9330   -3.0080  -32.4920 N   0  0  0  0  0  0  0  0  0  0  0  0
  -21.2310   -1.9610  -33.3960 C   0  0  0  0  0  0  0  0  0  0  0  0
  -22.3820   -1.4860  -33.5310 O   0  0  0  0  0  0  0  0  0  0  0  0
  -20.1340   -1.4020  -34.2220 C   0  0  0  0  0  0  0  0  0  0  0  0
  -19.2390   -0.4670  -33.5160 C   0  0  0  0  0  0  0  0  0  0  0  0
  -20.1480    0.0300  -34.6140 C   0  0  0  0  0  0  0  0  0  0  0  0
  -19.7280    0.3640  -26.3970 H   0  0  0  0  0  0  0  0  0  0  0  0
  -16.9040   -0.4520  -26.7540 H   0  0  0  0  0  0  0  0  0  0  0  0
  -17.7800   -0.6840  -25.1400 H   0  0  0  0  0  0  0  0  0  0  0  0
  -18.6780    1.7490  -25.5070 H   0  0  0  0  0  0  0  0  0  0  0  0
  -16.9640    1.4060  -24.8990 H   0  0  0  0  0  0  0  0  0  0  0  0
  -17.6300    1.9570  -27.8480 H   0  0  0  0  0  0  0  0  0  0  0  0
  -16.0330    1.8540  -27.0600 H   0  0  0  0  0  0  0  0  0  0  0  0
  -15.4580    4.1930  -25.6930 H   0  0  0  0  0  0  0  0  0  0  0  0
  -16.5880    3.2090  -24.6400 H   0  0  0  0  0  0  0  0  0  0  0  0
  -18.0950    5.0700  -24.4470 H   0  0  0  0  0  0  0  0  0  0  0  0
  -16.4810    5.7680  -24.2250 H   0  0  0  0  0  0  0  0  0  0  0  0
  -16.8960    6.5660  -27.9530 H   0  0  0  0  0  0  0  0  0  0  0  0
  -15.6170    5.7130  -27.0380 H   0  0  0  0  0  0  0  0  0  0  0  0
  -18.2520    4.5740  -28.1000 H   0  0  0  0  0  0  0  0  0  0  0  0
  -16.5800    4.1190  -28.5080 H   0  0  0  0  0  0  0  0  0  0  0  0
  -19.7630   -0.7810  -31.1170 H   0  0  0  0  0  0  0  0  0  0  0  0
  -20.7490   -4.8010  -28.4330 H   0  0  0  0  0  0  0  0  0  0  0  0
  -22.5080   -5.0110  -31.2900 H   0  0  0  0  0  0  0  0  0  0  0  0
  -20.9980   -5.9660  -31.1800 H   0  0  0  0  0  0  0  0  0  0  0  0
  -19.8940   -4.7500  -32.8670 H   0  0  0  0  0  0  0  0  0  0  0  0
  -21.6180   -4.7830  -33.4880 H   0  0  0  0  0  0  0  0  0  0  0  0
  -19.6710   -2.1100  -34.9600 H   0  0  0  0  0  0  0  0  0  0  0  0
  -19.5300   -0.0380  -32.5190 H   0  0  0  0  0  0  0  0  0  0  0  0
  -18.1590   -0.4850  -33.6620 H   0  0  0  0  0  0  0  0  0  0  0  0
  -21.0060    0.6820  -34.3960 H   0  0  0  0  0  0  0  0  0  0  0  0
  -19.6000    0.2970  -35.5400 H   0  0  0  0  0  0  0  0  0  0  0  0
  1  4  1  0  0  0  0
  2  1  2  0  0  0  0
  3  1  2  0  0  0  0
  4 29  1  0  0  0  0
  4  5  1  0  0  0  0
  5  6  1  0  0  0  0
  5 31  1  0  0  0  0
  6 32  1  0  0  0  0
  6 33  1  0  0  0  0
  7  8  1  0  0  0  0
  7  6  1  0  0  0  0
  8  9  1  0  0  0  0
  9 10  1  0  0  0  0
  9 37  1  0  0  0  0
 10 38  1  0  0  0  0
 10 39  1  0  0  0  0
 11 10  1  0  0  0  0
 12 41  1  0  0  0  0
 12 11  1  0  0  0  0
 13 12  1  0  0  0  0
 13  8  1  0  0  0  0
 14 19  1  0  0  0  0
 14  1  1  0  0  0  0
 15 14  2  0  0  0  0
 16 15  1  0  0  0  0
 16 17  2  0  0  0  0
 17 18  1  0  0  0  0
 18 19  2  0  0  0  0
 18 45  1  0  0  0  0
 19 20  1  0  0  0  0
 21 46  1  0  0  0  0
 21 47  1  0  0  0  0
 21 17  1  0  0  0  0
 22 23  1  0  0  0  0
 22 21  1  0  0  0  0
 23 16  1  0  0  0  0
 24 23  1  0  0  0  0
 25 24  2  0  0  0  0
 26 27  1  0  0  0  0
 26 24  1  0  0  0  0
 27 51  1  0  0  0  0
 28 53  1  0  0  0  0
 28 26  1  0  0  0  0
 28 27  1  0  0  0  0
 30  5  1  0  0  0  0
 34  7  1  0  0  0  0
 35  7  1  0  0  0  0
 36  9  1  0  0  0  0
 40 12  1  0  0  0  0
 42 13  1  0  0  0  0
 43 13  1  0  0  0  0
 44 15  1  0  0  0  0
 48 22  1  0  0  0  0
 49 22  1  0  0  0  0
 50 26  1  0  0  0  0
 52 27  1  0  0  0  0
 54 28  1  0  0  0  0
M  END
>  <Pose>
1

>  <Score>
-6.66

$$$$
