
 OpenBabel03222201593D

 54 57  0  0  0  0  0  0  0  0999 V2000
  -19.7740   -0.6400  -31.0370 S   0  0  0  0  0  0  0  0  0  0  0  0
  -21.1680   -0.1020  -31.3630 O   0  0  0  0  0  0  0  0  0  0  0  0
  -19.1320    0.4620  -30.2270 O   0  0  0  0  0  0  0  0  0  0  0  0
  -18.9630   -0.8530  -32.4880 N   0  0  0  0  0  0  0  0  0  0  0  0
  -18.0990    0.1170  -32.9890 C   0  0  0  0  0  0  0  0  0  0  0  0
  -18.7330    1.1790  -33.8020 C   0  0  0  0  0  0  0  0  0  0  0  0
  -18.2210    2.3210  -33.8860 O   0  0  0  0  0  0  0  0  0  0  0  0
  -19.9380    0.8260  -34.4710 N   0  0  0  0  0  0  0  0  0  0  0  0
  -20.2530   -0.5560  -34.5250 C   0  0  0  0  0  0  0  0  0  0  0  0
  -20.9710   -0.9660  -35.4800 O   0  0  0  0  0  0  0  0  0  0  0  0
  -19.7690   -1.5110  -33.5060 C   0  0  0  0  0  0  0  0  0  0  0  0
  -20.7760    1.8480  -35.0610 C   0  0  0  0  0  0  0  0  0  0  0  0
  -20.3760    2.2640  -36.4350 C   0  0  0  0  0  0  0  0  0  0  0  0
  -21.1390    3.3680  -37.0160 C   0  0  0  0  0  0  0  0  0  0  0  0
  -21.1290    4.6240  -36.4780 C   0  0  0  0  0  0  0  0  0  0  0  0
  -21.8680    5.6110  -37.0680 C   0  0  0  0  0  0  0  0  0  0  0  0
  -22.6340    5.3760  -38.2050 C   0  0  0  0  0  0  0  0  0  0  0  0
  -22.6270    4.1110  -38.7250 C   0  0  0  0  0  0  0  0  0  0  0  0
  -21.8950    3.0970  -38.1570 C   0  0  0  0  0  0  0  0  0  0  0  0
  -20.0170   -2.0560  -30.0520 C   0  0  0  0  0  0  0  0  0  0  0  0
  -19.7010   -1.9790  -28.6890 C   0  0  0  0  0  0  0  0  0  0  0  0
  -19.7860   -3.0430  -27.8210 C   0  0  0  0  0  0  0  0  0  0  0  0
  -20.2030   -4.2730  -28.2810 C   0  0  0  0  0  0  0  0  0  0  0  0
  -20.5190   -4.3680  -29.6130 C   0  0  0  0  0  0  0  0  0  0  0  0
  -20.4320   -3.2780  -30.4950 C   0  0  0  0  0  0  0  0  0  0  0  0
  -20.9990   -3.5080  -32.3130 B   0  0  0  0  0  0  0  0  0  0  0  0
  -20.2230   -5.2630  -27.1760 C   0  0  0  0  0  0  0  0  0  0  0  0
  -20.2080   -4.3540  -25.9470 C   0  0  0  0  0  0  0  0  0  0  0  0
  -19.5110   -3.1640  -26.4230 N   0  0  0  0  0  0  0  0  0  0  0  0
  -18.7150   -2.3280  -25.6210 C   0  0  0  0  0  0  0  0  0  0  0  0
  -18.8250   -2.4160  -24.3490 O   0  0  0  0  0  0  0  0  0  0  0  0
  -17.7350   -1.3300  -26.1130 C   0  0  0  0  0  0  0  0  0  0  0  0
  -17.3530   -0.4300  -33.6860 H   0  0  0  0  0  0  0  0  0  0  0  0
  -17.4350    0.5280  -32.2260 H   0  0  0  0  0  0  0  0  0  0  0  0
  -20.6390   -2.0520  -33.1000 H   0  0  0  0  0  0  0  0  0  0  0  0
  -19.1170   -2.2490  -34.0070 H   0  0  0  0  0  0  0  0  0  0  0  0
  -20.8190    2.7370  -34.3800 H   0  0  0  0  0  0  0  0  0  0  0  0
  -21.8320    1.4810  -35.1290 H   0  0  0  0  0  0  0  0  0  0  0  0
  -20.5120    1.3770  -37.0950 H   0  0  0  0  0  0  0  0  0  0  0  0
  -19.2790    2.4620  -36.4350 H   0  0  0  0  0  0  0  0  0  0  0  0
  -20.5530    4.8330  -35.6090 H   0  0  0  0  0  0  0  0  0  0  0  0
  -21.8930    6.6300  -36.6750 H   0  0  0  0  0  0  0  0  0  0  0  0
  -23.2190    6.1690  -38.6680 H   0  0  0  0  0  0  0  0  0  0  0  0
  -23.2120    3.8820  -39.6150 H   0  0  0  0  0  0  0  0  0  0  0  0
  -21.9310    2.1170  -38.6130 H   0  0  0  0  0  0  0  0  0  0  0  0
  -19.3770   -0.9960  -28.3390 H   0  0  0  0  0  0  0  0  0  0  0  0
  -20.8550   -5.3110  -30.0370 H   0  0  0  0  0  0  0  0  0  0  0  0
  -19.3430   -5.9150  -27.1540 H   0  0  0  0  0  0  0  0  0  0  0  0
  -21.1510   -5.8790  -27.1790 H   0  0  0  0  0  0  0  0  0  0  0  0
  -19.6400   -4.8260  -25.1330 H   0  0  0  0  0  0  0  0  0  0  0  0
  -21.2350   -4.0750  -25.6830 H   0  0  0  0  0  0  0  0  0  0  0  0
  -17.0630   -0.9950  -25.2700 H   0  0  0  0  0  0  0  0  0  0  0  0
  -18.2120   -0.3920  -26.4610 H   0  0  0  0  0  0  0  0  0  0  0  0
  -17.1150   -1.7480  -26.9400 H   0  0  0  0  0  0  0  0  0  0  0  0
  1  3  2  0  0  0  0
  1 20  1  0  0  0  0
  2  1  2  0  0  0  0
  4  1  1  0  0  0  0
  5  4  1  0  0  0  0
  5 34  1  0  0  0  0
  6  5  1  0  0  0  0
  7  6  2  0  0  0  0
  8  6  1  0  0  0  0
  9  8  1  0  0  0  0
  9 11  1  0  0  0  0
 10  9  2  0  0  0  0
 11 35  1  0  0  0  0
 11  4  1  0  0  0  0
 12  8  1  0  0  0  0
 12 37  1  0  0  0  0
 13 40  1  0  0  0  0
 13 12  1  0  0  0  0
 14 15  1  0  0  0  0
 14 13  1  0  0  0  0
 15 41  1  0  0  0  0
 16 42  1  0  0  0  0
 16 15  2  0  0  0  0
 17 16  1  0  0  0  0
 18 17  2  0  0  0  0
 18 19  1  0  0  0  0
 19 14  2  0  0  0  0
 20 21  1  0  0  0  0
 21 46  1  0  0  0  0
 21 22  2  0  0  0  0
 22 29  1  0  0  0  0
 23 22  1  0  0  0  0
 23 27  1  0  0  0  0
 24 23  2  0  0  0  0
 25 20  2  0  0  0  0
 25 24  1  0  0  0  0
 26 25  1  0  0  0  0
 27 48  1  0  0  0  0
 27 28  1  0  0  0  0
 28 51  1  0  0  0  0
 28 50  1  0  0  0  0
 29 28  1  0  0  0  0
 29 30  1  0  0  0  0
 30 31  2  0  0  0  0
 32 30  1  0  0  0  0
 32 52  1  0  0  0  0
 33  5  1  0  0  0  0
 36 11  1  0  0  0  0
 38 12  1  0  0  0  0
 39 13  1  0  0  0  0
 43 17  1  0  0  0  0
 44 18  1  0  0  0  0
 45 19  1  0  0  0  0
 47 24  1  0  0  0  0
 49 27  1  0  0  0  0
 53 32  1  0  0  0  0
 54 32  1  0  0  0  0
M  END
>  <Pose>
1

>  <Score>
-6.29

$$$$
