
 OpenBabel03222201593D

 41 44  0  0  0  0  0  0  0  0999 V2000
  -18.7140   -2.2620  -26.3850 S   0  0  0  0  0  0  0  0  0  0  0  0
  -17.4810   -2.9590  -26.8840 O   0  0  0  0  0  0  0  0  0  0  0  0
  -19.1180   -2.9700  -25.1130 O   0  0  0  0  0  0  0  0  0  0  0  0
  -19.9130   -2.3530  -27.5700 N   0  0  0  0  0  0  0  0  0  0  0  0
  -19.7660   -1.6150  -28.7730 C   0  0  0  0  0  0  0  0  0  0  0  0
  -19.5990   -2.8590  -29.5550 C   0  0  0  0  0  0  0  0  0  0  0  0
  -19.9600   -3.5710  -28.2980 C   0  0  0  0  0  0  0  0  0  0  0  0
  -20.5540   -3.0860  -30.6220 N   0  0  0  0  0  0  0  0  0  0  0  0
  -21.5990   -3.8730  -30.6250 N   0  0  0  0  0  0  0  0  0  0  0  0
  -22.2300   -3.8050  -31.8050 N   0  0  0  0  0  0  0  0  0  0  0  0
  -21.5700   -2.9420  -32.5960 C   0  0  0  0  0  0  0  0  0  0  0  0
  -20.5060   -2.4940  -31.8270 C   0  0  0  0  0  0  0  0  0  0  0  0
  -21.9030   -2.5420  -34.0050 C   0  0  0  0  0  0  0  0  0  0  0  0
  -22.4730   -1.2080  -33.9640 N   0  0  0  0  0  0  0  0  0  0  0  0
  -23.8040   -0.8570  -34.3590 C   0  0  0  0  0  0  0  0  0  0  0  0
  -23.9510    0.6090  -34.0630 C   0  0  0  0  0  0  0  0  0  0  0  0
  -22.7750    1.0480  -33.2530 C   0  0  0  0  0  0  0  0  0  0  0  0
  -21.7780   -0.0470  -33.5190 C   0  0  0  0  0  0  0  0  0  0  0  0
  -20.5520    0.0900  -33.3600 O   0  0  0  0  0  0  0  0  0  0  0  0
  -18.2390   -0.6130  -25.9840 C   0  0  0  0  0  0  0  0  0  0  0  0
  -17.8810    0.6700  -27.0620 S   0  0  0  0  0  0  0  0  0  0  0  0
  -17.5210    1.8920  -25.9240 C   0  0  0  0  0  0  0  0  0  0  0  0
  -17.6950    1.2500  -24.7260 C   0  0  0  0  0  0  0  0  0  0  0  0
  -18.0630   -0.0320  -24.7630 C   0  0  0  0  0  0  0  0  0  0  0  0
  -17.0000    3.7240  -26.2170 B   0  0  0  0  0  0  0  0  0  0  0  0
  -18.8710   -0.9390  -28.7140 H   0  0  0  0  0  0  0  0  0  0  0  0
  -20.6740   -1.0070  -29.0160 H   0  0  0  0  0  0  0  0  0  0  0  0
  -18.5520   -2.9670  -29.9020 H   0  0  0  0  0  0  0  0  0  0  0  0
  -19.2850   -4.3880  -27.9800 H   0  0  0  0  0  0  0  0  0  0  0  0
  -20.9990   -3.9690  -28.3330 H   0  0  0  0  0  0  0  0  0  0  0  0
  -19.7690   -1.7730  -32.1840 H   0  0  0  0  0  0  0  0  0  0  0  0
  -20.9920   -2.5580  -34.6460 H   0  0  0  0  0  0  0  0  0  0  0  0
  -22.6650   -3.2360  -34.3820 H   0  0  0  0  0  0  0  0  0  0  0  0
  -23.9470   -1.0470  -35.4450 H   0  0  0  0  0  0  0  0  0  0  0  0
  -24.5920   -1.3950  -33.7660 H   0  0  0  0  0  0  0  0  0  0  0  0
  -24.0800    1.1950  -34.9990 H   0  0  0  0  0  0  0  0  0  0  0  0
  -24.8700    0.8210  -33.4530 H   0  0  0  0  0  0  0  0  0  0  0  0
  -22.3720    2.0180  -33.6410 H   0  0  0  0  0  0  0  0  0  0  0  0
  -22.9810    1.1560  -32.1710 H   0  0  0  0  0  0  0  0  0  0  0  0
  -17.5260    1.8150  -23.7870 H   0  0  0  0  0  0  0  0  0  0  0  0
  -18.2290   -0.6420  -23.8540 H   0  0  0  0  0  0  0  0  0  0  0  0
  1 20  1  0  0  0  0
  1  3  2  0  0  0  0
  2  1  2  0  0  0  0
  4  1  1  0  0  0  0
  5 26  1  0  0  0  0
  5  4  1  0  0  0  0
  6  5  1  0  0  0  0
  6  7  1  0  0  0  0
  7 29  1  0  0  0  0
  7  4  1  0  0  0  0
  8  6  1  0  0  0  0
  9  8  1  0  0  0  0
 10  9  2  0  0  0  0
 11 12  2  0  0  0  0
 11 10  1  0  0  0  0
 12  8  1  0  0  0  0
 13 14  1  0  0  0  0
 13 11  1  0  0  0  0
 14 18  1  0  0  0  0
 15 16  1  0  0  0  0
 15 14  1  0  0  0  0
 15 35  1  0  0  0  0
 16 37  1  0  0  0  0
 16 17  1  0  0  0  0
 17 39  1  0  0  0  0
 18 19  2  0  0  0  0
 18 17  1  0  0  0  0
 20 24  2  0  0  0  0
 21 20  1  0  0  0  0
 21 22  1  0  0  0  0
 22 23  2  0  0  0  0
 23 40  1  0  0  0  0
 24 23  1  0  0  0  0
 24 41  1  0  0  0  0
 25 22  1  0  0  0  0
 27  5  1  0  0  0  0
 28  6  1  0  0  0  0
 30  7  1  0  0  0  0
 31 12  1  0  0  0  0
 32 13  1  0  0  0  0
 33 13  1  0  0  0  0
 34 15  1  0  0  0  0
 36 16  1  0  0  0  0
 38 17  1  0  0  0  0
M  END
>  <Pose>
1

>  <Score>
-6.85

$$$$
