
 OpenBabel03222201593D

 47 50  0  0  0  0  0  0  0  0999 V2000
  -19.5910   -3.2040  -25.9220 S   0  0  0  0  0  0  0  0  0  0  0  0
  -18.7040   -4.3530  -25.6390 O   0  0  0  0  0  0  0  0  0  0  0  0
  -20.9350   -3.5120  -25.2730 O   0  0  0  0  0  0  0  0  0  0  0  0
  -19.0490   -1.7280  -25.2990 N   0  0  0  0  0  0  0  0  0  0  0  0
  -19.9570   -0.6690  -25.2590 C   0  0  0  0  0  0  0  0  0  0  0  0
  -19.3890    0.7060  -25.2710 C   0  0  0  0  0  0  0  0  0  0  0  0
  -18.1080    0.8190  -25.8930 N   0  0  0  0  0  0  0  0  0  0  0  0
  -17.4910   -0.3660  -26.4490 C   0  0  0  0  0  0  0  0  0  0  0  0
  -17.6730   -1.4570  -25.3970 C   0  0  0  0  0  0  0  0  0  0  0  0
  -17.4140    2.0490  -25.9860 C   0  0  0  0  0  0  0  0  0  0  0  0
  -16.4680    2.2020  -26.8230 O   0  0  0  0  0  0  0  0  0  0  0  0
  -17.7230    3.2040  -25.1520 C   0  0  0  0  0  0  0  0  0  0  0  0
  -17.5480    3.1930  -23.7800 C   0  0  0  0  0  0  0  0  0  0  0  0
  -17.8350    4.2770  -22.9830 C   0  0  0  0  0  0  0  0  0  0  0  0
  -18.3210    5.4230  -23.5940 C   0  0  0  0  0  0  0  0  0  0  0  0
  -18.5150    5.4900  -24.9530 C   0  0  0  0  0  0  0  0  0  0  0  0
  -18.2130    4.3780  -25.7070 C   0  0  0  0  0  0  0  0  0  0  0  0
  -16.8740    1.5820  -23.0080 B   0  0  0  0  0  0  0  0  0  0  0  0
  -19.9240   -3.0540  -27.6430 C   0  0  0  0  0  0  0  0  0  0  0  0
  -20.3310   -4.1360  -28.3950 C   0  0  0  0  0  0  0  0  0  0  0  0
  -20.6010   -4.0510  -29.7460 C   0  0  0  0  0  0  0  0  0  0  0  0
  -20.4670   -2.8470  -30.4080 C   0  0  0  0  0  0  0  0  0  0  0  0
  -20.0580   -1.7570  -29.6550 C   0  0  0  0  0  0  0  0  0  0  0  0
  -19.7910   -1.8500  -28.3050 C   0  0  0  0  0  0  0  0  0  0  0  0
  -20.7310   -2.7290  -31.7710 O   0  0  0  0  0  0  0  0  0  0  0  0
  -20.9060   -3.8290  -32.6450 C   0  0  0  0  0  0  0  0  0  0  0  0
  -21.2940   -5.0640  -31.9180 C   0  0  0  0  0  0  0  0  0  0  0  0
  -21.8530   -5.9710  -32.5840 O   0  0  0  0  0  0  0  0  0  0  0  0
  -21.0190   -5.1640  -30.5250 N   0  0  0  0  0  0  0  0  0  0  0  0
  -20.5970   -0.7730  -24.3340 H   0  0  0  0  0  0  0  0  0  0  0  0
  -20.6850   -0.7850  -26.1150 H   0  0  0  0  0  0  0  0  0  0  0  0
  -19.4050    1.1370  -24.2400 H   0  0  0  0  0  0  0  0  0  0  0  0
  -20.0900    1.3730  -25.8550 H   0  0  0  0  0  0  0  0  0  0  0  0
  -16.4190   -0.2080  -26.6790 H   0  0  0  0  0  0  0  0  0  0  0  0
  -18.0120   -0.6790  -27.3620 H   0  0  0  0  0  0  0  0  0  0  0  0
  -17.0910   -2.3180  -25.7430 H   0  0  0  0  0  0  0  0  0  0  0  0
  -17.3030   -1.0500  -24.4220 H   0  0  0  0  0  0  0  0  0  0  0  0
  -17.6910    4.2560  -21.8930 H   0  0  0  0  0  0  0  0  0  0  0  0
  -18.5460    6.2760  -22.9480 H   0  0  0  0  0  0  0  0  0  0  0  0
  -18.9010    6.4080  -25.4060 H   0  0  0  0  0  0  0  0  0  0  0  0
  -18.3630    4.4230  -26.7750 H   0  0  0  0  0  0  0  0  0  0  0  0
  -20.4390   -5.0840  -27.8910 H   0  0  0  0  0  0  0  0  0  0  0  0
  -19.9520   -0.8090  -30.1730 H   0  0  0  0  0  0  0  0  0  0  0  0
  -19.4730   -1.0030  -27.7230 H   0  0  0  0  0  0  0  0  0  0  0  0
  -19.9500   -4.0510  -33.1950 H   0  0  0  0  0  0  0  0  0  0  0  0
  -21.6460   -3.5470  -33.4190 H   0  0  0  0  0  0  0  0  0  0  0  0
  -21.1250   -6.0800  -30.0400 H   0  0  0  0  0  0  0  0  0  0  0  0
  1  2  2  0  0  0  0
  1  4  1  0  0  0  0
  1  3  2  0  0  0  0
  4  5  1  0  0  0  0
  5 30  1  0  0  0  0
  6  5  1  0  0  0  0
  6 32  1  0  0  0  0
  7  6  1  0  0  0  0
  8  7  1  0  0  0  0
  8  9  1  0  0  0  0
  9  4  1  0  0  0  0
  9 37  1  0  0  0  0
 10  7  1  0  0  0  0
 10 12  1  0  0  0  0
 11 10  2  0  0  0  0
 12 13  1  0  0  0  0
 13 18  1  0  0  0  0
 13 14  2  0  0  0  0
 14 38  1  0  0  0  0
 15 14  1  0  0  0  0
 15 39  1  0  0  0  0
 16 15  2  0  0  0  0
 17 12  2  0  0  0  0
 17 16  1  0  0  0  0
 19  1  1  0  0  0  0
 20 42  1  0  0  0  0
 20 19  2  0  0  0  0
 21 20  1  0  0  0  0
 22 21  2  0  0  0  0
 22 23  1  0  0  0  0
 23 24  2  0  0  0  0
 24 44  1  0  0  0  0
 24 19  1  0  0  0  0
 25 22  1  0  0  0  0
 26 27  1  0  0  0  0
 26 25  1  0  0  0  0
 27 29  1  0  0  0  0
 28 27  2  0  0  0  0
 29 47  1  0  0  0  0
 29 21  1  0  0  0  0
 31  5  1  0  0  0  0
 33  6  1  0  0  0  0
 34  8  1  0  0  0  0
 35  8  1  0  0  0  0
 36  9  1  0  0  0  0
 40 16  1  0  0  0  0
 41 17  1  0  0  0  0
 43 23  1  0  0  0  0
 45 26  1  0  0  0  0
 46 26  1  0  0  0  0
M  END
>  <Pose>
1

>  <Score>
-6.94

$$$$
