
 OpenBabel03222201593D

 54 58  0  0  1  0  0  0  0  0999 V2000
  -20.1140   -4.3410  -29.1070 S   0  0  0  0  0  0  0  0  0  0  0  0
  -18.6510   -4.7560  -29.1810 O   0  0  0  0  0  0  0  0  0  0  0  0
  -20.8520   -5.6540  -28.8420 O   0  0  0  0  0  0  0  0  0  0  0  0
  -20.3060   -3.3680  -27.7510 N   0  0  0  0  0  0  0  0  0  0  0  0
  -19.7260   -3.8450  -26.5240 C   0  0  0  0  0  0  0  0  0  0  0  0
  -18.9620   -2.7550  -25.8080 C   0  0  0  0  0  0  0  0  0  0  0  0
  -17.9520   -2.1600  -26.7190 N   0  0  0  0  0  0  0  0  0  0  0  0
  -18.6720   -1.5150  -27.8070 C   0  0  0  0  0  0  0  0  0  0  0  0
  -20.1210   -1.9580  -27.9100 C   0  0  0  0  0  0  0  0  0  0  0  0
  -17.3050   -1.1550  -25.9030 C   0  0  0  0  0  0  0  0  0  0  0  0
  -18.1380   -0.3870  -24.9680 C   0  0  0  0  0  0  0  0  0  0  0  0
  -17.8610    0.9910  -24.7400 N   0  0  0  0  0  0  0  0  0  0  0  0
  -17.9480    2.1130  -25.6110 C   0  0  0  0  0  0  0  0  0  0  0  0
  -17.8630    2.0690  -26.8470 O   0  0  0  0  0  0  0  0  0  0  0  0
  -18.1540    3.3350  -24.7970 C   0  0  1  0  0  0  0  0  0  0  0  0
  -17.4240    2.9290  -23.4960 C   0  0  2  0  0  0  0  0  0  0  0  0
  -16.0830    3.5550  -23.5820 C   0  0  1  0  0  0  0  0  0  0  0  0
  -15.9040    3.7340  -25.0990 C   0  0  0  0  0  0  0  0  0  0  0  0
  -17.2670    4.4280  -25.2750 C   0  0  2  0  0  0  0  0  0  0  0  0
  -17.1680    5.4240  -24.1550 C   0  0  0  0  0  0  0  0  0  0  0  0
  -16.2760    5.0200  -23.2510 C   0  0  0  0  0  0  0  0  0  0  0  0
  -17.4600    1.4750  -23.4390 C   0  0  0  0  0  0  0  0  0  0  0  0
  -17.1830    0.7930  -22.4210 O   0  0  0  0  0  0  0  0  0  0  0  0
  -20.6840   -3.7300  -30.6070 C   0  0  0  0  0  0  0  0  0  0  0  0
  -21.4640   -4.5040  -31.4320 C   0  0  0  0  0  0  0  0  0  0  0  0
  -21.9130   -3.9740  -32.6280 C   0  0  0  0  0  0  0  0  0  0  0  0
  -21.6080   -2.6880  -33.0330 C   0  0  0  0  0  0  0  0  0  0  0  0
  -20.8250   -1.9140  -32.2010 C   0  0  0  0  0  0  0  0  0  0  0  0
  -20.3740   -2.4470  -30.9990 C   0  0  0  0  0  0  0  0  0  0  0  0
  -22.2250   -1.9570  -34.6820 B   0  0  0  0  0  0  0  0  0  0  0  0
  -20.5670   -4.1270  -25.8480 H   0  0  0  0  0  0  0  0  0  0  0  0
  -19.1190   -4.7340  -26.6930 H   0  0  0  0  0  0  0  0  0  0  0  0
  -18.3920   -3.2110  -24.9790 H   0  0  0  0  0  0  0  0  0  0  0  0
  -19.6050   -1.9580  -25.3930 H   0  0  0  0  0  0  0  0  0  0  0  0
  -18.2160   -1.8310  -28.7600 H   0  0  0  0  0  0  0  0  0  0  0  0
  -18.5910   -0.4230  -27.6600 H   0  0  0  0  0  0  0  0  0  0  0  0
  -20.5910   -1.6190  -28.8310 H   0  0  0  0  0  0  0  0  0  0  0  0
  -20.6610   -1.4670  -27.0680 H   0  0  0  0  0  0  0  0  0  0  0  0
  -16.8140   -0.3930  -26.5900 H   0  0  0  0  0  0  0  0  0  0  0  0
  -16.3970   -1.6220  -25.4040 H   0  0  0  0  0  0  0  0  0  0  0  0
  -19.2020   -0.4460  -25.3730 H   0  0  0  0  0  0  0  0  0  0  0  0
  -18.1910   -0.9690  -24.0050 H   0  0  0  0  0  0  0  0  0  0  0  0
  -19.1970    3.5890  -24.6310 H   0  0  0  0  0  0  0  0  0  0  0  0
  -17.9570    3.4010  -22.6220 H   0  0  0  0  0  0  0  0  0  0  0  0
  -15.2620    3.0820  -23.0980 H   0  0  0  0  0  0  0  0  0  0  0  0
  -15.0810    4.4140  -25.3450 H   0  0  0  0  0  0  0  0  0  0  0  0
  -15.9150    2.7980  -25.6480 H   0  0  0  0  0  0  0  0  0  0  0  0
  -17.4360    4.8430  -26.2390 H   0  0  0  0  0  0  0  0  0  0  0  0
  -17.7190    6.3520  -24.0490 H   0  0  0  0  0  0  0  0  0  0  0  0
  -15.8060    5.5960  -22.4760 H   0  0  0  0  0  0  0  0  0  0  0  0
  -21.7410   -5.5360  -31.1620 H   0  0  0  0  0  0  0  0  0  0  0  0
  -22.5310   -4.5910  -33.2810 H   0  0  0  0  0  0  0  0  0  0  0  0
  -20.5940   -0.9130  -32.5290 H   0  0  0  0  0  0  0  0  0  0  0  0
  -19.7700   -1.7720  -30.4090 H   0  0  0  0  0  0  0  0  0  0  0  0
  1  3  2  0  0  0  0
  1  4  1  0  0  0  0
  2  1  2  0  0  0  0
  4  5  1  0  0  0  0
  5 31  1  0  0  0  0
  5  6  1  0  0  0  0
  6 34  1  0  0  0  0
  6 33  1  0  0  0  0
  7 10  1  0  0  0  0
  7  6  1  0  0  0  0
  8 36  1  0  0  0  0
  8  7  1  0  0  0  0
  9  8  1  0  0  0  0
  9  4  1  0  0  0  0
  9 38  1  0  0  0  0
 10 40  1  0  0  0  0
 10 11  1  0  0  0  0
 11 12  1  0  0  0  0
 11 42  1  0  0  0  0
 12 22  1  0  0  0  0
 13 15  1  0  0  0  0
 13 12  1  0  0  0  0
 14 13  2  0  0  0  0
 15 43  1  1  0  0  0
 15 16  1  0  0  0  0
 16 22  1  0  0  0  0
 16 44  1  1  0  0  0
 17 16  1  0  0  0  0
 17 21  1  0  0  0  0
 17 45  1  1  0  0  0
 18 17  1  0  0  0  0
 19 48  1  6  0  0  0
 19 18  1  0  0  0  0
 19 15  1  0  0  0  0
 19 20  1  0  0  0  0
 20 49  1  0  0  0  0
 20 21  1  0  0  0  0
 21 50  1  0  0  0  0
 22 23  2  0  0  0  0
 24  1  1  0  0  0  0
 25 51  1  0  0  0  0
 25 24  2  0  0  0  0
 26 25  1  0  0  0  0
 27 26  2  0  0  0  0
 27 28  1  0  0  0  0
 28 29  2  0  0  0  0
 29 24  1  0  0  0  0
 29 54  1  0  0  0  0
 30 27  1  0  0  0  0
 32  5  1  0  0  0  0
 35  8  1  0  0  0  0
 37  9  1  0  0  0  0
 39 10  1  0  0  0  0
 41 11  1  0  0  0  0
 46 18  1  0  0  0  0
 47 18  1  0  0  0  0
 52 26  1  0  0  0  0
 53 28  1  0  0  0  0
M  END
>  <Pose>
1

>  <Score>
-6.80

$$$$
