
 OpenBabel03222201593D

 44 47  0  0  0  0  0  0  0  0999 V2000
  -23.0740   -0.5110  -35.2060 S   0  0  0  0  0  0  0  0  0  0  0  0
  -24.1680    0.4690  -35.0520 O   0  0  0  0  0  0  0  0  0  0  0  0
  -23.6530   -1.8660  -34.8170 O   0  0  0  0  0  0  0  0  0  0  0  0
  -21.7140   -0.2300  -34.2260 N   0  0  0  0  0  0  0  0  0  0  0  0
  -20.5120   -0.8740  -34.5950 C   0  0  0  0  0  0  0  0  0  0  0  0
  -20.0250   -1.9660  -33.7030 C   0  0  0  0  0  0  0  0  0  0  0  0
  -20.8680   -2.2270  -32.5620 N   0  0  0  0  0  0  0  0  0  0  0  0
  -21.5510   -1.1440  -31.9330 C   0  0  0  0  0  0  0  0  0  0  0  0
  -21.9860   -0.0540  -32.8500 C   0  0  0  0  0  0  0  0  0  0  0  0
  -20.9640   -3.5860  -32.1120 C   0  0  0  0  0  0  0  0  0  0  0  0
  -20.6740   -4.0270  -30.8760 N   0  0  0  0  0  0  0  0  0  0  0  0
  -20.8910   -5.3480  -30.9120 N   0  0  0  0  0  0  0  0  0  0  0  0
  -21.2950   -5.6990  -32.1130 N   0  0  0  0  0  0  0  0  0  0  0  0
  -21.3530   -4.6350  -32.8860 N   0  0  0  0  0  0  0  0  0  0  0  0
  -20.2420   -3.2480  -29.7700 C   0  0  0  0  0  0  0  0  0  0  0  0
  -20.6990   -3.4980  -28.4960 C   0  0  0  0  0  0  0  0  0  0  0  0
  -20.2550   -2.7150  -27.4310 C   0  0  0  0  0  0  0  0  0  0  0  0
  -19.3590   -1.6860  -27.6230 C   0  0  0  0  0  0  0  0  0  0  0  0
  -18.8940   -1.4320  -28.9200 C   0  0  0  0  0  0  0  0  0  0  0  0
  -19.3500   -2.2260  -29.9730 C   0  0  0  0  0  0  0  0  0  0  0  0
  -22.5870   -0.6290  -36.8750 C   0  0  0  0  0  0  0  0  0  0  0  0
  -23.2510   -1.4020  -37.7940 C   0  0  0  0  0  0  0  0  0  0  0  0
  -22.8510   -1.4850  -39.1280 C   0  0  0  0  0  0  0  0  0  0  0  0
  -21.7330   -0.7470  -39.5280 C   0  0  0  0  0  0  0  0  0  0  0  0
  -21.0590    0.0320  -38.6140 C   0  0  0  0  0  0  0  0  0  0  0  0
  -21.4820    0.0860  -37.3150 C   0  0  0  0  0  0  0  0  0  0  0  0
  -21.1310   -0.8120  -41.3430 B   0  0  0  0  0  0  0  0  0  0  0  0
  -20.6240   -1.2040  -35.6610 H   0  0  0  0  0  0  0  0  0  0  0  0
  -19.7170   -0.0670  -34.6340 H   0  0  0  0  0  0  0  0  0  0  0  0
  -19.9110   -2.8800  -34.3490 H   0  0  0  0  0  0  0  0  0  0  0  0
  -18.9780   -1.7430  -33.3820 H   0  0  0  0  0  0  0  0  0  0  0  0
  -22.4680   -1.5190  -31.3910 H   0  0  0  0  0  0  0  0  0  0  0  0
  -20.8570   -0.7580  -31.1300 H   0  0  0  0  0  0  0  0  0  0  0  0
  -21.4780    0.8970  -32.5140 H   0  0  0  0  0  0  0  0  0  0  0  0
  -23.0810    0.1830  -32.7160 H   0  0  0  0  0  0  0  0  0  0  0  0
  -21.4120   -4.2990  -28.2700 H   0  0  0  0  0  0  0  0  0  0  0  0
  -20.5980   -2.8880  -26.4050 H   0  0  0  0  0  0  0  0  0  0  0  0
  -18.9960   -1.0640  -26.8230 H   0  0  0  0  0  0  0  0  0  0  0  0
  -18.1940   -0.6280  -29.0630 H   0  0  0  0  0  0  0  0  0  0  0  0
  -18.9450   -1.9700  -30.9530 H   0  0  0  0  0  0  0  0  0  0  0  0
  -24.1310   -1.9870  -37.4920 H   0  0  0  0  0  0  0  0  0  0  0  0
  -23.3530   -2.0820  -39.8620 H   0  0  0  0  0  0  0  0  0  0  0  0
  -20.1890    0.5880  -38.9810 H   0  0  0  0  0  0  0  0  0  0  0  0
  -20.9160    0.7210  -36.6120 H   0  0  0  0  0  0  0  0  0  0  0  0
  1  2  2  0  0  0  0
  1  3  2  0  0  0  0
  1  4  1  0  0  0  0
  4  9  1  0  0  0  0
  5  4  1  0  0  0  0
  5  6  1  0  0  0  0
  6 31  1  0  0  0  0
  6  7  1  0  0  0  0
  7 10  1  0  0  0  0
  7  8  1  0  0  0  0
  8 32  1  0  0  0  0
  8 33  1  0  0  0  0
  9 35  1  0  0  0  0
  9 34  1  0  0  0  0
  9  8  1  0  0  0  0
 10 11  1  0  0  0  0
 11 15  1  0  0  0  0
 12 11  1  0  0  0  0
 13 12  2  0  0  0  0
 14 13  1  0  0  0  0
 14 10  2  0  0  0  0
 15 16  1  0  0  0  0
 16 36  1  0  0  0  0
 16 17  2  0  0  0  0
 17 37  1  0  0  0  0
 18 17  1  0  0  0  0
 18 38  1  0  0  0  0
 19 18  2  0  0  0  0
 20 15  2  0  0  0  0
 20 19  1  0  0  0  0
 21  1  1  0  0  0  0
 22 41  1  0  0  0  0
 22 21  2  0  0  0  0
 23 22  1  0  0  0  0
 24 23  2  0  0  0  0
 24 25  1  0  0  0  0
 25 26  2  0  0  0  0
 26 21  1  0  0  0  0
 26 44  1  0  0  0  0
 27 24  1  0  0  0  0
 28  5  1  0  0  0  0
 29  5  1  0  0  0  0
 30  6  1  0  0  0  0
 39 19  1  0  0  0  0
 40 20  1  0  0  0  0
 42 23  1  0  0  0  0
 43 25  1  0  0  0  0
M  END
>  <Pose>
1

>  <Score>
-6.39

$$$$
