
 OpenBabel03222201593D

 40 43  0  0  1  0  0  0  0  0999 V2000
  -21.3010   -3.4930  -32.0830 S   0  0  0  0  0  0  0  0  0  0  0  0
  -22.6230   -4.1900  -31.8910 O   0  0  0  0  0  0  0  0  0  0  0  0
  -20.2870   -4.5880  -32.3770 O   0  0  0  0  0  0  0  0  0  0  0  0
  -20.7830   -2.6670  -30.6920 N   0  0  0  0  0  0  0  0  0  0  0  0
  -19.4370   -2.2290  -30.8490 C   0  0  0  0  0  0  0  0  0  0  0  0
  -19.1370   -0.9570  -30.0830 C   0  0  0  0  0  0  0  0  0  0  0  0
  -19.9120   -0.9960  -28.8690 N   0  0  0  0  0  0  0  0  0  0  0  0
  -21.3410   -0.9230  -29.0330 C   0  0  0  0  0  0  0  0  0  0  0  0
  -21.7250   -1.6990  -30.2410 C   0  0  0  0  0  0  0  0  0  0  0  0
  -19.3360   -1.1000  -27.5820 C   0  0  1  0  0  0  0  0  0  0  0  0
  -18.8080   -0.0490  -26.9530 C   0  0  0  0  0  0  0  0  0  0  0  0
  -18.2100   -0.1140  -25.6320 C   0  0  0  0  0  0  0  0  0  0  0  0
  -17.7000    0.9620  -25.0560 C   0  0  0  0  0  0  0  0  0  0  0  0
  -18.1780   -1.3580  -24.9640 N   0  0  0  0  0  0  0  0  0  0  0  0
  -18.7560   -2.4660  -25.6700 C   0  0  0  0  0  0  0  0  0  0  0  0
  -19.2980   -2.3530  -26.8930 N   0  0  0  0  0  0  0  0  0  0  0  0
  -19.7480   -3.5490  -27.2820 N   0  0  0  0  0  0  0  0  0  0  0  0
  -19.5010   -4.4490  -26.3150 C   0  0  0  0  0  0  0  0  0  0  0  0
  -18.8900   -3.7710  -25.3290 N   0  0  0  0  0  0  0  0  0  0  0  0
  -21.3340   -2.4600  -33.5110 C   0  0  0  0  0  0  0  0  0  0  0  0
  -20.0830   -1.4530  -34.0640 S   0  0  0  0  0  0  0  0  0  0  0  0
  -20.8380   -0.8020  -35.4420 C   0  0  0  0  0  0  0  0  0  0  0  0
  -22.0710   -1.3980  -35.4360 C   0  0  0  0  0  0  0  0  0  0  0  0
  -22.3270   -2.2630  -34.4270 C   0  0  0  0  0  0  0  0  0  0  0  0
  -20.1610    0.4690  -36.7290 B   0  0  0  0  0  0  0  0  0  0  0  0
  -19.0870   -2.1930  -31.9010 H   0  0  0  0  0  0  0  0  0  0  0  0
  -18.7840   -3.0180  -30.3690 H   0  0  0  0  0  0  0  0  0  0  0  0
  -18.0640   -0.8060  -29.9160 H   0  0  0  0  0  0  0  0  0  0  0  0
  -19.5250   -0.1130  -30.6890 H   0  0  0  0  0  0  0  0  0  0  0  0
  -21.8950   -1.2070  -28.1170 H   0  0  0  0  0  0  0  0  0  0  0  0
  -21.6160    0.1630  -29.1840 H   0  0  0  0  0  0  0  0  0  0  0  0
  -22.6540   -2.2790  -29.9570 H   0  0  0  0  0  0  0  0  0  0  0  0
  -22.0770   -1.0090  -31.0290 H   0  0  0  0  0  0  0  0  0  0  0  0
  -18.8360    0.8970  -27.4700 H   0  0  0  0  0  0  0  0  0  0  0  0
  -17.7250    1.9210  -25.5730 H   0  0  0  0  0  0  0  0  0  0  0  0
  -17.2500    0.9400  -24.0760 H   0  0  0  0  0  0  0  0  0  0  0  0
  -17.7780   -1.5090  -24.0280 H   0  0  0  0  0  0  0  0  0  0  0  0
  -19.7420   -5.5170  -26.3180 H   0  0  0  0  0  0  0  0  0  0  0  0
  -22.7990   -1.1470  -36.2520 H   0  0  0  0  0  0  0  0  0  0  0  0
  -23.3200   -2.7780  -34.3730 H   0  0  0  0  0  0  0  0  0  0  0  0
  1  2  2  0  0  0  0
  1  4  1  0  0  0  0
  3  1  2  0  0  0  0
  4  9  1  0  0  0  0
  5  4  1  0  0  0  0
  5 27  1  0  0  0  0
  5  6  1  0  0  0  0
  6 28  1  0  0  0  0
  6  7  1  0  0  0  0
  8  7  1  0  0  0  0
  8 30  1  0  0  0  0
  9 32  1  0  0  0  0
  9  8  1  0  0  0  0
 10  7  1  1  0  0  0
 10 11  1  0  0  0  0
 10 16  1  0  0  0  0
 11 12  2  0  0  0  0
 12 13  1  0  0  0  0
 12 14  1  0  0  0  0
 13 36  1  0  0  0  0
 14 37  1  0  0  0  0
 15 19  2  0  0  0  0
 15 14  1  0  0  0  0
 16 15  1  0  0  0  0
 17 16  1  0  0  0  0
 17 18  2  0  0  0  0
 18 19  1  0  0  0  0
 20  1  1  0  0  0  0
 21 20  1  0  0  0  0
 22 23  2  0  0  0  0
 22 21  1  0  0  0  0
 23 24  1  0  0  0  0
 24 40  1  0  0  0  0
 24 20  2  0  0  0  0
 25 22  1  0  0  0  0
 26  5  1  0  0  0  0
 29  6  1  0  0  0  0
 31  8  1  0  0  0  0
 33  9  1  0  0  0  0
 34 11  1  0  0  0  0
 35 13  1  0  0  0  0
 38 18  1  0  0  0  0
 39 23  1  0  0  0  0
M  END
>  <Pose>
1

>  <Score>
-7.74

$$$$
