
 OpenBabel03222201593D

 43 46  0  0  0  0  0  0  0  0999 V2000
  -23.3220   -0.6030  -34.3750 S   0  0  0  0  0  0  0  0  0  0  0  0
  -22.8590    0.3530  -33.2830 O   0  0  0  0  0  0  0  0  0  0  0  0
  -24.7150   -1.0150  -34.0030 O   0  0  0  0  0  0  0  0  0  0  0  0
  -22.2700   -1.9410  -34.3570 N   0  0  0  0  0  0  0  0  0  0  0  0
  -20.8890   -1.6350  -34.3630 C   0  0  0  0  0  0  0  0  0  0  0  0
  -20.2190   -1.5990  -33.0350 C   0  0  0  0  0  0  0  0  0  0  0  0
  -20.6680   -2.7060  -32.1760 N   0  0  0  0  0  0  0  0  0  0  0  0
  -21.4760   -3.7010  -32.8470 C   0  0  0  0  0  0  0  0  0  0  0  0
  -22.6670   -2.9650  -33.4310 C   0  0  0  0  0  0  0  0  0  0  0  0
  -20.3130   -2.7530  -30.8080 C   0  0  0  0  0  0  0  0  0  0  0  0
  -19.6160   -1.6810  -30.2620 C   0  0  0  0  0  0  0  0  0  0  0  0
  -19.2710   -1.7380  -28.9130 C   0  0  0  0  0  0  0  0  0  0  0  0
  -19.5920   -2.7790  -28.1560 N   0  0  0  0  0  0  0  0  0  0  0  0
  -19.1270   -2.5390  -26.9190 C   0  0  0  0  0  0  0  0  0  0  0  0
  -18.5210   -1.3360  -26.9440 N   0  0  0  0  0  0  0  0  0  0  0  0
  -18.6060   -0.8400  -28.1660 N   0  0  0  0  0  0  0  0  0  0  0  0
  -19.2550   -3.4370  -25.7270 C   0  0  0  0  0  0  0  0  0  0  0  0
  -20.2460   -3.7910  -28.6550 N   0  0  0  0  0  0  0  0  0  0  0  0
  -20.6060   -3.7860  -29.9650 C   0  0  0  0  0  0  0  0  0  0  0  0
  -23.2750    0.2950  -35.8680 C   0  0  0  0  0  0  0  0  0  0  0  0
  -24.0650   -0.0530  -36.9550 C   0  0  0  0  0  0  0  0  0  0  0  0
  -24.0270    0.6570  -38.1350 C   0  0  0  0  0  0  0  0  0  0  0  0
  -23.1750    1.7450  -38.2290 C   0  0  0  0  0  0  0  0  0  0  0  0
  -22.3710    2.1320  -37.1750 C   0  0  0  0  0  0  0  0  0  0  0  0
  -22.4390    1.3960  -36.0150 C   0  0  0  0  0  0  0  0  0  0  0  0
  -23.1350    2.7220  -39.8770 B   0  0  0  0  0  0  0  0  0  0  0  0
  -20.3630   -2.3940  -35.0130 H   0  0  0  0  0  0  0  0  0  0  0  0
  -20.7390   -0.6680  -34.8790 H   0  0  0  0  0  0  0  0  0  0  0  0
  -19.1270   -1.7550  -33.1820 H   0  0  0  0  0  0  0  0  0  0  0  0
  -20.3410   -0.6260  -32.5310 H   0  0  0  0  0  0  0  0  0  0  0  0
  -21.8600   -4.4940  -32.2100 H   0  0  0  0  0  0  0  0  0  0  0  0
  -20.9010   -4.1060  -33.7310 H   0  0  0  0  0  0  0  0  0  0  0  0
  -23.3920   -3.6580  -33.9040 H   0  0  0  0  0  0  0  0  0  0  0  0
  -23.1930   -2.4780  -32.5840 H   0  0  0  0  0  0  0  0  0  0  0  0
  -19.3300   -0.8110  -30.8330 H   0  0  0  0  0  0  0  0  0  0  0  0
  -19.4580   -4.4830  -26.0610 H   0  0  0  0  0  0  0  0  0  0  0  0
  -18.3150   -3.4480  -25.1750 H   0  0  0  0  0  0  0  0  0  0  0  0
  -20.0810   -3.1080  -25.0660 H   0  0  0  0  0  0  0  0  0  0  0  0
  -21.1360   -4.6340  -30.3170 H   0  0  0  0  0  0  0  0  0  0  0  0
  -24.7200   -0.9170  -36.8380 H   0  0  0  0  0  0  0  0  0  0  0  0
  -24.6660    0.3320  -38.9370 H   0  0  0  0  0  0  0  0  0  0  0  0
  -21.7280    2.9910  -37.3130 H   0  0  0  0  0  0  0  0  0  0  0  0
  -21.8190    1.6870  -35.1980 H   0  0  0  0  0  0  0  0  0  0  0  0
  1  4  1  0  0  0  0
  1  3  2  0  0  0  0
  1  2  2  0  0  0  0
  4  9  1  0  0  0  0
  5  4  1  0  0  0  0
  5  6  1  0  0  0  0
  6 30  1  0  0  0  0
  6  7  1  0  0  0  0
  7 10  1  0  0  0  0
  8 31  1  0  0  0  0
  8  7  1  0  0  0  0
  9  8  1  0  0  0  0
  9 34  1  0  0  0  0
 10 11  2  0  0  0  0
 10 19  1  0  0  0  0
 11 12  1  0  0  0  0
 12 16  2  0  0  0  0
 12 13  1  0  0  0  0
 13 14  1  0  0  0  0
 14 17  1  0  0  0  0
 15 14  2  0  0  0  0
 16 15  1  0  0  0  0
 17 37  1  0  0  0  0
 17 38  1  0  0  0  0
 18 13  1  0  0  0  0
 19 18  2  0  0  0  0
 20  1  1  0  0  0  0
 21 40  1  0  0  0  0
 21 20  2  0  0  0  0
 22 21  1  0  0  0  0
 23 22  2  0  0  0  0
 23 24  1  0  0  0  0
 24 25  2  0  0  0  0
 25 20  1  0  0  0  0
 25 43  1  0  0  0  0
 26 23  1  0  0  0  0
 27  5  1  0  0  0  0
 28  5  1  0  0  0  0
 29  6  1  0  0  0  0
 32  8  1  0  0  0  0
 33  9  1  0  0  0  0
 35 11  1  0  0  0  0
 36 17  1  0  0  0  0
 39 19  1  0  0  0  0
 41 22  1  0  0  0  0
 42 24  1  0  0  0  0
M  END
>  <Pose>
1

>  <Score>
-6.36

$$$$
