
 OpenBabel03222201593D

 46 49  0  0  0  0  0  0  0  0999 V2000
  -19.4570   -0.6710  -28.8580 S   0  0  0  0  0  0  0  0  0  0  0  0
  -18.1150   -0.1720  -29.3780 O   0  0  0  0  0  0  0  0  0  0  0  0
  -20.4010    0.5050  -29.0120 O   0  0  0  0  0  0  0  0  0  0  0  0
  -19.2740   -1.0990  -27.2490 N   0  0  0  0  0  0  0  0  0  0  0  0
  -20.0660   -2.1390  -26.7380 C   0  0  0  0  0  0  0  0  0  0  0  0
  -19.2480   -3.0810  -25.9040 C   0  0  0  0  0  0  0  0  0  0  0  0
  -18.6500   -2.3400  -24.9000 O   0  0  0  0  0  0  0  0  0  0  0  0
  -17.7010   -1.4500  -25.3860 C   0  0  0  0  0  0  0  0  0  0  0  0
  -18.1530   -0.6490  -26.5450 C   0  0  0  0  0  0  0  0  0  0  0  0
  -19.9800   -1.9740  -29.9010 C   0  0  0  0  0  0  0  0  0  0  0  0
  -20.0690   -3.2830  -29.6080 N   0  0  0  0  0  0  0  0  0  0  0  0
  -20.5190   -3.9480  -30.7020 C   0  0  0  0  0  0  0  0  0  0  0  0
  -20.7210   -3.0710  -31.7010 N   0  0  0  0  0  0  0  0  0  0  0  0
  -20.3990   -1.8750  -31.2320 C   0  0  0  0  0  0  0  0  0  0  0  0
  -21.1990   -3.4190  -33.0240 C   0  0  0  0  0  0  0  0  0  0  0  0
  -21.5480   -2.2150  -33.8130 C   0  0  0  0  0  0  0  0  0  0  0  0
  -22.7360   -1.5580  -33.7530 N   0  0  0  0  0  0  0  0  0  0  0  0
  -22.6850   -0.5560  -34.5770 O   0  0  0  0  0  0  0  0  0  0  0  0
  -21.5300   -0.5000  -35.1900 C   0  0  0  0  0  0  0  0  0  0  0  0
  -20.8150   -1.5480  -34.7070 N   0  0  0  0  0  0  0  0  0  0  0  0
  -21.0680    0.4910  -36.2080 C   0  0  0  0  0  0  0  0  0  0  0  0
  -20.9830    1.8080  -35.5190 C   0  0  0  0  0  0  0  0  0  0  0  0
  -21.8680    2.8070  -35.8950 C   0  0  0  0  0  0  0  0  0  0  0  0
  -21.8630    4.0480  -35.3150 C   0  0  0  0  0  0  0  0  0  0  0  0
  -20.9470    4.2980  -34.3300 C   0  0  0  0  0  0  0  0  0  0  0  0
  -20.0570    3.3530  -33.9260 C   0  0  0  0  0  0  0  0  0  0  0  0
  -20.0850    2.1000  -34.5320 C   0  0  0  0  0  0  0  0  0  0  0  0
  -20.9100    6.0160  -33.5000 B   0  0  0  0  0  0  0  0  0  0  0  0
  -20.5960   -2.6490  -27.5690 H   0  0  0  0  0  0  0  0  0  0  0  0
  -20.8380   -1.6950  -26.0440 H   0  0  0  0  0  0  0  0  0  0  0  0
  -19.8750   -3.8510  -25.4030 H   0  0  0  0  0  0  0  0  0  0  0  0
  -18.4580   -3.5160  -26.5410 H   0  0  0  0  0  0  0  0  0  0  0  0
  -17.4120   -0.7990  -24.5220 H   0  0  0  0  0  0  0  0  0  0  0  0
  -16.7720   -2.0040  -25.6510 H   0  0  0  0  0  0  0  0  0  0  0  0
  -17.2970   -0.5060  -27.2700 H   0  0  0  0  0  0  0  0  0  0  0  0
  -18.3580    0.4010  -26.1790 H   0  0  0  0  0  0  0  0  0  0  0  0
  -20.6840   -5.0220  -30.7440 H   0  0  0  0  0  0  0  0  0  0  0  0
  -20.4370   -0.9320  -31.7590 H   0  0  0  0  0  0  0  0  0  0  0  0
  -22.0920   -4.0730  -32.9640 H   0  0  0  0  0  0  0  0  0  0  0  0
  -20.4220   -4.0090  -33.5520 H   0  0  0  0  0  0  0  0  0  0  0  0
  -21.8340    0.5220  -37.0040 H   0  0  0  0  0  0  0  0  0  0  0  0
  -20.0810    0.1910  -36.6210 H   0  0  0  0  0  0  0  0  0  0  0  0
  -22.5880    2.5810  -36.6820 H   0  0  0  0  0  0  0  0  0  0  0  0
  -22.5610    4.8360  -35.6110 H   0  0  0  0  0  0  0  0  0  0  0  0
  -19.3250    3.5440  -33.1420 H   0  0  0  0  0  0  0  0  0  0  0  0
  -19.3820    1.3380  -34.2190 H   0  0  0  0  0  0  0  0  0  0  0  0
  1  4  1  0  0  0  0
  2  1  2  0  0  0  0
  3  1  2  0  0  0  0
  4  5  1  0  0  0  0
  4  9  1  0  0  0  0
  5 30  1  0  0  0  0
  5  6  1  0  0  0  0
  6 31  1  0  0  0  0
  6  7  1  0  0  0  0
  8  7  1  0  0  0  0
  8 33  1  0  0  0  0
  9 36  1  0  0  0  0
  9  8  1  0  0  0  0
 10 11  1  0  0  0  0
 10  1  1  0  0  0  0
 12 11  2  0  0  0  0
 13 14  1  0  0  0  0
 13 12  1  0  0  0  0
 14 10  2  0  0  0  0
 15 39  1  0  0  0  0
 15 13  1  0  0  0  0
 16 17  2  0  0  0  0
 16 15  1  0  0  0  0
 18 17  1  0  0  0  0
 19 20  2  0  0  0  0
 19 18  1  0  0  0  0
 20 16  1  0  0  0  0
 21 22  1  0  0  0  0
 21 19  1  0  0  0  0
 22 27  1  0  0  0  0
 23 22  2  0  0  0  0
 23 24  1  0  0  0  0
 24 25  2  0  0  0  0
 25 26  1  0  0  0  0
 25 28  1  0  0  0  0
 26 45  1  0  0  0  0
 27 46  1  0  0  0  0
 27 26  2  0  0  0  0
 29  5  1  0  0  0  0
 32  6  1  0  0  0  0
 34  8  1  0  0  0  0
 35  9  1  0  0  0  0
 37 12  1  0  0  0  0
 38 14  1  0  0  0  0
 40 15  1  0  0  0  0
 41 21  1  0  0  0  0
 42 21  1  0  0  0  0
 43 23  1  0  0  0  0
 44 24  1  0  0  0  0
M  END
>  <Pose>
1

>  <Score>
-6.50

$$$$
