
 OpenBabel03222201593D

 37 40  0  0  0  0  0  0  0  0999 V2000
  -19.3890    0.1480  -35.7900 S   0  0  0  0  0  0  0  0  0  0  0  0
  -21.0220    0.7760  -36.2640 C   0  0  0  0  0  0  0  0  0  0  0  0
  -22.0030   -0.3450  -36.1750 C   0  0  0  0  0  0  0  0  0  0  0  0
  -22.8730   -0.3790  -35.2480 O   0  0  0  0  0  0  0  0  0  0  0  0
  -22.0020   -1.4030  -37.1070 N   0  0  0  0  0  0  0  0  0  0  0  0
  -23.2010   -2.0470  -37.4960 C   0  0  0  0  0  0  0  0  0  0  0  0
  -24.4360   -1.8720  -36.9980 N   0  0  0  0  0  0  0  0  0  0  0  0
  -25.2890   -2.6450  -37.6120 O   0  0  0  0  0  0  0  0  0  0  0  0
  -24.6360   -3.3190  -38.4970 N   0  0  0  0  0  0  0  0  0  0  0  0
  -23.3340   -3.0100  -38.4910 C   0  0  0  0  0  0  0  0  0  0  0  0
  -22.3360   -3.5580  -39.3270 N   0  0  0  0  0  0  0  0  0  0  0  0
  -19.5290   -0.5950  -34.1500 C   0  0  0  0  0  0  0  0  0  0  0  0
  -18.9080   -0.0570  -33.0860 N   0  0  0  0  0  0  0  0  0  0  0  0
  -18.9760   -0.5590  -31.8640 N   0  0  0  0  0  0  0  0  0  0  0  0
  -19.6960   -1.6720  -31.6100 C   0  0  0  0  0  0  0  0  0  0  0  0
  -20.3440   -2.2420  -32.6870 C   0  0  0  0  0  0  0  0  0  0  0  0
  -20.9840   -3.3220  -32.1970 N   0  0  0  0  0  0  0  0  0  0  0  0
  -20.7710   -3.4540  -30.8770 C   0  0  0  0  0  0  0  0  0  0  0  0
  -19.9560   -2.4190  -30.4730 C   0  0  0  0  0  0  0  0  0  0  0  0
  -19.5400   -2.2610  -29.1600 C   0  0  0  0  0  0  0  0  0  0  0  0
  -19.9850   -3.2010  -28.2460 C   0  0  0  0  0  0  0  0  0  0  0  0
  -20.8030   -4.2460  -28.6240 C   0  0  0  0  0  0  0  0  0  0  0  0
  -21.2020   -4.3830  -29.9310 C   0  0  0  0  0  0  0  0  0  0  0  0
  -19.4130   -2.9820  -26.4340 B   0  0  0  0  0  0  0  0  0  0  0  0
  -21.7910   -4.2030  -33.0180 C   0  0  0  0  0  0  0  0  0  0  0  0
  -20.2580   -1.7040  -33.9400 N   0  0  0  0  0  0  0  0  0  0  0  0
  -21.3230    1.6490  -35.6690 H   0  0  0  0  0  0  0  0  0  0  0  0
  -20.9520    1.0180  -37.3640 H   0  0  0  0  0  0  0  0  0  0  0  0
  -21.0900   -1.7060  -37.5120 H   0  0  0  0  0  0  0  0  0  0  0  0
  -21.4380   -3.8670  -38.9110 H   0  0  0  0  0  0  0  0  0  0  0  0
  -22.4620   -3.6680  -40.3530 H   0  0  0  0  0  0  0  0  0  0  0  0
  -18.8950   -1.4330  -28.8720 H   0  0  0  0  0  0  0  0  0  0  0  0
  -21.1440   -4.9760  -27.8890 H   0  0  0  0  0  0  0  0  0  0  0  0
  -21.8440   -5.1930  -30.2630 H   0  0  0  0  0  0  0  0  0  0  0  0
  -22.3350   -3.6320  -33.7780 H   0  0  0  0  0  0  0  0  0  0  0  0
  -21.1850   -5.0330  -33.4380 H   0  0  0  0  0  0  0  0  0  0  0  0
  -22.5470   -4.6750  -32.3520 H   0  0  0  0  0  0  0  0  0  0  0  0
  1 12  1  0  0  0  0
  2  3  1  0  0  0  0
  2  1  1  0  0  0  0
  2 27  1  0  0  0  0
  3  4  2  0  0  0  0
  5  3  1  0  0  0  0
  6  5  1  0  0  0  0
  6  7  2  0  0  0  0
  8  7  1  0  0  0  0
  9 10  2  0  0  0  0
  9  8  1  0  0  0  0
 10  6  1  0  0  0  0
 11 30  1  0  0  0  0
 11 10  1  0  0  0  0
 12 26  1  0  0  0  0
 12 13  2  0  0  0  0
 13 14  1  0  0  0  0
 14 15  1  0  0  0  0
 15 19  1  0  0  0  0
 16 17  1  0  0  0  0
 16 15  2  0  0  0  0
 17 18  1  0  0  0  0
 18 19  2  0  0  0  0
 18 23  1  0  0  0  0
 19 20  1  0  0  0  0
 20 32  1  0  0  0  0
 20 21  2  0  0  0  0
 21 24  1  0  0  0  0
 22 21  1  0  0  0  0
 22 33  1  0  0  0  0
 23 22  2  0  0  0  0
 25 37  1  0  0  0  0
 25 17  1  0  0  0  0
 26 16  1  0  0  0  0
 28  2  1  0  0  0  0
 29  5  1  0  0  0  0
 31 11  1  0  0  0  0
 34 23  1  0  0  0  0
 35 25  1  0  0  0  0
 36 25  1  0  0  0  0
M  END
>  <Pose>
1

>  <Score>
-8.77

$$$$
