
 OpenBabel03222201593D

 52 56  0  0  1  0  0  0  0  0999 V2000
  -19.9100    2.4960  -30.1280 S   0  0  0  0  0  0  0  0  0  0  0  0
  -19.4230    1.8500  -31.7210 C   0  0  0  0  0  0  0  0  0  0  0  0
  -19.2130    2.6060  -32.7370 N   0  0  0  0  0  0  0  0  0  0  0  0
  -18.8250    2.1670  -34.0280 C   0  0  0  0  0  0  0  0  0  0  0  0
  -18.1140    2.8160  -34.7990 O   0  0  0  0  0  0  0  0  0  0  0  0
  -19.3760    0.7740  -34.4040 C   0  0  1  0  0  0  0  0  0  0  0  0
  -18.8650   -0.0260  -33.2500 C   0  0  0  0  0  0  0  0  0  0  0  0
  -18.1550   -1.0310  -33.3170 O   0  0  0  0  0  0  0  0  0  0  0  0
  -19.2450    0.4350  -31.9620 N   0  0  0  0  0  0  0  0  0  0  0  0
  -19.4390   -0.4890  -30.9310 C   0  0  0  0  0  0  0  0  0  0  0  0
  -20.4180   -1.4720  -31.1200 C   0  0  0  0  0  0  0  0  0  0  0  0
  -20.6670   -2.4190  -30.1490 C   0  0  0  0  0  0  0  0  0  0  0  0
  -19.9320   -2.3910  -28.9680 C   0  0  0  0  0  0  0  0  0  0  0  0
  -18.9540   -1.4040  -28.7890 C   0  0  0  0  0  0  0  0  0  0  0  0
  -18.7200   -0.4690  -29.7680 C   0  0  0  0  0  0  0  0  0  0  0  0
  -20.2410   -3.6690  -27.6140 B   0  0  0  0  0  0  0  0  0  0  0  0
  -20.8220    0.9460  -34.4520 C   0  0  1  0  0  0  0  0  0  0  0  0
  -21.2310    2.3430  -34.4870 N   0  0  0  0  0  4  0  0  0  0  0  0
  -22.5820    2.4800  -33.9710 C   0  0  0  0  0  0  0  0  0  0  0  0
  -23.3260    1.1770  -33.8390 C   0  0  0  0  0  0  0  0  0  0  0  0
  -23.0420    0.3520  -35.0670 C   0  0  0  0  0  0  0  0  0  0  0  0
  -21.6710    0.2520  -35.4040 C   0  0  0  0  0  0  0  0  0  0  0  0
  -21.3050   -0.4550  -36.5150 C   0  0  0  0  0  0  0  0  0  0  0  0
  -22.3150   -1.0520  -37.2670 C   0  0  0  0  0  0  0  0  0  0  0  0
  -23.6400   -0.9420  -36.9180 C   0  0  0  0  0  0  0  0  0  0  0  0
  -24.0260   -0.2300  -35.7980 C   0  0  0  0  0  0  0  0  0  0  0  0
  -24.3930   -1.6330  -37.8450 O   0  0  0  0  0  0  0  0  0  0  0  0
  -23.5770   -1.9440  -38.9470 C   0  0  0  0  0  0  0  0  0  0  0  0
  -22.2630   -1.8080  -38.4070 O   0  0  0  0  0  0  0  0  0  0  0  0
  -19.9770   -0.5780  -36.8970 O   0  0  0  0  0  0  0  0  0  0  0  0
  -19.3360    0.5300  -37.5190 C   0  0  0  0  0  0  0  0  0  0  0  0
  -21.1760    2.9510  -35.7720 C   0  0  0  0  0  0  0  0  0  0  0  0
  -18.8210    0.5190  -35.2930 H   0  0  0  0  0  0  0  0  0  0  0  0
  -21.0060   -1.5150  -32.0330 H   0  0  0  0  0  0  0  0  0  0  0  0
  -21.4250   -3.1650  -30.3160 H   0  0  0  0  0  0  0  0  0  0  0  0
  -18.3620   -1.3460  -27.8900 H   0  0  0  0  0  0  0  0  0  0  0  0
  -17.9760    0.2830  -29.6330 H   0  0  0  0  0  0  0  0  0  0  0  0
  -21.2000    0.6260  -33.4160 H   0  0  0  0  0  0  0  0  0  0  0  0
  -20.5970    2.8570  -33.8400 H   0  0  0  0  0  0  0  0  0  0  0  0
  -23.1850    3.1490  -34.6180 H   0  0  0  0  0  0  0  0  0  0  0  0
  -22.5890    2.9570  -32.9540 H   0  0  0  0  0  0  0  0  0  0  0  0
  -23.1420    0.6300  -32.9090 H   0  0  0  0  0  0  0  0  0  0  0  0
  -24.4210    1.4250  -33.8870 H   0  0  0  0  0  0  0  0  0  0  0  0
  -25.0720   -0.1320  -35.5080 H   0  0  0  0  0  0  0  0  0  0  0  0
  -23.7490   -2.9800  -39.3060 H   0  0  0  0  0  0  0  0  0  0  0  0
  -23.7520   -1.1860  -39.7370 H   0  0  0  0  0  0  0  0  0  0  0  0
  -19.3860    0.3660  -38.6270 H   0  0  0  0  0  0  0  0  0  0  0  0
  -18.3030    0.6720  -37.1990 H   0  0  0  0  0  0  0  0  0  0  0  0
  -19.9070    1.4460  -37.3170 H   0  0  0  0  0  0  0  0  0  0  0  0
  -21.7070    3.9230  -35.7060 H   0  0  0  0  0  0  0  0  0  0  0  0
  -20.1570    3.1790  -36.1330 H   0  0  0  0  0  0  0  0  0  0  0  0
  -21.7580    2.3590  -36.5350 H   0  0  0  0  0  0  0  0  0  0  0  0
  2  1  2  0  0  0  0
  3  2  1  0  0  0  0
  4  3  1  0  0  0  0
  5  4  2  0  0  0  0
  6 33  1  6  0  0  0
  6  4  1  0  0  0  0
  6  7  1  0  0  0  0
  7  9  1  0  0  0  0
  8  7  2  0  0  0  0
  9  2  1  0  0  0  0
  9 10  1  0  0  0  0
 10 15  1  0  0  0  0
 11 10  2  0  0  0  0
 11 12  1  0  0  0  0
 12 13  2  0  0  0  0
 13 14  1  0  0  0  0
 13 16  1  0  0  0  0
 14 36  1  0  0  0  0
 15 37  1  0  0  0  0
 15 14  2  0  0  0  0
 17  6  1  0  0  0  0
 17 38  1  1  0  0  0
 18 17  1  0  0  0  0
 18 19  1  0  0  0  0
 18 39  1  0  0  0  0
 19 20  1  0  0  0  0
 19 41  1  0  0  0  0
 20 42  1  0  0  0  0
 21 20  1  0  0  0  0
 22 21  1  0  0  0  0
 22 17  1  0  0  0  0
 23 22  2  0  0  0  0
 24 25  2  0  0  0  0
 24 23  1  0  0  0  0
 25 26  1  0  0  0  0
 26 44  1  0  0  0  0
 26 21  2  0  0  0  0
 27 25  1  0  0  0  0
 28 29  1  0  0  0  0
 28 27  1  0  0  0  0
 29 24  1  0  0  0  0
 30 23  1  0  0  0  0
 31 49  1  0  0  0  0
 31 48  1  0  0  0  0
 31 30  1  0  0  0  0
 32 50  1  0  0  0  0
 32 18  1  0  0  0  0
 34 11  1  0  0  0  0
 35 12  1  0  0  0  0
 40 19  1  0  0  0  0
 43 20  1  0  0  0  0
 45 28  1  0  0  0  0
 46 28  1  0  0  0  0
 47 31  1  0  0  0  0
 51 32  1  0  0  0  0
 52 32  1  0  0  0  0
M  END
>  <Pose>
1

>  <Score>
-4.60

$$$$
