
 OpenBabel03222201593D

 39 42  0  0  1  0  0  0  0  0999 V2000
  -18.4910    0.9460  -36.0130 S   0  0  0  0  0  0  0  0  0  0  0  0
  -17.8790    2.2550  -36.4200 O   0  0  0  0  0  0  0  0  0  0  0  0
  -18.0720   -0.1730  -36.9260 O   0  0  0  0  0  0  0  0  0  0  0  0
  -18.0900    0.5380  -34.3280 C   0  0  0  0  0  0  0  0  0  0  0  0
  -19.2080   -0.3600  -33.8410 C   0  0  2  0  0  0  0  0  0  0  0  0
  -20.4140    0.4320  -33.7020 N   0  0  0  0  0  0  0  0  0  0  0  0
  -20.7180    1.4830  -34.6500 C   0  0  0  0  0  0  0  0  0  0  0  0
  -20.2860    1.0550  -36.0530 C   0  0  0  0  0  0  0  0  0  0  0  0
  -21.0620   -0.0780  -32.5440 C   0  0  0  0  0  0  0  0  0  0  0  0
  -22.2680    0.1550  -32.1940 O   0  0  0  0  0  0  0  0  0  0  0  0
  -20.1800   -0.9070  -31.7980 N   0  0  0  0  0  0  0  0  0  0  0  0
  -18.9500   -0.9130  -32.5080 C   0  0  0  0  0  0  0  0  0  0  0  0
  -17.8260   -1.3170  -32.0860 O   0  0  0  0  0  0  0  0  0  0  0  0
  -20.4500   -1.6180  -30.5570 C   0  0  1  0  0  0  0  0  0  0  0  0
  -19.8930   -3.0300  -30.6000 C   0  0  0  0  0  0  0  0  0  0  0  0
  -20.3280   -3.6910  -29.2900 C   0  0  0  0  0  0  0  0  0  0  0  0
  -19.6330   -3.0120  -28.2590 O   0  0  0  0  0  0  0  0  0  0  0  0
  -19.4300   -1.6380  -28.3250 C   0  0  0  0  0  0  0  0  0  0  0  0
  -19.8120   -0.9230  -29.4240 C   0  0  0  0  0  0  0  0  0  0  0  0
  -19.6130    0.4280  -29.4890 C   0  0  0  0  0  0  0  0  0  0  0  0
  -19.0170    1.0590  -28.4230 C   0  0  0  0  0  0  0  0  0  0  0  0
  -18.6390    0.3270  -27.3260 C   0  0  0  0  0  0  0  0  0  0  0  0
  -18.8260   -1.0400  -27.2300 C   0  0  0  0  0  0  0  0  0  0  0  0
  -18.2970   -2.0420  -25.7040 B   0  0  0  0  0  0  0  0  0  0  0  0
  -18.1860    1.4900  -33.7450 H   0  0  0  0  0  0  0  0  0  0  0  0
  -17.0940    0.0800  -34.2330 H   0  0  0  0  0  0  0  0  0  0  0  0
  -19.4350   -1.1830  -34.5410 H   0  0  0  0  0  0  0  0  0  0  0  0
  -20.2000    2.4300  -34.4150 H   0  0  0  0  0  0  0  0  0  0  0  0
  -21.8160    1.6790  -34.7280 H   0  0  0  0  0  0  0  0  0  0  0  0
  -20.7430    0.1170  -36.3630 H   0  0  0  0  0  0  0  0  0  0  0  0
  -20.5240    1.9120  -36.7190 H   0  0  0  0  0  0  0  0  0  0  0  0
  -21.5220   -1.7030  -30.3510 H   0  0  0  0  0  0  0  0  0  0  0  0
  -20.2620   -3.6090  -31.4560 H   0  0  0  0  0  0  0  0  0  0  0  0
  -18.7840   -3.0210  -30.5780 H   0  0  0  0  0  0  0  0  0  0  0  0
  -21.4080   -3.4310  -29.1620 H   0  0  0  0  0  0  0  0  0  0  0  0
  -20.1490   -4.7640  -29.2820 H   0  0  0  0  0  0  0  0  0  0  0  0
  -19.9280    0.9870  -30.3830 H   0  0  0  0  0  0  0  0  0  0  0  0
  -18.8540    2.1300  -28.4630 H   0  0  0  0  0  0  0  0  0  0  0  0
  -18.1720    0.8450  -26.5000 H   0  0  0  0  0  0  0  0  0  0  0  0
  1  4  1  0  0  0  0
  2  1  2  0  0  0  0
  3  1  2  0  0  0  0
  4 26  1  0  0  0  0
  4  5  1  0  0  0  0
  4 25  1  0  0  0  0
  5 27  1  6  0  0  0
  5  6  1  0  0  0  0
  5 12  1  0  0  0  0
  6  9  1  0  0  0  0
  7 28  1  0  0  0  0
  7  6  1  0  0  0  0
  8  1  1  0  0  0  0
  8  7  1  0  0  0  0
  9 10  2  0  0  0  0
  9 11  1  0  0  0  0
 11 14  1  0  0  0  0
 12 13  2  0  0  0  0
 12 11  1  0  0  0  0
 14 32  1  1  0  0  0
 14 19  1  0  0  0  0
 15 34  1  0  0  0  0
 15 14  1  0  0  0  0
 15 16  1  0  0  0  0
 16 36  1  0  0  0  0
 16 35  1  0  0  0  0
 16 17  1  0  0  0  0
 18 17  1  0  0  0  0
 18 23  1  0  0  0  0
 19 18  2  0  0  0  0
 20 19  1  0  0  0  0
 20 21  2  0  0  0  0
 21 22  1  0  0  0  0
 22 23  2  0  0  0  0
 22 39  1  0  0  0  0
 23 24  1  0  0  0  0
 29  7  1  0  0  0  0
 30  8  1  0  0  0  0
 31  8  1  0  0  0  0
 33 15  1  0  0  0  0
 37 20  1  0  0  0  0
 38 21  1  0  0  0  0
M  END
>  <Pose>
1

>  <Score>
-5.74

$$$$
