
 OpenBabel03222201593D

 58 61  0  0  1  0  0  0  0  0999 V2000
  -20.8000   -0.6020  -38.7810 S   0  0  0  0  0  0  0  0  0  0  0  0
  -22.3340   -1.1330  -39.2990 C   0  0  0  0  0  0  0  0  0  0  0  0
  -22.9750   -1.3050  -38.1600 N   0  0  0  0  0  0  0  0  0  0  0  0
  -22.3740   -1.0630  -37.0350 C   0  0  0  0  0  0  0  0  0  0  0  0
  -21.0720   -0.6290  -37.0890 C   0  0  0  0  0  0  0  0  0  0  0  0
  -20.1360   -0.3250  -35.9850 C   0  0  0  0  0  0  0  0  0  0  0  0
  -19.3240    0.6880  -36.0620 C   0  0  0  0  0  0  0  0  0  0  0  0
  -18.3440    1.0920  -35.0050 C   0  0  1  0  0  0  0  0  0  0  0  0
  -18.3170    2.5240  -35.1340 N   0  0  0  0  0  0  0  0  0  0  0  0
  -18.4730    2.7820  -36.5360 C   0  0  0  0  0  0  0  0  0  0  0  0
  -18.1240    3.8160  -37.1340 O   0  0  0  0  0  0  0  0  0  0  0  0
  -19.1110    1.6280  -37.1540 C   0  0  0  0  0  0  0  0  0  0  0  0
  -19.4360    1.4060  -38.3520 O   0  0  0  0  0  0  0  0  0  0  0  0
  -18.1420    3.4510  -34.0560 C   0  0  0  0  0  0  0  0  0  0  0  0
  -18.9970    4.6480  -34.1020 C   0  0  0  0  0  0  0  0  0  0  0  0
  -20.4260    4.4720  -34.1320 C   0  0  0  0  0  0  0  0  0  0  0  0
  -21.4360    5.4200  -34.1100 N   0  0  0  0  0  4  0  0  0  0  0  0
  -21.4290    6.2350  -35.3810 C   0  0  0  0  0  0  0  0  0  0  0  0
  -20.3630    7.2760  -35.2870 C   0  0  0  0  0  0  0  0  0  0  0  0
  -20.7600    8.1890  -34.3170 O   0  0  0  0  0  0  0  0  0  0  0  0
  -20.6400    7.5020  -33.0880 C   0  0  0  0  0  0  0  0  0  0  0  0
  -21.5880    6.3360  -33.0340 C   0  0  0  0  0  0  0  0  0  0  0  0
  -18.7460    0.5760  -33.6880 C   0  0  0  0  0  0  0  0  0  0  0  0
  -19.8640    0.9260  -32.9820 C   0  0  0  0  0  0  0  0  0  0  0  0
  -20.2020    0.4210  -31.7470 C   0  0  0  0  0  0  0  0  0  0  0  0
  -19.3710   -0.5020  -31.1660 C   0  0  0  0  0  0  0  0  0  0  0  0
  -18.2340   -0.8940  -31.8240 C   0  0  0  0  0  0  0  0  0  0  0  0
  -17.9260   -0.3700  -33.0580 C   0  0  0  0  0  0  0  0  0  0  0  0
  -19.8460   -1.2050  -29.4470 B   0  0  0  0  0  0  0  0  0  0  0  0
  -20.1180   -1.1360  -34.8370 O   0  0  0  0  0  0  0  0  0  0  0  0
  -23.0710   -1.2930  -35.6970 C   0  0  0  0  0  0  0  0  0  0  0  0
  -22.8630   -1.3610  -40.6890 C   0  0  0  0  0  0  0  0  0  0  0  0
  -17.3320    0.7240  -35.2660 H   0  0  0  0  0  0  0  0  0  0  0  0
  -18.1530    2.9460  -33.1070 H   0  0  0  0  0  0  0  0  0  0  0  0
  -17.0410    3.8080  -34.1610 H   0  0  0  0  0  0  0  0  0  0  0  0
  -18.6050    5.3570  -33.3180 H   0  0  0  0  0  0  0  0  0  0  0  0
  -18.6550    5.2140  -35.0450 H   0  0  0  0  0  0  0  0  0  0  0  0
  -20.6100    3.7040  -35.0070 H   0  0  0  0  0  0  0  0  0  0  0  0
  -20.6720    3.7400  -33.2630 H   0  0  0  0  0  0  0  0  0  0  0  0
  -22.3680    4.9480  -34.2060 H   0  0  0  0  0  0  0  0  0  0  0  0
  -21.3980    5.5520  -36.2120 H   0  0  0  0  0  0  0  0  0  0  0  0
  -22.3960    6.7660  -35.3980 H   0  0  0  0  0  0  0  0  0  0  0  0
  -20.2580    7.7410  -36.2870 H   0  0  0  0  0  0  0  0  0  0  0  0
  -19.3790    6.8890  -34.9580 H   0  0  0  0  0  0  0  0  0  0  0  0
  -20.9320    8.2310  -32.3050 H   0  0  0  0  0  0  0  0  0  0  0  0
  -19.5880    7.2670  -32.9550 H   0  0  0  0  0  0  0  0  0  0  0  0
  -22.6250    6.8560  -33.1120 H   0  0  0  0  0  0  0  0  0  0  0  0
  -21.6150    5.8980  -32.0580 H   0  0  0  0  0  0  0  0  0  0  0  0
  -20.5330    1.6500  -33.4240 H   0  0  0  0  0  0  0  0  0  0  0  0
  -21.1170    0.7670  -31.2670 H   0  0  0  0  0  0  0  0  0  0  0  0
  -17.5940   -1.6350  -31.3290 H   0  0  0  0  0  0  0  0  0  0  0  0
  -17.0280   -0.6900  -33.5590 H   0  0  0  0  0  0  0  0  0  0  0  0
  -22.3500   -1.3520  -34.8940 H   0  0  0  0  0  0  0  0  0  0  0  0
  -23.8370   -0.5180  -35.5100 H   0  0  0  0  0  0  0  0  0  0  0  0
  -23.6220   -2.2670  -35.7360 H   0  0  0  0  0  0  0  0  0  0  0  0
  -22.0030   -1.6660  -41.3400 H   0  0  0  0  0  0  0  0  0  0  0  0
  -23.5520   -2.2460  -40.6960 H   0  0  0  0  0  0  0  0  0  0  0  0
  -23.3580   -0.4700  -41.0860 H   0  0  0  0  0  0  0  0  0  0  0  0
  1  5  1  0  0  0  0
  2  1  1  0  0  0  0
  2  3  2  0  0  0  0
  3  4  1  0  0  0  0
  4 31  1  0  0  0  0
  5  4  2  0  0  0  0
  5  6  1  0  0  0  0
  6 30  1  0  0  0  0
  7  6  2  0  0  0  0
  7  8  1  0  0  0  0
  8 33  1  6  0  0  0
  8 23  1  0  0  0  0
  9  8  1  0  0  0  0
  9 14  1  0  0  0  0
 10  9  1  0  0  0  0
 11 10  2  0  0  0  0
 12 10  1  0  0  0  0
 12  7  1  0  0  0  0
 13 12  2  0  0  0  0
 14 34  1  0  0  0  0
 15 14  1  0  0  0  0
 15 36  1  0  0  0  0
 16 17  1  0  0  0  0
 16 15  1  0  0  0  0
 16 39  1  0  0  0  0
 17 22  1  0  0  0  0
 18 19  1  0  0  0  0
 18 17  1  0  0  0  0
 19 44  1  0  0  0  0
 19 20  1  0  0  0  0
 20 21  1  0  0  0  0
 21 22  1  0  0  0  0
 21 46  1  0  0  0  0
 21 45  1  0  0  0  0
 22 48  1  0  0  0  0
 23 28  2  0  0  0  0
 23 24  1  0  0  0  0
 24 25  2  0  0  0  0
 25 50  1  0  0  0  0
 25 26  1  0  0  0  0
 26 29  1  0  0  0  0
 27 51  1  0  0  0  0
 27 26  2  0  0  0  0
 28 27  1  0  0  0  0
 31 54  1  0  0  0  0
 31 53  1  0  0  0  0
 32  2  1  0  0  0  0
 35 14  1  0  0  0  0
 37 15  1  0  0  0  0
 38 16  1  0  0  0  0
 40 17  1  0  0  0  0
 41 18  1  0  0  0  0
 42 18  1  0  0  0  0
 43 19  1  0  0  0  0
 47 22  1  0  0  0  0
 49 24  1  0  0  0  0
 52 28  1  0  0  0  0
 55 31  1  0  0  0  0
 56 32  1  0  0  0  0
 57 32  1  0  0  0  0
 58 32  1  0  0  0  0
M  END
>  <Pose>
1

>  <Score>
-5.74

$$$$
