
 OpenBabel03222201593D

 40 43  0  0  1  0  0  0  0  0999 V2000
  -20.8440   -3.9460  -30.5120 S   0  0  0  0  0  0  0  0  0  0  0  0
  -20.2980   -4.7100  -28.9630 C   0  0  2  0  0  0  0  0  0  0  0  0
  -20.2090   -3.4790  -28.1030 C   0  0  0  0  0  0  0  0  0  0  0  0
  -19.8110   -2.3250  -28.8520 N   0  0  0  0  0  0  0  0  0  0  0  0
  -20.0420   -2.3840  -30.1740 C   0  0  2  0  0  0  0  0  0  0  0  0
  -19.6010   -1.2590  -30.7490 N   0  0  0  0  0  0  0  0  0  0  0  0
  -19.0800   -0.4610  -29.7900 C   0  0  0  0  0  0  0  0  0  0  0  0
  -19.2050   -1.1170  -28.5890 C   0  0  0  0  0  0  0  0  0  0  0  0
  -18.7540   -0.5920  -27.3220 C   0  0  0  0  0  0  0  0  0  0  0  0
  -18.4430    0.7770  -27.2540 C   0  0  0  0  0  0  0  0  0  0  0  0
  -18.0470    1.3500  -26.0730 C   0  0  0  0  0  0  0  0  0  0  0  0
  -17.9310    0.6440  -24.9020 C   0  0  0  0  0  0  0  0  0  0  0  0
  -18.2300   -0.6980  -24.9420 C   0  0  0  0  0  0  0  0  0  0  0  0
  -18.6350   -1.2840  -26.1470 C   0  0  0  0  0  0  0  0  0  0  0  0
  -17.5150    1.3090  -23.7250 N   0  0  0  0  0  0  0  0  0  0  0  0
  -17.6820    2.5270  -23.5930 O   0  0  0  0  0  0  0  0  0  0  0  0
  -16.9250    0.5940  -22.7280 O   0  0  0  0  0  0  0  0  0  0  0  0
  -19.6610   -0.9330  -32.1330 C   0  0  0  0  0  0  0  0  0  0  0  0
  -20.6990   -1.3470  -32.9350 C   0  0  0  0  0  0  0  0  0  0  0  0
  -20.7800   -1.0450  -34.2780 C   0  0  0  0  0  0  0  0  0  0  0  0
  -19.7850   -0.2960  -34.8670 C   0  0  0  0  0  0  0  0  0  0  0  0
  -18.7240    0.1370  -34.0910 C   0  0  0  0  0  0  0  0  0  0  0  0
  -18.6670   -0.1790  -32.7490 C   0  0  0  0  0  0  0  0  0  0  0  0
  -19.8640    0.1410  -36.7280 B   0  0  0  0  0  0  0  0  0  0  0  0
  -18.9090   -5.2860  -29.0930 C   0  0  0  0  0  0  0  0  0  0  0  0
  -21.0270   -5.4330  -28.5680 H   0  0  0  0  0  0  0  0  0  0  0  0
  -21.2160   -3.3280  -27.6510 H   0  0  0  0  0  0  0  0  0  0  0  0
  -19.4570   -3.6810  -27.2910 H   0  0  0  0  0  0  0  0  0  0  0  0
  -18.6390    0.5380  -29.9650 H   0  0  0  0  0  0  0  0  0  0  0  0
  -18.5140    1.3850  -28.1520 H   0  0  0  0  0  0  0  0  0  0  0  0
  -17.8170    2.4160  -26.0740 H   0  0  0  0  0  0  0  0  0  0  0  0
  -18.1540   -1.3000  -24.0450 H   0  0  0  0  0  0  0  0  0  0  0  0
  -18.8760   -2.3190  -26.0980 H   0  0  0  0  0  0  0  0  0  0  0  0
  -21.4930   -1.9430  -32.4670 H   0  0  0  0  0  0  0  0  0  0  0  0
  -21.6320   -1.4100  -34.8320 H   0  0  0  0  0  0  0  0  0  0  0  0
  -17.9280    0.7310  -34.5430 H   0  0  0  0  0  0  0  0  0  0  0  0
  -17.8560    0.1380  -32.0990 H   0  0  0  0  0  0  0  0  0  0  0  0
  -18.8910   -6.2170  -29.6650 H   0  0  0  0  0  0  0  0  0  0  0  0
  -18.2920   -4.5120  -29.6060 H   0  0  0  0  0  0  0  0  0  0  0  0
  -18.5110   -5.4690  -28.0780 H   0  0  0  0  0  0  0  0  0  0  0  0
  1  2  1  0  0  0  0
  2 26  1  1  0  0  0
  2  3  1  0  0  0  0
  3 27  1  0  0  0  0
  3 28  1  0  0  0  0
  4  8  1  0  0  0  0
  4  3  1  0  0  0  0
  5  1  1  1  0  0  0
  5  4  1  0  0  0  0
  6  5  1  0  0  0  0
  6  7  1  0  0  0  0
  7  8  2  0  0  0  0
  8  9  1  0  0  0  0
  9 10  2  0  0  0  0
  9 14  1  0  0  0  0
 10 11  1  0  0  0  0
 11 12  2  0  0  0  0
 12 15  1  0  0  0  0
 13 12  1  0  0  0  0
 13 32  1  0  0  0  0
 14 33  1  0  0  0  0
 14 13  2  0  0  0  0
 15 16  2  0  0  0  0
 15 17  2  0  0  0  0
 18  6  1  0  0  0  0
 19 34  1  0  0  0  0
 19 18  2  0  0  0  0
 20 19  1  0  0  0  0
 21 20  2  0  0  0  0
 21 22  1  0  0  0  0
 22 23  2  0  0  0  0
 23 18  1  0  0  0  0
 23 37  1  0  0  0  0
 24 21  1  0  0  0  0
 25  2  1  0  0  0  0
 25 40  1  0  0  0  0
 29  7  1  0  0  0  0
 30 10  1  0  0  0  0
 31 11  1  0  0  0  0
 35 20  1  0  0  0  0
 36 22  1  0  0  0  0
 38 25  1  0  0  0  0
 39 25  1  0  0  0  0
M  END
>  <Pose>
1

>  <Score>
-6.17

$$$$
