
 OpenBabel03222201593D

 45 48  0  0  1  0  0  0  0  0999 V2000
  -22.3050    1.2280  -32.2200 S   0  0  0  0  0  0  0  0  0  0  0  0
  -23.6720    1.1740  -33.4430 C   0  0  0  0  0  0  0  0  0  0  0  0
  -23.4780   -0.1600  -34.1680 C   0  0  0  0  0  0  0  0  0  0  0  0
  -22.1820   -0.0690  -34.9670 C   0  0  0  0  0  0  0  0  0  0  0  0
  -21.1020   -0.3920  -34.0680 N   0  0  1  0  0  0  0  0  0  0  0  0
  -21.0630    0.1140  -32.8630 C   0  0  2  0  0  0  0  0  0  0  0  0
  -19.8760   -0.4150  -32.2140 N   0  0  0  0  0  0  0  0  0  0  0  0
  -18.9430   -0.4600  -33.3190 C   0  0  2  0  0  0  0  0  0  0  0  0
  -19.9370   -1.2660  -34.2350 C   0  0  0  0  0  0  0  0  0  0  0  0
  -17.7920   -1.1480  -33.1000 O   0  0  0  0  0  0  0  0  0  0  0  0
  -18.7870    0.8840  -33.8890 C   0  0  0  0  0  0  0  0  0  0  0  0
  -18.8800    2.0400  -33.1330 C   0  0  0  0  0  0  0  0  0  0  0  0
  -18.7530    3.2910  -33.7570 C   0  0  0  0  0  0  0  0  0  0  0  0
  -18.5430    3.4200  -35.0780 C   0  0  0  0  0  0  0  0  0  0  0  0
  -18.4410    2.2620  -35.8770 C   0  0  0  0  0  0  0  0  0  0  0  0
  -18.5710    1.0480  -35.2240 C   0  0  0  0  0  0  0  0  0  0  0  0
  -18.4110    4.6650  -35.7460 O   0  0  0  0  0  0  0  0  0  0  0  0
  -17.5910    5.6800  -35.2070 C   0  0  0  0  0  0  0  0  0  0  0  0
  -19.7560   -0.8330  -30.8730 C   0  0  0  0  0  0  0  0  0  0  0  0
  -19.7690   -2.2260  -30.6160 C   0  0  0  0  0  0  0  0  0  0  0  0
  -19.7110   -2.7310  -29.3280 C   0  0  0  0  0  0  0  0  0  0  0  0
  -19.6410   -1.8970  -28.2460 C   0  0  0  0  0  0  0  0  0  0  0  0
  -19.6280   -0.5350  -28.4630 C   0  0  0  0  0  0  0  0  0  0  0  0
  -19.6850   -0.0300  -29.7770 C   0  0  0  0  0  0  0  0  0  0  0  0
  -19.5800   -2.5460  -26.4500 B   0  0  0  0  0  0  0  0  0  0  0  0
  -24.6070    1.1430  -32.8560 H   0  0  0  0  0  0  0  0  0  0  0  0
  -23.6060    2.0170  -34.1430 H   0  0  0  0  0  0  0  0  0  0  0  0
  -24.3470   -0.4240  -34.7720 H   0  0  0  0  0  0  0  0  0  0  0  0
  -23.3590   -0.9260  -33.3470 H   0  0  0  0  0  0  0  0  0  0  0  0
  -22.2240   -0.8100  -35.7970 H   0  0  0  0  0  0  0  0  0  0  0  0
  -22.0370    0.9070  -35.4460 H   0  0  0  0  0  0  0  0  0  0  0  0
  -19.5810   -1.3750  -35.2330 H   0  0  0  0  0  0  0  0  0  0  0  0
  -20.1170   -2.1950  -33.6570 H   0  0  0  0  0  0  0  0  0  0  0  0
  -17.1430   -0.9250  -33.8350 H   0  0  0  0  0  0  0  0  0  0  0  0
  -19.0500    1.9780  -32.0810 H   0  0  0  0  0  0  0  0  0  0  0  0
  -18.8330    4.1660  -33.1230 H   0  0  0  0  0  0  0  0  0  0  0  0
  -18.2800    2.3470  -36.9270 H   0  0  0  0  0  0  0  0  0  0  0  0
  -18.4810    0.1830  -35.8690 H   0  0  0  0  0  0  0  0  0  0  0  0
  -17.3650    6.3980  -36.0140 H   0  0  0  0  0  0  0  0  0  0  0  0
  -16.6160    5.3160  -34.8290 H   0  0  0  0  0  0  0  0  0  0  0  0
  -18.1020    6.2180  -34.3570 H   0  0  0  0  0  0  0  0  0  0  0  0
  -19.8250   -2.9070  -31.4360 H   0  0  0  0  0  0  0  0  0  0  0  0
  -19.7220   -3.8050  -29.1470 H   0  0  0  0  0  0  0  0  0  0  0  0
  -19.5800    0.1350  -27.6260 H   0  0  0  0  0  0  0  0  0  0  0  0
  -19.6790    1.0500  -29.9190 H   0  0  0  0  0  0  0  0  0  0  0  0
  2 26  1  0  0  0  0
  2  1  1  0  0  0  0
  3  2  1  0  0  0  0
  3 29  1  0  0  0  0
  4  3  1  0  0  0  0
  5  4  1  1  0  0  0
  5  6  1  0  0  0  0
  6  1  1  1  0  0  0
  6  7  1  0  0  0  0
  7 19  1  0  0  0  0
  8 10  1  1  0  0  0
  8  7  1  0  0  0  0
  9  5  1  0  0  0  0
  9 33  1  0  0  0  0
  9  8  1  0  0  0  0
 11  8  1  0  0  0  0
 11 12  1  0  0  0  0
 12 35  1  0  0  0  0
 13 12  2  0  0  0  0
 13 36  1  0  0  0  0
 14 13  1  0  0  0  0
 15 16  1  0  0  0  0
 15 14  2  0  0  0  0
 16 11  2  0  0  0  0
 17 18  1  0  0  0  0
 17 14  1  0  0  0  0
 18 40  1  0  0  0  0
 18 41  1  0  0  0  0
 19 20  2  0  0  0  0
 19 24  1  0  0  0  0
 20 21  1  0  0  0  0
 21 43  1  0  0  0  0
 21 22  2  0  0  0  0
 22 25  1  0  0  0  0
 23 22  1  0  0  0  0
 23 44  1  0  0  0  0
 24 23  2  0  0  0  0
 27  2  1  0  0  0  0
 28  3  1  0  0  0  0
 30  4  1  0  0  0  0
 31  4  1  0  0  0  0
 32  9  1  0  0  0  0
 34 10  1  0  0  0  0
 37 15  1  0  0  0  0
 38 16  1  0  0  0  0
 39 18  1  0  0  0  0
 42 20  1  0  0  0  0
 45 24  1  0  0  0  0
M  END
>  <Pose>
1

>  <Score>
-5.24

$$$$
