
 OpenBabel03222201593D

 43 46  0  0  1  0  0  0  0  0999 V2000
  -22.2100   -3.8150  -32.3730 S   0  0  0  0  0  0  0  0  0  0  0  0
  -22.1860   -5.1700  -33.6190 C   0  0  0  0  0  0  0  0  0  0  0  0
  -21.2490   -4.7850  -34.7500 C   0  0  0  0  0  0  0  0  0  0  0  0
  -21.4810   -3.3620  -35.1880 C   0  0  0  0  0  0  0  0  0  0  0  0
  -20.8090   -2.4660  -34.3020 N   0  0  2  0  0  0  0  0  0  0  0  0
  -20.0060   -1.2630  -34.4230 C   0  0  1  0  0  0  0  0  0  0  0  0
  -19.1090   -1.3260  -33.1990 C   0  0  0  0  0  0  0  0  0  0  0  0
  -19.9510   -2.0960  -32.2610 N   0  0  0  0  0  0  0  0  0  0  0  0
  -20.8700   -2.7160  -32.8890 C   0  0  1  0  0  0  0  0  0  0  0  0
  -19.7400   -2.1440  -30.8530 C   0  0  0  0  0  0  0  0  0  0  0  0
  -19.2420   -1.1380  -30.0780 C   0  0  0  0  0  0  0  0  0  0  0  0
  -19.0800   -1.2470  -28.7040 C   0  0  0  0  0  0  0  0  0  0  0  0
  -19.4310   -2.4190  -28.0650 C   0  0  0  0  0  0  0  0  0  0  0  0
  -19.9410   -3.4660  -28.8240 C   0  0  0  0  0  0  0  0  0  0  0  0
  -20.0950   -3.3340  -30.1980 C   0  0  0  0  0  0  0  0  0  0  0  0
  -19.2390   -2.6670  -26.1780 B   0  0  0  0  0  0  0  0  0  0  0  0
  -19.2840   -1.2270  -35.5990 O   0  0  0  0  0  0  0  0  0  0  0  0
  -20.8340   -0.0380  -34.3160 C   0  0  0  0  0  0  0  0  0  0  0  0
  -22.1850   -0.1450  -34.0490 C   0  0  0  0  0  0  0  0  0  0  0  0
  -22.9250    1.0340  -33.9570 C   0  0  0  0  0  0  0  0  0  0  0  0
  -22.3380    2.2510  -34.1230 C   0  0  0  0  0  0  0  0  0  0  0  0
  -20.9860    2.3730  -34.3890 C   0  0  0  0  0  0  0  0  0  0  0  0
  -20.2490    1.1860  -34.4800 C   0  0  0  0  0  0  0  0  0  0  0  0
  -24.3130    0.9340  -33.6830 N   0  0  0  0  0  0  0  0  0  0  0  0
  -25.0470    0.1320  -34.2920 O   0  0  0  0  0  0  0  0  0  0  0  0
  -24.9060    1.7190  -32.7350 O   0  0  0  0  0  0  0  0  0  0  0  0
  -23.1960   -5.3880  -33.9670 H   0  0  0  0  0  0  0  0  0  0  0  0
  -21.7620   -6.0710  -33.1440 H   0  0  0  0  0  0  0  0  0  0  0  0
  -21.4640   -5.4480  -35.6200 H   0  0  0  0  0  0  0  0  0  0  0  0
  -20.1960   -4.9090  -34.4800 H   0  0  0  0  0  0  0  0  0  0  0  0
  -21.2040   -3.2430  -36.2480 H   0  0  0  0  0  0  0  0  0  0  0  0
  -22.5880   -3.1490  -35.0970 H   0  0  0  0  0  0  0  0  0  0  0  0
  -18.1660   -1.8460  -33.3950 H   0  0  0  0  0  0  0  0  0  0  0  0
  -18.9190   -0.3250  -32.7510 H   0  0  0  0  0  0  0  0  0  0  0  0
  -18.9490   -0.2080  -30.5320 H   0  0  0  0  0  0  0  0  0  0  0  0
  -18.6850   -0.4390  -28.0990 H   0  0  0  0  0  0  0  0  0  0  0  0
  -20.2150   -4.3770  -28.3030 H   0  0  0  0  0  0  0  0  0  0  0  0
  -20.4960   -4.1680  -30.7690 H   0  0  0  0  0  0  0  0  0  0  0  0
  -18.9680   -2.0790  -35.9320 H   0  0  0  0  0  0  0  0  0  0  0  0
  -22.6470   -1.1070  -33.9200 H   0  0  0  0  0  0  0  0  0  0  0  0
  -22.9110    3.1650  -34.0510 H   0  0  0  0  0  0  0  0  0  0  0  0
  -20.5460    3.3330  -34.5100 H   0  0  0  0  0  0  0  0  0  0  0  0
  -19.1980    1.3030  -34.6890 H   0  0  0  0  0  0  0  0  0  0  0  0
  2 28  1  0  0  0  0
  2  1  1  0  0  0  0
  3 30  1  0  0  0  0
  3  2  1  0  0  0  0
  4 32  1  0  0  0  0
  4  3  1  0  0  0  0
  5  4  1  6  0  0  0
  5  9  1  0  0  0  0
  6 17  1  6  0  0  0
  6 18  1  0  0  0  0
  6  5  1  0  0  0  0
  6  7  1  0  0  0  0
  7 34  1  0  0  0  0
  7  8  1  0  0  0  0
  8 10  1  0  0  0  0
  9  1  1  1  0  0  0
  9  8  1  0  0  0  0
 10 15  2  0  0  0  0
 10 11  1  0  0  0  0
 11 12  2  0  0  0  0
 12 36  1  0  0  0  0
 12 13  1  0  0  0  0
 13 16  1  0  0  0  0
 14 37  1  0  0  0  0
 14 13  2  0  0  0  0
 15 14  1  0  0  0  0
 18 19  1  0  0  0  0
 19 20  2  0  0  0  0
 19 40  1  0  0  0  0
 20 24  1  0  0  0  0
 21 41  1  0  0  0  0
 21 20  1  0  0  0  0
 22 21  2  0  0  0  0
 23 22  1  0  0  0  0
 23 18  2  0  0  0  0
 24 26  2  0  0  0  0
 25 24  2  0  0  0  0
 27  2  1  0  0  0  0
 29  3  1  0  0  0  0
 31  4  1  0  0  0  0
 33  7  1  0  0  0  0
 35 11  1  0  0  0  0
 38 15  1  0  0  0  0
 39 17  1  0  0  0  0
 42 22  1  0  0  0  0
 43 23  1  0  0  0  0
M  END
>  <Pose>
1

>  <Score>
-5.52

$$$$
