
 OpenBabel03222201593D

 43 46  0  0  1  0  0  0  0  0999 V2000
  -17.9280   -0.2830  -32.8430 S   0  0  0  0  0  0  0  0  0  0  0  0
  -17.9370    1.5550  -32.8530 C   0  0  0  0  0  0  0  0  0  0  0  0
  -18.7330    2.1320  -33.9470 C   0  0  0  0  0  0  0  0  0  0  0  0
  -19.2160    1.2620  -35.0330 C   0  0  0  0  0  0  0  0  0  0  0  0
  -19.8640    0.0620  -34.6920 N   0  0  1  0  0  0  0  0  0  0  0  0
  -20.8690   -0.7430  -35.3160 C   0  0  2  0  0  0  0  0  0  0  0  0
  -21.5970   -1.2740  -34.1010 C   0  0  0  0  0  0  0  0  0  0  0  0
  -20.5160   -1.4210  -33.1510 N   0  0  0  0  0  0  0  0  0  0  0  0
  -19.5690   -0.6760  -33.4780 C   0  0  1  0  0  0  0  0  0  0  0  0
  -20.5300   -2.3030  -32.0220 C   0  0  0  0  0  0  0  0  0  0  0  0
  -20.2680   -1.7740  -30.7660 C   0  0  0  0  0  0  0  0  0  0  0  0
  -20.2440   -2.5740  -29.6260 C   0  0  0  0  0  0  0  0  0  0  0  0
  -20.4810   -3.9280  -29.7140 C   0  0  0  0  0  0  0  0  0  0  0  0
  -20.7420   -4.4660  -30.9510 C   0  0  0  0  0  0  0  0  0  0  0  0
  -20.7580   -3.6370  -32.0790 C   0  0  0  0  0  0  0  0  0  0  0  0
  -20.4290   -5.0290  -28.1380 B   0  0  0  0  0  0  0  0  0  0  0  0
  -20.2620   -1.8460  -35.9240 O   0  0  0  0  0  0  0  0  0  0  0  0
  -21.7820   -0.0460  -36.2420 C   0  0  0  0  0  0  0  0  0  0  0  0
  -23.1370   -0.3450  -36.1440 C   0  0  0  0  0  0  0  0  0  0  0  0
  -24.0680    0.2560  -36.9630 C   0  0  0  0  0  0  0  0  0  0  0  0
  -23.7020    1.1850  -37.9200 C   0  0  0  0  0  0  0  0  0  0  0  0
  -22.3580    1.4880  -38.0200 C   0  0  0  0  0  0  0  0  0  0  0  0
  -21.4150    0.8750  -37.1880 C   0  0  0  0  0  0  0  0  0  0  0  0
  -24.6780    1.7910  -38.7470 N   0  0  0  0  0  0  0  0  0  0  0  0
  -25.8830    1.5190  -38.6940 O   0  0  0  0  0  0  0  0  0  0  0  0
  -24.2820    2.7370  -39.6580 O   0  0  0  0  0  0  0  0  0  0  0  0
  -18.3330    1.8790  -31.8460 H   0  0  0  0  0  0  0  0  0  0  0  0
  -16.8920    1.8610  -32.8560 H   0  0  0  0  0  0  0  0  0  0  0  0
  -19.5840    2.7070  -33.5200 H   0  0  0  0  0  0  0  0  0  0  0  0
  -18.0890    2.9350  -34.4340 H   0  0  0  0  0  0  0  0  0  0  0  0
  -18.3370    0.9890  -35.6960 H   0  0  0  0  0  0  0  0  0  0  0  0
  -19.8460    1.8830  -35.7090 H   0  0  0  0  0  0  0  0  0  0  0  0
  -22.2750   -0.4220  -33.7880 H   0  0  0  0  0  0  0  0  0  0  0  0
  -22.1560   -2.1910  -34.3180 H   0  0  0  0  0  0  0  0  0  0  0  0
  -20.0700   -0.7170  -30.6570 H   0  0  0  0  0  0  0  0  0  0  0  0
  -20.0320   -2.1290  -28.6520 H   0  0  0  0  0  0  0  0  0  0  0  0
  -20.9160   -5.5180  -31.0420 H   0  0  0  0  0  0  0  0  0  0  0  0
  -20.9580   -4.0940  -33.0480 H   0  0  0  0  0  0  0  0  0  0  0  0
  -19.3020   -1.7030  -35.9490 H   0  0  0  0  0  0  0  0  0  0  0  0
  -23.4540   -1.0780  -35.3990 H   0  0  0  0  0  0  0  0  0  0  0  0
  -25.1400    0.0420  -36.9130 H   0  0  0  0  0  0  0  0  0  0  0  0
  -22.0440    2.2160  -38.7670 H   0  0  0  0  0  0  0  0  0  0  0  0
  -20.3630    1.1280  -37.2880 H   0  0  0  0  0  0  0  0  0  0  0  0
  2  1  1  0  0  0  0
  2 27  1  0  0  0  0
  3 29  1  0  0  0  0
  3  2  1  0  0  0  0
  4  3  1  0  0  0  0
  5  4  1  6  0  0  0
  5  9  1  0  0  0  0
  6 17  1  6  0  0  0
  6  5  1  0  0  0  0
  6  7  1  0  0  0  0
  7 33  1  0  0  0  0
  7  8  1  0  0  0  0
  8 10  1  0  0  0  0
  9  8  1  0  0  0  0
  9  1  1  6  0  0  0
 10 11  1  0  0  0  0
 11 35  1  0  0  0  0
 11 12  2  0  0  0  0
 12 36  1  0  0  0  0
 13 12  1  0  0  0  0
 13 16  1  0  0  0  0
 14 13  2  0  0  0  0
 15 10  2  0  0  0  0
 15 14  1  0  0  0  0
 18 19  1  0  0  0  0
 18  6  1  0  0  0  0
 19 40  1  0  0  0  0
 20 41  1  0  0  0  0
 20 19  2  0  0  0  0
 21 20  1  0  0  0  0
 22 21  2  0  0  0  0
 22 23  1  0  0  0  0
 23 18  2  0  0  0  0
 24 25  2  0  0  0  0
 24 21  1  0  0  0  0
 26 24  2  0  0  0  0
 28  2  1  0  0  0  0
 30  3  1  0  0  0  0
 31  4  1  0  0  0  0
 32  4  1  0  0  0  0
 34  7  1  0  0  0  0
 37 14  1  0  0  0  0
 38 15  1  0  0  0  0
 39 17  1  0  0  0  0
 42 22  1  0  0  0  0
 43 23  1  0  0  0  0
M  END
>  <Pose>
1

>  <Score>
-6.64

$$$$
