
 OpenBabel03222201593D

 41 44  0  0  1  0  0  0  0  0999 V2000
  -21.0210    2.1870  -38.2520 S   0  0  0  0  0  0  0  0  0  0  0  0
  -21.4530    3.9250  -38.7120 C   0  0  0  0  0  0  0  0  0  0  0  0
  -22.9360    4.0500  -38.9450 C   0  0  0  0  0  0  0  0  0  0  0  0
  -23.5910    2.7720  -39.4220 C   0  0  0  0  0  0  0  0  0  0  0  0
  -23.6960    1.7710  -38.4340 N   0  0  1  0  0  0  0  0  0  0  0  0
  -24.6170    0.7170  -37.9710 C   0  0  1  0  0  0  0  0  0  0  0  0
  -24.3590    0.8560  -36.4900 C   0  0  0  0  0  0  0  0  0  0  0  0
  -22.9120    1.0140  -36.4630 N   0  0  0  0  0  0  0  0  0  0  0  0
  -22.5810    1.5990  -37.5150 C   0  0  1  0  0  0  0  0  0  0  0  0
  -22.0350    0.5160  -35.4310 C   0  0  0  0  0  0  0  0  0  0  0  0
  -20.9000   -0.2010  -35.6440 C   0  0  0  0  0  0  0  0  0  0  0  0
  -20.1080   -0.7030  -34.6180 C   0  0  0  0  0  0  0  0  0  0  0  0
  -20.4680   -0.4770  -33.3160 C   0  0  0  0  0  0  0  0  0  0  0  0
  -21.6200    0.2520  -33.0940 C   0  0  0  0  0  0  0  0  0  0  0  0
  -22.3980    0.7440  -34.1050 C   0  0  0  0  0  0  0  0  0  0  0  0
  -19.4390   -1.1340  -31.8340 B   0  0  0  0  0  0  0  0  0  0  0  0
  -25.9210    0.9800  -38.2590 O   0  0  0  0  0  0  0  0  0  0  0  0
  -24.1520   -0.6320  -38.4360 C   0  0  0  0  0  0  0  0  0  0  0  0
  -23.2670   -0.8000  -39.4840 C   0  0  0  0  0  0  0  0  0  0  0  0
  -22.8830   -2.0850  -39.8460 C   0  0  0  0  0  0  0  0  0  0  0  0
  -23.3490   -3.2200  -39.1960 C   0  0  0  0  0  0  0  0  0  0  0  0
  -24.2250   -3.0610  -38.1570 C   0  0  0  0  0  0  0  0  0  0  0  0
  -24.6160   -1.7730  -37.7930 C   0  0  0  0  0  0  0  0  0  0  0  0
  -21.2640    4.5140  -37.7690 H   0  0  0  0  0  0  0  0  0  0  0  0
  -20.8140    4.2630  -39.5360 H   0  0  0  0  0  0  0  0  0  0  0  0
  -23.0720    4.8180  -39.7640 H   0  0  0  0  0  0  0  0  0  0  0  0
  -23.4800    4.3680  -38.0300 H   0  0  0  0  0  0  0  0  0  0  0  0
  -24.5250    2.9880  -39.9790 H   0  0  0  0  0  0  0  0  0  0  0  0
  -22.8610    2.3800  -40.2100 H   0  0  0  0  0  0  0  0  0  0  0  0
  -24.7650    0.0920  -35.8650 H   0  0  0  0  0  0  0  0  0  0  0  0
  -24.7880    1.8690  -36.2050 H   0  0  0  0  0  0  0  0  0  0  0  0
  -20.5650   -0.4130  -36.6700 H   0  0  0  0  0  0  0  0  0  0  0  0
  -19.2120   -1.2690  -34.8420 H   0  0  0  0  0  0  0  0  0  0  0  0
  -21.9030    0.4250  -32.0520 H   0  0  0  0  0  0  0  0  0  0  0  0
  -23.3070    1.3250  -33.9010 H   0  0  0  0  0  0  0  0  0  0  0  0
  -26.5120    0.1930  -38.3600 H   0  0  0  0  0  0  0  0  0  0  0  0
  -22.8980    0.0760  -40.0050 H   0  0  0  0  0  0  0  0  0  0  0  0
  -22.1950   -2.1790  -40.6660 H   0  0  0  0  0  0  0  0  0  0  0  0
  -23.0290   -4.2090  -39.5010 H   0  0  0  0  0  0  0  0  0  0  0  0
  -24.6080   -3.9100  -37.6150 H   0  0  0  0  0  0  0  0  0  0  0  0
  -25.3110   -1.6410  -36.9770 H   0  0  0  0  0  0  0  0  0  0  0  0
  2  1  1  0  0  0  0
  2 24  1  0  0  0  0
  3  2  1  0  0  0  0
  3 27  1  0  0  0  0
  4  3  1  0  0  0  0
  5  4  1  6  0  0  0
  5  6  1  0  0  0  0
  5  9  1  0  0  0  0
  6 17  1  6  0  0  0
  6  7  1  0  0  0  0
  7  8  1  0  0  0  0
  7 31  1  0  0  0  0
  7 30  1  0  0  0  0
  8 10  1  0  0  0  0
  9  1  1  6  0  0  0
  9  8  1  0  0  0  0
 10 15  1  0  0  0  0
 11 10  2  0  0  0  0
 11 12  1  0  0  0  0
 12 13  2  0  0  0  0
 13 14  1  0  0  0  0
 13 16  1  0  0  0  0
 14 34  1  0  0  0  0
 15 35  1  0  0  0  0
 15 14  2  0  0  0  0
 18  6  1  0  0  0  0
 18 23  1  0  0  0  0
 19 18  2  0  0  0  0
 20 19  1  0  0  0  0
 20 21  2  0  0  0  0
 21 22  1  0  0  0  0
 22 23  2  0  0  0  0
 22 40  1  0  0  0  0
 23 41  1  0  0  0  0
 25  2  1  0  0  0  0
 26  3  1  0  0  0  0
 28  4  1  0  0  0  0
 29  4  1  0  0  0  0
 32 11  1  0  0  0  0
 33 12  1  0  0  0  0
 36 17  1  0  0  0  0
 37 19  1  0  0  0  0
 38 20  1  0  0  0  0
 39 21  1  0  0  0  0
M  END
>  <Pose>
1

>  <Score>
-4.68

$$$$
