
 OpenBabel03222201593D

 45 48  0  0  1  0  0  0  0  0999 V2000
  -23.3730   -0.9500  -36.2970 S   0  0  0  0  0  0  0  0  0  0  0  0
  -23.9850   -1.3310  -37.9890 C   0  0  0  0  0  0  0  0  0  0  0  0
  -23.4970   -0.1810  -38.8580 C   0  0  0  0  0  0  0  0  0  0  0  0
  -22.0120   -0.2080  -39.0410 C   0  0  0  0  0  0  0  0  0  0  0  0
  -21.2550   -0.0180  -37.8420 N   0  0  2  0  0  0  0  0  0  0  0  0
  -20.0420    0.7170  -37.4730 C   0  0  1  0  0  0  0  0  0  0  0  0
  -19.4310   -0.3740  -36.5740 C   0  0  0  0  0  0  0  0  0  0  0  0
  -20.5980   -0.8250  -35.8370 N   0  0  0  0  0  0  0  0  0  0  0  0
  -21.6160   -0.6260  -36.5720 C   0  0  1  0  0  0  0  0  0  0  0  0
  -20.5110   -1.3850  -34.5070 C   0  0  0  0  0  0  0  0  0  0  0  0
  -21.4930   -2.2660  -34.0630 C   0  0  0  0  0  0  0  0  0  0  0  0
  -21.4400   -2.8150  -32.8000 C   0  0  0  0  0  0  0  0  0  0  0  0
  -20.4270   -2.5290  -31.9100 C   0  0  0  0  0  0  0  0  0  0  0  0
  -19.4540   -1.6600  -32.3410 C   0  0  0  0  0  0  0  0  0  0  0  0
  -19.5110   -1.1030  -33.6280 C   0  0  0  0  0  0  0  0  0  0  0  0
  -20.4060   -3.1040  -30.6440 O   0  0  0  0  0  0  0  0  0  0  0  0
  -19.6730   -2.6320  -29.5490 C   0  0  0  0  0  0  0  0  0  0  0  0
  -19.2690    0.9340  -38.5890 O   0  0  0  0  0  0  0  0  0  0  0  0
  -20.3240    1.9230  -36.6740 C   0  0  0  0  0  0  0  0  0  0  0  0
  -21.5650    2.4910  -36.4910 C   0  0  0  0  0  0  0  0  0  0  0  0
  -21.7260    3.6240  -35.7100 C   0  0  0  0  0  0  0  0  0  0  0  0
  -20.6470    4.2000  -35.1030 C   0  0  0  0  0  0  0  0  0  0  0  0
  -19.3980    3.6440  -35.2770 C   0  0  0  0  0  0  0  0  0  0  0  0
  -19.2530    2.5230  -36.0530 C   0  0  0  0  0  0  0  0  0  0  0  0
  -20.8010    5.7720  -34.0090 B   0  0  0  0  0  0  0  0  0  0  0  0
  -25.0700   -1.3700  -37.9550 H   0  0  0  0  0  0  0  0  0  0  0  0
  -23.5090   -2.2910  -38.2970 H   0  0  0  0  0  0  0  0  0  0  0  0
  -23.8200    0.7670  -38.3740 H   0  0  0  0  0  0  0  0  0  0  0  0
  -23.9730   -0.1970  -39.8530 H   0  0  0  0  0  0  0  0  0  0  0  0
  -21.7540   -1.1850  -39.5020 H   0  0  0  0  0  0  0  0  0  0  0  0
  -21.7570    0.6200  -39.7480 H   0  0  0  0  0  0  0  0  0  0  0  0
  -19.1620   -1.1940  -37.2800 H   0  0  0  0  0  0  0  0  0  0  0  0
  -18.6060    0.0030  -35.9960 H   0  0  0  0  0  0  0  0  0  0  0  0
  -22.3090   -2.5250  -34.7120 H   0  0  0  0  0  0  0  0  0  0  0  0
  -22.2060   -3.5090  -32.4380 H   0  0  0  0  0  0  0  0  0  0  0  0
  -18.6360   -1.3890  -31.7000 H   0  0  0  0  0  0  0  0  0  0  0  0
  -18.7270   -0.4150  -33.9260 H   0  0  0  0  0  0  0  0  0  0  0  0
  -19.2430   -3.4950  -28.9630 H   0  0  0  0  0  0  0  0  0  0  0  0
  -18.8280   -1.9800  -29.7890 H   0  0  0  0  0  0  0  0  0  0  0  0
  -20.3910   -2.1480  -28.8300 H   0  0  0  0  0  0  0  0  0  0  0  0
  -18.8510    0.1100  -38.9360 H   0  0  0  0  0  0  0  0  0  0  0  0
  -22.3950    2.0260  -36.9740 H   0  0  0  0  0  0  0  0  0  0  0  0
  -22.7090    4.0570  -35.5730 H   0  0  0  0  0  0  0  0  0  0  0  0
  -18.5340    4.0960  -34.7980 H   0  0  0  0  0  0  0  0  0  0  0  0
  -18.2450    2.1140  -36.1620 H   0  0  0  0  0  0  0  0  0  0  0  0
  2 26  1  0  0  0  0
  2  1  1  0  0  0  0
  3 28  1  0  0  0  0
  3  2  1  0  0  0  0
  4  3  1  0  0  0  0
  5  4  1  6  0  0  0
  5  6  1  0  0  0  0
  5  9  1  0  0  0  0
  6 18  1  6  0  0  0
  6 19  1  0  0  0  0
  6  7  1  0  0  0  0
  7 33  1  0  0  0  0
  7  8  1  0  0  0  0
  8 10  1  0  0  0  0
  9  1  1  1  0  0  0
  9  8  1  0  0  0  0
 10 11  2  0  0  0  0
 10 15  1  0  0  0  0
 11 12  1  0  0  0  0
 12 35  1  0  0  0  0
 12 13  2  0  0  0  0
 13 16  1  0  0  0  0
 14 13  1  0  0  0  0
 14 36  1  0  0  0  0
 15 14  2  0  0  0  0
 16 17  1  0  0  0  0
 17 38  1  0  0  0  0
 17 40  1  0  0  0  0
 19 20  2  0  0  0  0
 19 24  1  0  0  0  0
 20 21  1  0  0  0  0
 21 43  1  0  0  0  0
 21 22  2  0  0  0  0
 22 25  1  0  0  0  0
 23 22  1  0  0  0  0
 23 44  1  0  0  0  0
 24 23  2  0  0  0  0
 27  2  1  0  0  0  0
 29  3  1  0  0  0  0
 30  4  1  0  0  0  0
 31  4  1  0  0  0  0
 32  7  1  0  0  0  0
 34 11  1  0  0  0  0
 37 15  1  0  0  0  0
 39 17  1  0  0  0  0
 41 18  1  0  0  0  0
 42 20  1  0  0  0  0
 45 24  1  0  0  0  0
M  END
>  <Pose>
1

>  <Score>
-5.02

$$$$
