
 OpenBabel03222201593D

 41 44  0  0  1  0  0  0  0  0999 V2000
  -22.6860    1.1730  -34.3080 S   0  0  0  0  0  0  0  0  0  0  0  0
  -23.7270   -0.2180  -34.8320 C   0  0  0  0  0  0  0  0  0  0  0  0
  -22.7900   -1.4220  -34.9760 C   0  0  0  0  0  0  0  0  0  0  0  0
  -22.2480   -1.7650  -33.5790 C   0  0  0  0  0  0  0  0  0  0  0  0
  -21.0980   -0.8910  -33.3200 N   0  0  1  0  0  0  0  0  0  0  0  0
  -19.8300   -1.1070  -32.7500 C   0  0  2  0  0  0  0  0  0  0  0  0
  -19.0230    0.1330  -33.1190 C   0  0  0  0  0  0  0  0  0  0  0  0
  -19.9930    1.0410  -33.6480 N   0  0  0  0  0  0  0  0  0  0  0  0
  -21.1260    0.4720  -33.7190 C   0  0  1  0  0  0  0  0  0  0  0  0
  -19.6480    2.3720  -34.0640 C   0  0  0  0  0  0  0  0  0  0  0  0
  -18.8750    3.1380  -33.2530 C   0  0  0  0  0  0  0  0  0  0  0  0
  -18.5300    4.4120  -33.6930 C   0  0  0  0  0  0  0  0  0  0  0  0
  -18.9380    4.9190  -34.9060 C   0  0  0  0  0  0  0  0  0  0  0  0
  -19.7240    4.1040  -35.6950 C   0  0  0  0  0  0  0  0  0  0  0  0
  -20.0830    2.8410  -35.2910 C   0  0  0  0  0  0  0  0  0  0  0  0
  -19.1960   -2.1790  -33.4170 O   0  0  0  0  0  0  0  0  0  0  0  0
  -19.7240   -1.3300  -31.3100 C   0  0  0  0  0  0  0  0  0  0  0  0
  -20.1140   -2.5860  -30.8490 C   0  0  0  0  0  0  0  0  0  0  0  0
  -20.0450   -2.9720  -29.5230 C   0  0  0  0  0  0  0  0  0  0  0  0
  -19.5770   -2.0950  -28.5840 C   0  0  0  0  0  0  0  0  0  0  0  0
  -19.1860   -0.8420  -29.0210 C   0  0  0  0  0  0  0  0  0  0  0  0
  -19.2580   -0.4680  -30.3600 C   0  0  0  0  0  0  0  0  0  0  0  0
  -19.4440   -2.5730  -26.7190 B   0  0  0  0  0  0  0  0  0  0  0  0
  -24.4720   -0.4100  -34.0430 H   0  0  0  0  0  0  0  0  0  0  0  0
  -24.1850   -0.0110  -35.8240 H   0  0  0  0  0  0  0  0  0  0  0  0
  -23.3390   -2.2700  -35.3730 H   0  0  0  0  0  0  0  0  0  0  0  0
  -21.9620   -1.1240  -35.6440 H   0  0  0  0  0  0  0  0  0  0  0  0
  -23.0290   -1.6820  -32.8310 H   0  0  0  0  0  0  0  0  0  0  0  0
  -21.9350   -2.8190  -33.6430 H   0  0  0  0  0  0  0  0  0  0  0  0
  -18.2680   -0.1190  -33.8860 H   0  0  0  0  0  0  0  0  0  0  0  0
  -18.5780    0.5970  -32.2040 H   0  0  0  0  0  0  0  0  0  0  0  0
  -18.5050    2.8120  -32.2630 H   0  0  0  0  0  0  0  0  0  0  0  0
  -17.9220    5.0110  -33.0410 H   0  0  0  0  0  0  0  0  0  0  0  0
  -18.6500    5.9270  -35.2420 H   0  0  0  0  0  0  0  0  0  0  0  0
  -20.0650    4.4750  -36.6610 H   0  0  0  0  0  0  0  0  0  0  0  0
  -20.7080    2.1760  -35.9050 H   0  0  0  0  0  0  0  0  0  0  0  0
  -18.4540   -1.7780  -33.9390 H   0  0  0  0  0  0  0  0  0  0  0  0
  -20.4890   -3.2740  -31.6050 H   0  0  0  0  0  0  0  0  0  0  0  0
  -20.3660   -3.9740  -29.2120 H   0  0  0  0  0  0  0  0  0  0  0  0
  -18.8110   -0.1570  -28.2710 H   0  0  0  0  0  0  0  0  0  0  0  0
  -18.9510    0.5270  -30.6720 H   0  0  0  0  0  0  0  0  0  0  0  0
  2  1  1  0  0  0  0
  2 24  1  0  0  0  0
  3  2  1  0  0  0  0
  3  4  1  0  0  0  0
  4 28  1  0  0  0  0
  5  4  1  6  0  0  0
  5  6  1  0  0  0  0
  6 16  1  6  0  0  0
  6 17  1  0  0  0  0
  7  6  1  0  0  0  0
  7 31  1  0  0  0  0
  8  7  1  0  0  0  0
  9  1  1  6  0  0  0
  9  8  1  0  0  0  0
  9  5  1  0  0  0  0
 10  8  1  0  0  0  0
 10 11  1  0  0  0  0
 11 32  1  0  0  0  0
 12 11  2  0  0  0  0
 12 33  1  0  0  0  0
 13 12  1  0  0  0  0
 14 15  1  0  0  0  0
 14 13  2  0  0  0  0
 15 10  2  0  0  0  0
 17 18  2  0  0  0  0
 17 22  1  0  0  0  0
 18 19  1  0  0  0  0
 19 39  1  0  0  0  0
 19 20  2  0  0  0  0
 20 23  1  0  0  0  0
 21 20  1  0  0  0  0
 21 40  1  0  0  0  0
 22 21  2  0  0  0  0
 25  2  1  0  0  0  0
 26  3  1  0  0  0  0
 27  3  1  0  0  0  0
 29  4  1  0  0  0  0
 30  7  1  0  0  0  0
 34 13  1  0  0  0  0
 35 14  1  0  0  0  0
 36 15  1  0  0  0  0
 37 16  1  0  0  0  0
 38 18  1  0  0  0  0
 41 22  1  0  0  0  0
M  END
>  <Pose>
1

>  <Score>
-5.41

$$$$
