
 OpenBabel03222201593D

 40 43  0  0  1  0  0  0  0  0999 V2000
  -21.3490   -4.8650  -31.6540 S   0  0  0  0  0  0  0  0  0  0  0  0
  -20.9600   -3.1520  -31.9900 C   0  0  1  0  0  0  0  0  0  0  0  0
  -20.9970   -2.2580  -32.9230 N   0  0  0  0  0  0  0  0  0  0  0  0
  -20.4940   -1.0140  -32.4750 C   0  0  0  0  0  0  0  0  0  0  0  0
  -20.1150   -1.2510  -31.0500 C   0  0  0  0  0  0  0  0  0  0  0  0
  -20.4440   -2.6700  -30.7740 N   0  0  0  0  0  0  0  0  0  0  0  0
  -20.3830   -3.5860  -29.7170 C   0  0  0  0  0  0  0  0  0  0  0  0
  -20.8060   -4.8070  -29.9530 C   0  0  0  0  0  0  0  0  0  0  0  0
  -19.8810   -3.2620  -28.3420 C   0  0  0  0  0  0  0  0  0  0  0  0
  -19.8780   -4.2030  -27.3370 C   0  0  0  0  0  0  0  0  0  0  0  0
  -19.4330   -3.9580  -26.0560 C   0  0  0  0  0  0  0  0  0  0  0  0
  -18.9540   -2.7120  -25.7200 C   0  0  0  0  0  0  0  0  0  0  0  0
  -18.9470   -1.7600  -26.7000 C   0  0  0  0  0  0  0  0  0  0  0  0
  -19.4050   -2.0210  -28.0050 C   0  0  0  0  0  0  0  0  0  0  0  0
  -21.5250   -2.5680  -34.2630 C   0  0  0  0  0  0  0  0  0  0  0  0
  -22.7800   -1.8050  -34.4180 C   0  0  0  0  0  0  0  0  0  0  0  0
  -23.6650   -1.8260  -33.5390 O   0  0  0  0  0  0  0  0  0  0  0  0
  -23.0070   -1.0080  -35.6150 C   0  0  0  0  0  0  0  0  0  0  0  0
  -22.5710    0.3160  -35.6900 C   0  0  0  0  0  0  0  0  0  0  0  0
  -22.7800    1.0980  -36.8100 C   0  0  0  0  0  0  0  0  0  0  0  0
  -23.4390    0.5290  -37.8680 C   0  0  0  0  0  0  0  0  0  0  0  0
  -23.8890   -0.7780  -37.8430 C   0  0  0  0  0  0  0  0  0  0  0  0
  -23.6660   -1.5480  -36.7000 C   0  0  0  0  0  0  0  0  0  0  0  0
  -23.7230    1.6220  -39.4180 B   0  0  0  0  0  0  0  0  0  0  0  0
  -21.2370   -0.1760  -32.5900 H   0  0  0  0  0  0  0  0  0  0  0  0
  -19.6340   -0.6930  -33.1210 H   0  0  0  0  0  0  0  0  0  0  0  0
  -20.7550   -0.5850  -30.4330 H   0  0  0  0  0  0  0  0  0  0  0  0
  -19.0330   -1.0600  -30.9740 H   0  0  0  0  0  0  0  0  0  0  0  0
  -20.8430   -5.6740  -29.2660 H   0  0  0  0  0  0  0  0  0  0  0  0
  -20.2420   -5.2120  -27.5280 H   0  0  0  0  0  0  0  0  0  0  0  0
  -19.4530   -4.7340  -25.3070 H   0  0  0  0  0  0  0  0  0  0  0  0
  -18.6080   -2.5230  -24.7180 H   0  0  0  0  0  0  0  0  0  0  0  0
  -18.5810   -0.7540  -26.4970 H   0  0  0  0  0  0  0  0  0  0  0  0
  -19.3740   -1.2370  -28.7340 H   0  0  0  0  0  0  0  0  0  0  0  0
  -20.7520   -2.1320  -34.9590 H   0  0  0  0  0  0  0  0  0  0  0  0
  -21.6210   -3.6410  -34.4170 H   0  0  0  0  0  0  0  0  0  0  0  0
  -22.0580    0.7340  -34.8480 H   0  0  0  0  0  0  0  0  0  0  0  0
  -22.4470    2.1090  -36.8650 H   0  0  0  0  0  0  0  0  0  0  0  0
  -24.4060   -1.2260  -38.6690 H   0  0  0  0  0  0  0  0  0  0  0  0
  -24.0290   -2.5650  -36.7110 H   0  0  0  0  0  0  0  0  0  0  0  0
  1  8  1  0  0  0  0
  2  1  1  1  0  0  0
  2  6  1  0  0  0  0
  3  4  1  0  0  0  0
  3  2  1  0  0  0  0
  4  5  1  0  0  0  0
  5 28  1  0  0  0  0
  5  6  1  0  0  0  0
  5 27  1  0  0  0  0
  6  7  1  0  0  0  0
  7  9  1  0  0  0  0
  8  7  2  0  0  0  0
  8 29  1  0  0  0  0
  9 14  2  0  0  0  0
  9 10  1  0  0  0  0
 10 11  2  0  0  0  0
 11 12  1  0  0  0  0
 11 31  1  0  0  0  0
 12 32  1  0  0  0  0
 13 33  1  0  0  0  0
 13 12  2  0  0  0  0
 14 13  1  0  0  0  0
 15  3  1  0  0  0  0
 16 15  1  0  0  0  0
 16 17  2  0  0  0  0
 18 16  1  0  0  0  0
 19 18  1  0  0  0  0
 19 37  1  0  0  0  0
 20 19  2  0  0  0  0
 21 22  2  0  0  0  0
 21 20  1  0  0  0  0
 22 23  1  0  0  0  0
 23 18  2  0  0  0  0
 24 21  1  0  0  0  0
 25  4  1  0  0  0  0
 26  4  1  0  0  0  0
 30 10  1  0  0  0  0
 34 14  1  0  0  0  0
 35 15  1  0  0  0  0
 36 15  1  0  0  0  0
 38 20  1  0  0  0  0
 39 22  1  0  0  0  0
 40 23  1  0  0  0  0
M  END
>  <Pose>
1

>  <Score>
-6.34

$$$$
