
 OpenBabel03222201593D

 53 56  0  0  0  0  0  0  0  0999 V2000
  -24.4650   -2.4720  -38.5060 B   0  0  0  0  0  0  0  0  0  0  0  0
  -23.5720   -1.4110  -37.2040 C   0  0  0  0  0  0  0  0  0  0  0  0
  -22.7060   -1.9760  -36.3010 C   0  0  0  0  0  0  0  0  0  0  0  0
  -22.0550   -1.1900  -35.3510 C   0  0  0  0  0  0  0  0  0  0  0  0
  -22.3230    0.1470  -35.3690 C   0  0  0  0  0  0  0  0  0  0  0  0
  -23.2010    0.7270  -36.2840 C   0  0  0  0  0  0  0  0  0  0  0  0
  -23.8310   -0.0510  -37.2070 C   0  0  0  0  0  0  0  0  0  0  0  0
  -21.1550   -1.8040  -34.3940 C   0  0  0  0  0  0  0  0  0  0  0  0
  -19.9160   -1.4150  -34.2310 C   0  0  0  0  0  0  0  0  0  0  0  0
  -21.6540   -2.8810  -33.5730 N   0  0  0  0  0  0  0  0  0  0  0  0
  -20.8300   -3.3680  -32.5580 N   0  0  0  0  0  0  0  0  0  0  0  0
  -21.2690   -4.3460  -31.6360 C   0  0  0  0  0  0  0  0  0  0  0  0
  -22.1150   -5.1920  -32.0050 O   0  0  0  0  0  0  0  0  0  0  0  0
  -20.7780   -4.4120  -30.2720 C   0  0  0  0  0  0  0  0  0  0  0  0
  -20.6300   -5.5500  -29.5800 N   0  0  0  0  0  0  0  0  0  0  0  0
  -20.1820   -5.2120  -28.3980 N   0  0  0  0  0  0  0  0  0  0  0  0
  -20.0380   -3.8920  -28.3130 N   0  0  0  0  0  0  0  0  0  0  0  0
  -20.3960   -3.3330  -29.4590 C   0  0  0  0  0  0  0  0  0  0  0  0
  -20.4020   -1.9680  -29.9310 C   0  0  0  0  0  0  0  0  0  0  0  0
  -19.1720   -1.2200  -29.7520 N   0  0  0  0  0  0  0  0  0  0  0  0
  -18.4720   -1.0650  -31.0240 C   0  0  0  0  0  0  0  0  0  0  0  0
  -19.4010   -0.6050  -32.1260 C   0  0  0  0  0  0  0  0  0  0  0  0
  -20.0690    0.6990  -31.7290 C   0  0  0  0  0  0  0  0  0  0  0  0
  -19.5920    1.1590  -30.3810 C   0  0  0  0  0  0  0  0  0  0  0  0
  -19.4890    0.1380  -29.3200 C   0  0  0  0  0  0  0  0  0  0  0  0
  -19.5470   -3.2290  -27.1640 C   0  0  0  0  0  0  0  0  0  0  0  0
  -19.5670   -1.8740  -27.0240 N   0  0  0  0  0  0  0  0  0  0  0  0
  -19.0450   -1.5930  -25.8720 O   0  0  0  0  0  0  0  0  0  0  0  0
  -18.6820   -2.6550  -25.2470 N   0  0  0  0  0  0  0  0  0  0  0  0
  -18.9780   -3.7080  -26.0210 C   0  0  0  0  0  0  0  0  0  0  0  0
  -18.7570   -5.0640  -25.7370 N   0  0  0  0  0  0  0  0  0  0  0  0
  -22.5250   -3.0460  -36.3280 H   0  0  0  0  0  0  0  0  0  0  0  0
  -21.8380    0.8030  -34.6440 H   0  0  0  0  0  0  0  0  0  0  0  0
  -23.3900    1.8010  -36.2650 H   0  0  0  0  0  0  0  0  0  0  0  0
  -24.5020    0.3910  -37.9050 H   0  0  0  0  0  0  0  0  0  0  0  0
  -19.4610   -0.6210  -34.7830 H   0  0  0  0  0  0  0  0  0  0  0  0
  -19.2620   -1.9000  -33.5000 H   0  0  0  0  0  0  0  0  0  0  0  0
  -22.6040   -3.2270  -33.7900 H   0  0  0  0  0  0  0  0  0  0  0  0
  -19.8580   -2.9580  -32.5250 H   0  0  0  0  0  0  0  0  0  0  0  0
  -20.6490   -1.8680  -31.0250 H   0  0  0  0  0  0  0  0  0  0  0  0
  -21.1980   -1.3770  -29.4120 H   0  0  0  0  0  0  0  0  0  0  0  0
  -18.0210   -2.0290  -31.3060 H   0  0  0  0  0  0  0  0  0  0  0  0
  -17.6750   -0.3290  -30.8660 H   0  0  0  0  0  0  0  0  0  0  0  0
  -20.1990   -1.3320  -32.3450 H   0  0  0  0  0  0  0  0  0  0  0  0
  -18.7760   -0.4610  -33.0220 H   0  0  0  0  0  0  0  0  0  0  0  0
  -19.7260    1.4680  -32.4580 H   0  0  0  0  0  0  0  0  0  0  0  0
  -21.1670    0.6610  -31.8490 H   0  0  0  0  0  0  0  0  0  0  0  0
  -18.5470    1.5600  -30.5430 H   0  0  0  0  0  0  0  0  0  0  0  0
  -20.1850    2.0420  -30.1080 H   0  0  0  0  0  0  0  0  0  0  0  0
  -20.4930    0.0770  -28.8140 H   0  0  0  0  0  0  0  0  0  0  0  0
  -18.7630    0.4120  -28.5220 H   0  0  0  0  0  0  0  0  0  0  0  0
  -19.0380   -5.5630  -24.8650 H   0  0  0  0  0  0  0  0  0  0  0  0
  -18.2650   -5.6490  -26.4470 H   0  0  0  0  0  0  0  0  0  0  0  0
  1  2  1  0  0  0  0
  2  3  1  0  0  0  0
  3  4  2  0  0  0  0
  4  8  1  0  0  0  0
  5  4  1  0  0  0  0
  5 33  1  0  0  0  0
  6 34  1  0  0  0  0
  6  5  2  0  0  0  0
  7  2  2  0  0  0  0
  7  6  1  0  0  0  0
  8  9  2  0  0  0  0
  8 10  1  0  0  0  0
  9 37  1  0  0  0  0
 10 11  1  0  0  0  0
 11 39  1  0  0  0  0
 11 12  1  0  0  0  0
 12 14  1  0  0  0  0
 13 12  2  0  0  0  0
 14 15  1  0  0  0  0
 14 18  2  0  0  0  0
 15 16  2  0  0  0  0
 16 17  1  0  0  0  0
 17 26  1  0  0  0  0
 18 17  1  0  0  0  0
 19 20  1  0  0  0  0
 19 18  1  0  0  0  0
 19 41  1  0  0  0  0
 20 25  1  0  0  0  0
 21 43  1  0  0  0  0
 21 20  1  0  0  0  0
 22 23  1  0  0  0  0
 22 21  1  0  0  0  0
 23 24  1  0  0  0  0
 24 49  1  0  0  0  0
 24 25  1  0  0  0  0
 25 50  1  0  0  0  0
 25 51  1  0  0  0  0
 26 27  2  0  0  0  0
 26 30  1  0  0  0  0
 27 28  1  0  0  0  0
 28 29  1  0  0  0  0
 30 31  1  0  0  0  0
 30 29  2  0  0  0  0
 31 52  1  0  0  0  0
 32  3  1  0  0  0  0
 35  7  1  0  0  0  0
 36  9  1  0  0  0  0
 38 10  1  0  0  0  0
 40 19  1  0  0  0  0
 42 21  1  0  0  0  0
 44 22  1  0  0  0  0
 45 22  1  0  0  0  0
 46 23  1  0  0  0  0
 47 23  1  0  0  0  0
 48 24  1  0  0  0  0
 53 31  1  0  0  0  0
M  END
>  <Pose>
1

>  <Score>
-7.54

$$$$
