
 OpenBabel03222201593D

 47 50  0  0  0  0  0  0  0  0999 V2000
  -16.9430    1.6730  -22.7660 B   0  0  0  0  0  0  0  0  0  0  0  0
  -17.6670    2.9270  -23.9770 C   0  0  0  0  0  0  0  0  0  0  0  0
  -17.9840    2.5380  -25.2560 C   0  0  0  0  0  0  0  0  0  0  0  0
  -18.5280    3.3730  -26.1420 C   0  0  0  0  0  0  0  0  0  0  0  0
  -18.8100    4.7270  -25.7770 C   0  0  0  0  0  0  0  0  0  0  0  0
  -18.5340    5.1320  -24.5150 C   0  0  0  0  0  0  0  0  0  0  0  0
  -17.9610    4.2420  -23.6020 C   0  0  0  0  0  0  0  0  0  0  0  0
  -17.9930    1.0130  -25.5280 C   0  0  0  0  0  0  0  0  0  0  0  0
  -17.5250    0.7980  -26.6590 N   0  0  0  0  0  0  0  0  0  0  0  0
  -17.1480    0.1030  -27.6800 N   0  0  0  0  0  0  0  0  0  0  0  0
  -18.4690   -0.2280  -28.4110 C   0  0  0  0  0  0  0  0  0  0  0  0
  -19.0560    0.7710  -28.8090 O   0  0  0  0  0  0  0  0  0  0  0  0
  -18.9200   -1.5510  -28.5680 C   0  0  0  0  0  0  0  0  0  0  0  0
  -19.4070   -2.4000  -27.7160 N   0  0  0  0  0  0  0  0  0  0  0  0
  -19.9410   -3.3880  -28.3480 N   0  0  0  0  0  0  0  0  0  0  0  0
  -19.8360   -3.2470  -29.7250 N   0  0  0  0  0  0  0  0  0  0  0  0
  -19.1980   -2.1110  -29.8990 C   0  0  0  0  0  0  0  0  0  0  0  0
  -18.5820   -1.3930  -31.0110 C   0  0  0  0  0  0  0  0  0  0  0  0
  -19.0050   -0.3490  -31.7320 N   0  0  0  0  0  0  0  0  0  0  0  0
  -18.0890   -0.0950  -32.8350 C   0  0  0  0  0  0  0  0  0  0  0  0
  -18.9280    0.1020  -34.0630 C   0  0  0  0  0  0  0  0  0  0  0  0
  -20.3710   -0.1100  -33.6160 C   0  0  0  0  0  0  0  0  0  0  0  0
  -20.2350    0.1270  -32.0910 C   0  0  0  0  0  0  0  0  0  0  0  0
  -20.4320   -4.2310  -30.5130 C   0  0  0  0  0  0  0  0  0  0  0  0
  -20.5260   -5.5530  -30.0810 N   0  0  0  0  0  0  0  0  0  0  0  0
  -21.0060   -6.2520  -31.0310 O   0  0  0  0  0  0  0  0  0  0  0  0
  -21.2530   -5.5460  -32.0610 N   0  0  0  0  0  0  0  0  0  0  0  0
  -20.8980   -4.2650  -31.7620 C   0  0  0  0  0  0  0  0  0  0  0  0
  -21.0400   -3.2270  -32.7390 N   0  0  0  0  0  0  0  0  0  0  0  0
  -18.7000    3.0560  -27.1540 H   0  0  0  0  0  0  0  0  0  0  0  0
  -19.1970    5.4100  -26.4700 H   0  0  0  0  0  0  0  0  0  0  0  0
  -18.7710    6.1670  -24.1560 H   0  0  0  0  0  0  0  0  0  0  0  0
  -17.8060    4.5920  -22.5800 H   0  0  0  0  0  0  0  0  0  0  0  0
  -18.3620    0.3620  -24.8690 H   0  0  0  0  0  0  0  0  0  0  0  0
  -16.3200   -0.2990  -28.1100 H   0  0  0  0  0  0  0  0  0  0  0  0
  -17.4560   -1.5780  -31.1350 H   0  0  0  0  0  0  0  0  0  0  0  0
  -18.7960   -2.2860  -31.9440 H   0  0  0  0  0  0  0  0  0  0  0  0
  -17.3360   -0.8790  -32.9020 H   0  0  0  0  0  0  0  0  0  0  0  0
  -17.4780    0.8470  -32.6500 H   0  0  0  0  0  0  0  0  0  0  0  0
  -18.7680    1.0860  -34.5310 H   0  0  0  0  0  0  0  0  0  0  0  0
  -18.6250   -0.6520  -34.8500 H   0  0  0  0  0  0  0  0  0  0  0  0
  -21.0070    0.6260  -34.0790 H   0  0  0  0  0  0  0  0  0  0  0  0
  -20.6290   -1.1600  -33.7020 H   0  0  0  0  0  0  0  0  0  0  0  0
  -20.2210    1.2710  -32.0310 H   0  0  0  0  0  0  0  0  0  0  0  0
  -21.1290   -0.2570  -31.5830 H   0  0  0  0  0  0  0  0  0  0  0  0
  -20.4330   -3.2780  -33.5690 H   0  0  0  0  0  0  0  0  0  0  0  0
  -21.6710   -2.4430  -32.5810 H   0  0  0  0  0  0  0  0  0  0  0  0
  2  7  1  0  0  0  0
  2  1  1  0  0  0  0
  3  2  2  0  0  0  0
  4  5  2  0  0  0  0
  4  3  1  0  0  0  0
  5  6  1  0  0  0  0
  6 32  1  0  0  0  0
  6  7  2  0  0  0  0
  7 33  1  0  0  0  0
  8  3  1  0  0  0  0
  8 34  1  0  0  0  0
  9  8  1  0  0  0  0
 10  9  1  0  0  0  0
 11 10  1  0  0  0  0
 12 11  2  0  0  0  0
 13 11  1  0  0  0  0
 13 14  1  0  0  0  0
 15 14  2  0  0  0  0
 16 15  1  0  0  0  0
 17 16  1  0  0  0  0
 17 13  2  0  0  0  0
 18 17  1  0  0  0  0
 19 18  1  0  0  0  0
 20 39  1  0  0  0  0
 20 19  1  0  0  0  0
 21 22  1  0  0  0  0
 21 20  1  0  0  0  0
 22 23  1  0  0  0  0
 23 44  1  0  0  0  0
 23 19  1  0  0  0  0
 23 45  1  0  0  0  0
 24 25  2  0  0  0  0
 24 16  1  0  0  0  0
 26 25  1  0  0  0  0
 27 28  2  0  0  0  0
 27 26  1  0  0  0  0
 28 24  1  0  0  0  0
 29 47  1  0  0  0  0
 29 28  1  0  0  0  0
 30  4  1  0  0  0  0
 31  5  1  0  0  0  0
 35 10  1  0  0  0  0
 36 18  1  0  0  0  0
 37 18  1  0  0  0  0
 38 20  1  0  0  0  0
 40 21  1  0  0  0  0
 41 21  1  0  0  0  0
 42 22  1  0  0  0  0
 43 22  1  0  0  0  0
 46 29  1  0  0  0  0
M  END
>  <Pose>
1

>  <Score>
-7.68

$$$$
