
 OpenBabel03222201593D

 51 54  0  0  1  0  0  0  0  0999 V2000
  -22.3200    5.6310  -40.7050 B   0  0  0  0  0  0  0  0  0  0  0  0
  -22.6080    3.9940  -39.7520 C   0  0  0  0  0  0  0  0  0  0  0  0
  -23.8610    3.4500  -39.6120 C   0  0  0  0  0  0  0  0  0  0  0  0
  -24.0400    2.2760  -38.9260 C   0  0  0  0  0  0  0  0  0  0  0  0
  -22.9810    1.5660  -38.3310 C   0  0  0  0  0  0  0  0  0  0  0  0
  -21.7490    2.1230  -38.4810 C   0  0  0  0  0  0  0  0  0  0  0  0
  -21.5670    3.3050  -39.1730 C   0  0  0  0  0  0  0  0  0  0  0  0
  -23.2990    0.3550  -37.6180 C   0  0  1  0  0  0  0  0  0  0  0  0
  -23.1800   -0.9010  -38.2970 N   0  0  0  0  0  0  0  0  0  0  0  0
  -23.3060   -1.8810  -37.2240 C   0  0  0  0  0  0  0  0  0  0  0  0
  -23.7050   -3.0600  -37.3450 O   0  0  0  0  0  0  0  0  0  0  0  0
  -22.8820   -1.2390  -35.9940 C   0  0  0  0  0  0  0  0  0  0  0  0
  -22.8310   -1.7150  -34.8210 O   0  0  0  0  0  0  0  0  0  0  0  0
  -22.5090    0.1270  -36.3740 C   0  0  0  0  0  0  0  0  0  0  0  0
  -21.7060    0.9150  -35.7140 C   0  0  0  0  0  0  0  0  0  0  0  0
  -21.5050    2.2150  -36.1940 O   0  0  0  0  0  0  0  0  0  0  0  0
  -21.0110    0.4670  -34.4910 C   0  0  0  0  0  0  0  0  0  0  0  0
  -19.7280    0.1300  -34.4150 O   0  0  0  0  0  0  0  0  0  0  0  0
  -19.3970   -0.2280  -33.2020 C   0  0  0  0  0  0  0  0  0  0  0  0
  -20.4980   -0.1430  -32.3760 C   0  0  0  0  0  0  0  0  0  0  0  0
  -21.5040    0.2990  -33.2200 C   0  0  0  0  0  0  0  0  0  0  0  0
  -20.4030   -0.4700  -31.0420 C   0  0  0  0  0  0  0  0  0  0  0  0
  -19.2300   -0.8940  -30.4580 C   0  0  0  0  0  0  0  0  0  0  0  0
  -18.1220   -0.9830  -31.2820 C   0  0  0  0  0  0  0  0  0  0  0  0
  -18.2010   -0.6600  -32.6190 C   0  0  0  0  0  0  0  0  0  0  0  0
  -23.0450   -1.2680  -39.6890 C   0  0  0  0  0  0  0  0  0  0  0  0
  -21.8740   -2.0610  -40.0900 C   0  0  0  0  0  0  0  0  0  0  0  0
  -20.9090   -1.4270  -40.9500 N   0  0  0  0  0  4  0  0  0  0  0  0
  -20.4670   -2.2860  -42.0110 C   0  0  0  0  0  0  0  0  0  0  0  0
  -21.2450   -0.0910  -41.3560 C   0  0  0  0  0  0  0  0  0  0  0  0
  -24.6910    3.9780  -40.0620 H   0  0  0  0  0  0  0  0  0  0  0  0
  -25.0580    1.9050  -38.8540 H   0  0  0  0  0  0  0  0  0  0  0  0
  -20.8950    1.6560  -38.0400 H   0  0  0  0  0  0  0  0  0  0  0  0
  -20.5660    3.7270  -39.2750 H   0  0  0  0  0  0  0  0  0  0  0  0
  -24.3710    0.3870  -37.2480 H   0  0  0  0  0  0  0  0  0  0  0  0
  -22.5270    0.4730  -32.9280 H   0  0  0  0  0  0  0  0  0  0  0  0
  -21.2750   -0.3970  -30.4130 H   0  0  0  0  0  0  0  0  0  0  0  0
  -19.1300   -1.1570  -29.4120 H   0  0  0  0  0  0  0  0  0  0  0  0
  -17.1730   -1.3090  -30.8810 H   0  0  0  0  0  0  0  0  0  0  0  0
  -17.3370   -0.7270  -33.2650 H   0  0  0  0  0  0  0  0  0  0  0  0
  -23.1410   -0.3700  -40.3520 H   0  0  0  0  0  0  0  0  0  0  0  0
  -23.9680   -1.8770  -39.9470 H   0  0  0  0  0  0  0  0  0  0  0  0
  -22.1890   -2.9850  -40.6090 H   0  0  0  0  0  0  0  0  0  0  0  0
  -21.3060   -2.3560  -39.1570 H   0  0  0  0  0  0  0  0  0  0  0  0
  -20.0420   -1.3170  -40.3190 H   0  0  0  0  0  0  0  0  0  0  0  0
  -20.9770   -3.2580  -41.8730 H   0  0  0  0  0  0  0  0  0  0  0  0
  -20.5780   -1.8500  -43.0260 H   0  0  0  0  0  0  0  0  0  0  0  0
  -19.3700   -2.5450  -41.9480 H   0  0  0  0  0  0  0  0  0  0  0  0
  -22.1880    0.2980  -40.9420 H   0  0  0  0  0  0  0  0  0  0  0  0
  -20.4670    0.6620  -41.0280 H   0  0  0  0  0  0  0  0  0  0  0  0
  -21.2050    0.0010  -42.4830 H   0  0  0  0  0  0  0  0  0  0  0  0
  1  2  1  0  0  0  0
  2  3  2  0  0  0  0
  2  7  1  0  0  0  0
  3  4  1  0  0  0  0
  4 32  1  0  0  0  0
  4  5  2  0  0  0  0
  5  8  1  0  0  0  0
  6  5  1  0  0  0  0
  6 33  1  0  0  0  0
  7  6  2  0  0  0  0
  8 35  1  1  0  0  0
  8 14  1  0  0  0  0
  9  8  1  0  0  0  0
  9 10  1  0  0  0  0
 10 12  1  0  0  0  0
 11 10  2  0  0  0  0
 12 13  2  0  0  0  0
 14 12  1  0  0  0  0
 14 15  2  0  0  0  0
 15 17  1  0  0  0  0
 16 15  1  0  0  0  0
 17 18  1  0  0  0  0
 17 21  2  0  0  0  0
 18 19  1  0  0  0  0
 19 25  2  0  0  0  0
 19 20  1  0  0  0  0
 20 22  2  0  0  0  0
 21 36  1  0  0  0  0
 21 20  1  0  0  0  0
 22 23  1  0  0  0  0
 22 37  1  0  0  0  0
 23 38  1  0  0  0  0
 24 39  1  0  0  0  0
 24 23  2  0  0  0  0
 25 24  1  0  0  0  0
 26  9  1  0  0  0  0
 27 26  1  0  0  0  0
 27 44  1  0  0  0  0
 28 45  1  0  0  0  0
 28 27  1  0  0  0  0
 29 48  1  0  0  0  0
 29 46  1  0  0  0  0
 29 28  1  0  0  0  0
 30 50  1  0  0  0  0
 30 28  1  0  0  0  0
 30 49  1  0  0  0  0
 31  3  1  0  0  0  0
 34  7  1  0  0  0  0
 40 25  1  0  0  0  0
 41 26  1  0  0  0  0
 42 26  1  0  0  0  0
 43 27  1  0  0  0  0
 47 29  1  0  0  0  0
 51 30  1  0  0  0  0
M  END
>  <Pose>
1

>  <Score>
-5.23

$$$$
