
 OpenBabel03222201593D

 42 45  0  0  1  0  0  0  0  0999 V2000
  -18.9070   -0.8260  -29.2340 Cl  0  0  0  0  0  0  0  0  0  0  0  0
  -19.0940   -1.9100  -27.8770 C   0  0  0  0  0  0  0  0  0  0  0  0
  -19.6770   -3.1370  -28.1100 C   0  0  0  0  0  0  0  0  0  0  0  0
  -19.8100   -3.9650  -27.0210 C   0  0  0  0  0  0  0  0  0  0  0  0
  -19.3910   -3.6090  -25.7600 C   0  0  0  0  0  0  0  0  0  0  0  0
  -18.8000   -2.3580  -25.5430 C   0  0  0  0  0  0  0  0  0  0  0  0
  -18.6580   -1.5140  -26.6160 C   0  0  0  0  0  0  0  0  0  0  0  0
  -20.1330   -3.5460  -29.4340 C   0  0  0  0  0  0  0  0  0  0  0  0
  -20.3410   -4.7970  -29.8780 N   0  0  0  0  0  0  0  0  0  0  0  0
  -20.7510   -4.7550  -31.1280 O   0  0  0  0  0  0  0  0  0  0  0  0
  -20.8220   -3.5110  -31.5310 C   0  0  0  0  0  0  0  0  0  0  0  0
  -20.4370   -2.7560  -30.4790 N   0  0  0  0  0  0  0  0  0  0  0  0
  -21.2430   -3.0010  -32.8850 C   0  0  0  0  0  0  0  0  0  0  0  0
  -20.3850   -1.9050  -33.2980 N   0  0  0  0  0  0  0  0  0  0  0  0
  -20.7690   -0.5660  -33.1150 C   0  0  0  0  0  0  0  0  0  0  0  0
  -20.6710   -0.0470  -31.9810 O   0  0  0  0  0  0  0  0  0  0  0  0
  -21.2840    0.2230  -34.2440 C   0  0  1  0  0  0  0  0  0  0  0  0
  -20.9160   -0.3890  -35.5830 C   0  0  0  0  0  0  0  0  0  0  0  0
  -21.6010    0.3110  -36.7090 C   0  0  0  0  0  0  0  0  0  0  0  0
  -22.9160   -0.2740  -37.1090 C   0  0  0  0  0  0  0  0  0  0  0  0
  -23.6210   -0.9630  -35.9450 C   0  0  0  0  0  0  0  0  0  0  0  0
  -23.7280    0.0020  -34.8750 N   0  0  0  0  0  0  0  0  0  0  0  0
  -24.8600    0.5150  -34.4740 N   0  0  0  0  0  0  0  0  0  0  0  0
  -24.6190    1.3520  -33.4950 N   0  0  0  0  0  0  0  0  0  0  0  0
  -23.3160    1.3550  -33.2870 N   0  0  0  0  0  0  0  0  0  0  0  0
  -22.7240    0.5090  -34.1480 C   0  0  0  0  0  0  0  0  0  0  0  0
  -20.2580   -4.9330  -27.1530 H   0  0  0  0  0  0  0  0  0  0  0  0
  -19.4900   -4.2520  -24.9000 H   0  0  0  0  0  0  0  0  0  0  0  0
  -18.4620   -2.0560  -24.5590 H   0  0  0  0  0  0  0  0  0  0  0  0
  -18.2010   -0.5450  -26.4470 H   0  0  0  0  0  0  0  0  0  0  0  0
  -22.2960   -2.6800  -32.8470 H   0  0  0  0  0  0  0  0  0  0  0  0
  -21.1750   -3.8550  -33.5880 H   0  0  0  0  0  0  0  0  0  0  0  0
  -19.4670   -2.1130  -33.7390 H   0  0  0  0  0  0  0  0  0  0  0  0
  -20.7680    1.2170  -34.2310 H   0  0  0  0  0  0  0  0  0  0  0  0
  -19.8040   -0.2310  -35.7160 H   0  0  0  0  0  0  0  0  0  0  0  0
  -21.0460   -1.4770  -35.5560 H   0  0  0  0  0  0  0  0  0  0  0  0
  -20.8980    0.3370  -37.5890 H   0  0  0  0  0  0  0  0  0  0  0  0
  -21.7360    1.3790  -36.4250 H   0  0  0  0  0  0  0  0  0  0  0  0
  -23.5400    0.5480  -37.5180 H   0  0  0  0  0  0  0  0  0  0  0  0
  -22.8160   -1.0510  -37.9020 H   0  0  0  0  0  0  0  0  0  0  0  0
  -24.6340   -1.2450  -36.2900 H   0  0  0  0  0  0  0  0  0  0  0  0
  -23.0510   -1.8200  -35.5880 H   0  0  0  0  0  0  0  0  0  0  0  0
  1  2  1  0  0  0  0
  2  7  1  0  0  0  0
  3  2  2  0  0  0  0
  3  4  1  0  0  0  0
  4  5  2  0  0  0  0
  5  6  1  0  0  0  0
  5 28  1  0  0  0  0
  6 29  1  0  0  0  0
  7 30  1  0  0  0  0
  7  6  2  0  0  0  0
  8  3  1  0  0  0  0
  9  8  2  0  0  0  0
 10  9  1  0  0  0  0
 11 10  1  0  0  0  0
 11 12  2  0  0  0  0
 12  8  1  0  0  0  0
 13 31  1  0  0  0  0
 13 11  1  0  0  0  0
 14 15  1  0  0  0  0
 14 13  1  0  0  0  0
 15 16  2  0  0  0  0
 17 34  1  1  0  0  0
 17 26  1  0  0  0  0
 17 15  1  0  0  0  0
 18 36  1  0  0  0  0
 18 17  1  0  0  0  0
 19 38  1  0  0  0  0
 19 18  1  0  0  0  0
 20 19  1  0  0  0  0
 20 21  1  0  0  0  0
 21 42  1  0  0  0  0
 21 22  1  0  0  0  0
 22 23  1  0  0  0  0
 22 26  1  0  0  0  0
 23 24  2  0  0  0  0
 24 25  1  0  0  0  0
 26 25  2  0  0  0  0
 27  4  1  0  0  0  0
 32 13  1  0  0  0  0
 33 14  1  0  0  0  0
 35 18  1  0  0  0  0
 37 19  1  0  0  0  0
 39 20  1  0  0  0  0
 40 20  1  0  0  0  0
 41 21  1  0  0  0  0
M  END
>  <Pose>
1

>  <Score>
-6.59

$$$$
