
 OpenBabel03222201593D

 57 60  0  0  1  0  0  0  0  0999 V2000
  -21.1280   -4.2760  -31.1380 B   0  0  0  0  0  0  0  0  0  0  0  0
  -20.4810   -2.6720  -31.9380 C   0  0  0  0  0  0  0  0  0  0  0  0
  -20.6140   -2.4550  -33.3010 C   0  0  0  0  0  0  0  0  0  0  0  0
  -20.1550   -1.3070  -33.8980 C   0  0  0  0  0  0  0  0  0  0  0  0
  -19.5470   -0.3420  -33.1300 C   0  0  0  0  0  0  0  0  0  0  0  0
  -19.4040   -0.5440  -31.7550 C   0  0  0  0  0  0  0  0  0  0  0  0
  -19.8670   -1.6980  -31.1710 C   0  0  0  0  0  0  0  0  0  0  0  0
  -19.0640    0.9080  -33.6730 C   0  0  1  0  0  0  0  0  0  0  0  0
  -18.4850    1.7000  -32.8150 O   0  0  0  0  0  0  0  0  0  0  0  0
  -19.1100    1.4400  -35.0150 C   0  0  1  0  0  0  0  0  0  0  0  0
  -20.3290    1.0890  -35.6970 N   0  0  0  0  0  0  0  0  0  0  0  0
  -21.3440    1.7120  -34.8170 C   0  0  2  0  0  0  0  0  0  0  0  0
  -22.5860    1.5810  -35.4760 N   0  0  0  0  0  0  0  0  0  0  0  0
  -22.3760    0.7900  -36.6500 C   0  0  0  0  0  0  0  0  0  0  0  0
  -21.0130    0.5060  -36.7590 C   0  0  0  0  0  0  0  0  0  0  0  0
  -20.5780   -0.2530  -37.8240 C   0  0  0  0  0  0  0  0  0  0  0  0
  -19.3460   -0.4960  -37.9010 O   0  0  0  0  0  0  0  0  0  0  0  0
  -21.4620   -0.7000  -38.7240 N   0  0  0  0  0  0  0  0  0  0  0  0
  -22.7470   -0.4150  -38.5950 C   0  0  0  0  0  0  0  0  0  0  0  0
  -23.5470   -0.8550  -39.4650 O   0  0  0  0  0  0  0  0  0  0  0  0
  -23.2390    0.3330  -37.5610 N   0  0  0  0  0  0  0  0  0  0  0  0
  -24.6650    0.5700  -37.5350 C   0  0  0  0  0  0  0  0  0  0  0  0
  -20.9560   -1.5040  -39.8410 C   0  0  0  0  0  0  0  0  0  0  0  0
  -23.8690    2.0950  -35.0720 C   0  0  0  0  0  0  0  0  0  0  0  0
  -20.7860    3.0310  -34.4860 C   0  0  1  0  0  0  0  0  0  0  0  0
  -19.3250    2.9600  -34.9510 C   0  0  1  0  0  0  0  0  0  0  0  0
  -18.4230    3.6290  -34.0190 C   0  0  0  0  0  0  0  0  0  0  0  0
  -17.1640    3.6020  -34.2220 O   0  0  0  0  0  0  0  0  0  0  0  0
  -18.8820    4.2970  -32.9160 O   0  0  0  0  0  0  0  0  0  0  0  0
  -18.0830    5.2250  -32.1790 C   0  0  0  0  0  0  0  0  0  0  0  0
  -21.4440    4.2260  -34.9980 C   0  0  0  0  0  0  0  0  0  0  0  0
  -21.8120    5.1290  -34.2030 O   0  0  0  0  0  0  0  0  0  0  0  0
  -21.6790    4.4070  -36.3440 O   0  0  0  0  0  0  0  0  0  0  0  0
  -21.8670    5.6930  -36.8920 C   0  0  0  0  0  0  0  0  0  0  0  0
  -21.0890   -3.1970  -33.9260 H   0  0  0  0  0  0  0  0  0  0  0  0
  -20.2600   -1.1900  -34.9440 H   0  0  0  0  0  0  0  0  0  0  0  0
  -18.9190    0.2090  -31.1070 H   0  0  0  0  0  0  0  0  0  0  0  0
  -19.7440   -1.8380  -30.0870 H   0  0  0  0  0  0  0  0  0  0  0  0
  -18.2070    1.2100  -35.6290 H   0  0  0  0  0  0  0  0  0  0  0  0
  -21.4200    1.1130  -33.8710 H   0  0  0  0  0  0  0  0  0  0  0  0
  -24.9470    1.6320  -37.4050 H   0  0  0  0  0  0  0  0  0  0  0  0
  -25.0950    0.3230  -38.5620 H   0  0  0  0  0  0  0  0  0  0  0  0
  -25.2140   -0.1360  -36.8720 H   0  0  0  0  0  0  0  0  0  0  0  0
  -20.2070   -0.9330  -40.4290 H   0  0  0  0  0  0  0  0  0  0  0  0
  -21.8000   -1.8610  -40.4630 H   0  0  0  0  0  0  0  0  0  0  0  0
  -20.4330   -2.3900  -39.4200 H   0  0  0  0  0  0  0  0  0  0  0  0
  -23.8400    2.3790  -33.9740 H   0  0  0  0  0  0  0  0  0  0  0  0
  -24.2360    2.9620  -35.6080 H   0  0  0  0  0  0  0  0  0  0  0  0
  -24.6500    1.2700  -35.0640 H   0  0  0  0  0  0  0  0  0  0  0  0
  -20.6760    3.1280  -33.3540 H   0  0  0  0  0  0  0  0  0  0  0  0
  -19.2680    3.3560  -35.9980 H   0  0  0  0  0  0  0  0  0  0  0  0
  -18.0730    6.2160  -32.6990 H   0  0  0  0  0  0  0  0  0  0  0  0
  -18.5270    5.3020  -31.1670 H   0  0  0  0  0  0  0  0  0  0  0  0
  -17.0600    4.7690  -32.1490 H   0  0  0  0  0  0  0  0  0  0  0  0
  -21.8790    5.5830  -38.0060 H   0  0  0  0  0  0  0  0  0  0  0  0
  -22.9030    6.0120  -36.6130 H   0  0  0  0  0  0  0  0  0  0  0  0
  -21.1010    6.4190  -36.5520 H   0  0  0  0  0  0  0  0  0  0  0  0
  2  7  1  0  0  0  0
  2  1  1  0  0  0  0
  3  2  2  0  0  0  0
  4  3  1  0  0  0  0
  4  5  2  0  0  0  0
  5  6  1  0  0  0  0
  6  7  2  0  0  0  0
  6 37  1  0  0  0  0
  7 38  1  0  0  0  0
  8  5  1  0  0  0  0
  8  9  1  6  0  0  0
 10 39  1  6  0  0  0
 10 26  1  0  0  0  0
 10  8  1  0  0  0  0
 11 10  1  0  0  0  0
 11 12  1  0  0  0  0
 12 25  1  0  0  0  0
 12 40  1  1  0  0  0
 13 24  1  0  0  0  0
 13 12  1  0  0  0  0
 14 13  1  0  0  0  0
 15 14  2  0  0  0  0
 15 11  1  0  0  0  0
 16 15  1  0  0  0  0
 17 16  2  0  0  0  0
 18 19  1  0  0  0  0
 18 16  1  0  0  0  0
 19 21  1  0  0  0  0
 20 19  2  0  0  0  0
 21 22  1  0  0  0  0
 21 14  1  0  0  0  0
 22 41  1  0  0  0  0
 22 43  1  0  0  0  0
 23 46  1  0  0  0  0
 23 18  1  0  0  0  0
 24 49  1  0  0  0  0
 24 47  1  0  0  0  0
 25 50  1  1  0  0  0
 26 51  1  6  0  0  0
 26 25  1  0  0  0  0
 26 27  1  0  0  0  0
 27 29  1  0  0  0  0
 28 27  2  0  0  0  0
 29 30  1  0  0  0  0
 30 54  1  0  0  0  0
 30 53  1  0  0  0  0
 31 25  1  0  0  0  0
 31 32  2  0  0  0  0
 33 31  1  0  0  0  0
 34 56  1  0  0  0  0
 34 57  1  0  0  0  0
 34 33  1  0  0  0  0
 35  3  1  0  0  0  0
 36  4  1  0  0  0  0
 42 22  1  0  0  0  0
 44 23  1  0  0  0  0
 45 23  1  0  0  0  0
 48 24  1  0  0  0  0
 52 30  1  0  0  0  0
 55 34  1  0  0  0  0
M  END
>  <Pose>
1

>  <Score>
-4.73

$$$$
