
 OpenBabel03222201593D

 52 55  0  0  1  0  0  0  0  0999 V2000
  -12.2620    3.6980  -21.8640 B   0  0  0  0  0  0  0  0  0  0  0  0
  -14.1220    3.6320  -22.3760 C   0  0  0  0  0  0  0  0  0  0  0  0
  -14.5100    4.0810  -23.6140 C   0  0  0  0  0  0  0  0  0  0  0  0
  -15.8450    4.0690  -24.0500 C   0  0  0  0  0  0  0  0  0  0  0  0
  -16.7860    3.5800  -23.1960 C   0  0  0  0  0  0  0  0  0  0  0  0
  -16.4050    3.1220  -21.9380 C   0  0  0  0  0  0  0  0  0  0  0  0
  -15.0840    3.1450  -21.5230 C   0  0  0  0  0  0  0  0  0  0  0  0
  -16.1270    4.5640  -25.4080 C   0  0  0  0  0  0  0  0  0  0  0  0
  -16.0480    5.7620  -25.7080 O   0  0  0  0  0  0  0  0  0  0  0  0
  -16.4920    3.5550  -26.3870 N   0  0  0  0  0  0  0  0  0  0  0  0
  -17.8840    3.3750  -26.7200 C   0  0  2  0  0  0  0  0  0  0  0  0
  -18.6270    4.0370  -25.5300 C   0  0  0  0  0  0  0  0  0  0  0  0
  -18.3200    1.9450  -26.7460 C   0  0  0  0  0  0  0  0  0  0  0  0
  -19.0100    1.5310  -25.7920 O   0  0  0  0  0  0  0  0  0  0  0  0
  -17.9900    1.0850  -27.7990 N   0  0  0  0  0  0  0  0  0  0  0  0
  -16.7740    0.4070  -28.0960 C   0  0  0  0  0  0  0  0  0  0  0  0
  -17.2220   -0.8830  -28.8010 C   0  0  0  0  0  0  0  0  0  0  0  0
  -18.5770   -1.3460  -28.3270 C   0  0  1  0  0  0  0  0  0  0  0  0
  -18.9850   -2.5480  -29.0020 N   0  0  0  0  0  0  0  0  0  0  0  0
  -20.3460   -2.8710  -28.5510 C   0  0  0  0  0  0  0  0  0  0  0  0
  -20.3770   -3.2580  -27.1050 C   0  0  0  0  0  0  0  0  0  0  0  0
  -19.3610   -2.5440  -26.2990 C   0  0  0  0  0  0  0  0  0  0  0  0
  -19.0900   -2.6100  -24.9920 N   0  0  0  0  0  0  0  0  0  0  0  0
  -18.0750   -1.7650  -24.7210 C   0  0  0  0  0  0  0  0  0  0  0  0
  -17.7260   -1.1790  -25.8750 N   0  0  0  0  0  0  0  0  0  0  0  0
  -18.4850   -1.6220  -26.8890 C   0  0  0  0  0  0  0  0  0  0  0  0
  -19.6890   -0.3330  -28.6450 C   0  0  0  0  0  0  0  0  0  0  0  0
  -18.9800    0.9250  -28.9170 C   0  0  0  0  0  0  0  0  0  0  0  0
  -13.7770    4.4830  -24.2970 H   0  0  0  0  0  0  0  0  0  0  0  0
  -17.8300    3.5570  -23.5050 H   0  0  0  0  0  0  0  0  0  0  0  0
  -17.1140    2.7270  -21.2610 H   0  0  0  0  0  0  0  0  0  0  0  0
  -14.7460    2.8040  -20.5450 H   0  0  0  0  0  0  0  0  0  0  0  0
  -15.7760    2.9810  -26.8270 H   0  0  0  0  0  0  0  0  0  0  0  0
  -18.2040    3.9540  -27.6030 H   0  0  0  0  0  0  0  0  0  0  0  0
  -18.2170    3.4370  -24.6470 H   0  0  0  0  0  0  0  0  0  0  0  0
  -18.3290    5.0610  -25.4060 H   0  0  0  0  0  0  0  0  0  0  0  0
  -19.7040    3.8710  -25.6030 H   0  0  0  0  0  0  0  0  0  0  0  0
  -16.2390    1.0290  -28.8600 H   0  0  0  0  0  0  0  0  0  0  0  0
  -16.1170    0.2170  -27.2550 H   0  0  0  0  0  0  0  0  0  0  0  0
  -16.5060   -1.6440  -28.4670 H   0  0  0  0  0  0  0  0  0  0  0  0
  -17.1130   -0.8220  -29.8900 H   0  0  0  0  0  0  0  0  0  0  0  0
  -19.0680   -2.3570  -30.0290 H   0  0  0  0  0  0  0  0  0  0  0  0
  -21.0730   -2.0740  -28.6940 H   0  0  0  0  0  0  0  0  0  0  0  0
  -20.7130   -3.7610  -29.1410 H   0  0  0  0  0  0  0  0  0  0  0  0
  -20.3410   -4.3730  -26.9500 H   0  0  0  0  0  0  0  0  0  0  0  0
  -21.3790   -2.9660  -26.6630 H   0  0  0  0  0  0  0  0  0  0  0  0
  -19.5350   -3.1850  -24.2440 H   0  0  0  0  0  0  0  0  0  0  0  0
  -17.5930   -1.5560  -23.7870 H   0  0  0  0  0  0  0  0  0  0  0  0
  -20.3710   -0.3420  -27.7950 H   0  0  0  0  0  0  0  0  0  0  0  0
  -20.2140   -0.6020  -29.6070 H   0  0  0  0  0  0  0  0  0  0  0  0
  -19.4930    1.8470  -29.1010 H   0  0  0  0  0  0  0  0  0  0  0  0
  -18.3770    0.7450  -29.8720 H   0  0  0  0  0  0  0  0  0  0  0  0
  2  1  1  0  0  0  0
  2  7  1  0  0  0  0
  3  2  2  0  0  0  0
  4  3  1  0  0  0  0
  4  5  2  0  0  0  0
  5  6  1  0  0  0  0
  6  7  2  0  0  0  0
  6 31  1  0  0  0  0
  7 32  1  0  0  0  0
  8  4  1  0  0  0  0
  9  8  2  0  0  0  0
 10  8  1  0  0  0  0
 11 34  1  6  0  0  0
 11 10  1  0  0  0  0
 11 12  1  0  0  0  0
 12 36  1  0  0  0  0
 12 35  1  0  0  0  0
 13 11  1  0  0  0  0
 13 14  2  0  0  0  0
 15 13  1  0  0  0  0
 16 15  1  0  0  0  0
 16 39  1  0  0  0  0
 17 40  1  0  0  0  0
 17 18  1  0  0  0  0
 17 16  1  0  0  0  0
 18 26  1  1  0  0  0
 19 20  1  0  0  0  0
 19 18  1  0  0  0  0
 20 21  1  0  0  0  0
 21 45  1  0  0  0  0
 21 46  1  0  0  0  0
 21 22  1  0  0  0  0
 22 23  1  0  0  0  0
 23 24  1  0  0  0  0
 23 47  1  0  0  0  0
 24 48  1  0  0  0  0
 25 24  2  0  0  0  0
 26 22  2  0  0  0  0
 26 25  1  0  0  0  0
 27 18  1  0  0  0  0
 27 49  1  0  0  0  0
 28 27  1  0  0  0  0
 28 15  1  0  0  0  0
 29  3  1  0  0  0  0
 30  5  1  0  0  0  0
 33 10  1  0  0  0  0
 37 12  1  0  0  0  0
 38 16  1  0  0  0  0
 41 17  1  0  0  0  0
 42 19  1  0  0  0  0
 43 20  1  0  0  0  0
 44 20  1  0  0  0  0
 50 27  1  0  0  0  0
 51 28  1  0  0  0  0
 52 28  1  0  0  0  0
M  END
>  <Pose>
1

>  <Score>
-5.41

$$$$
