
 OpenBabel03222201593D

 45 48  0  0  0  0  0  0  0  0999 V2000
  -17.1240    1.8080  -22.3800 B   0  0  0  0  0  0  0  0  0  0  0  0
  -17.7130    1.1970  -24.1070 C   0  0  0  0  0  0  0  0  0  0  0  0
  -17.9720   -0.1440  -24.3290 C   0  0  0  0  0  0  0  0  0  0  0  0
  -18.3870   -0.5900  -25.5400 N   0  0  0  0  0  0  0  0  0  0  0  0
  -18.5600    0.2590  -26.5590 C   0  0  0  0  0  0  0  0  0  0  0  0
  -18.9720   -0.1880  -27.7570 N   0  0  0  0  0  0  0  0  0  0  0  0
  -19.2280   -1.4860  -27.9920 C   0  0  0  0  0  0  0  0  0  0  0  0
  -19.0500   -2.3580  -26.9470 C   0  0  0  0  0  0  0  0  0  0  0  0
  -18.6210   -1.9090  -25.6900 C   0  0  0  0  0  0  0  0  0  0  0  0
  -18.4690   -2.7340  -24.7550 O   0  0  0  0  0  0  0  0  0  0  0  0
  -19.6770   -1.9160  -29.3310 C   0  0  0  0  0  0  0  0  0  0  0  0
  -18.5390   -2.0230  -30.1420 O   0  0  0  0  0  0  0  0  0  0  0  0
  -18.5910   -1.4370  -31.4360 C   0  0  0  0  0  0  0  0  0  0  0  0
  -17.5760   -0.7960  -31.6750 O   0  0  0  0  0  0  0  0  0  0  0  0
  -19.7670   -1.6590  -32.2550 C   0  0  0  0  0  0  0  0  0  0  0  0
  -20.3470   -2.8950  -32.3150 N   0  0  0  0  0  0  0  0  0  0  0  0
  -21.4180   -3.1240  -33.0530 N   0  0  0  0  0  0  0  0  0  0  0  0
  -21.9880   -2.1490  -33.7820 C   0  0  0  0  0  0  0  0  0  0  0  0
  -23.0230   -2.3820  -34.4920 O   0  0  0  0  0  0  0  0  0  0  0  0
  -21.4660   -0.8780  -33.7780 C   0  0  0  0  0  0  0  0  0  0  0  0
  -20.3330   -0.6630  -32.9880 C   0  0  0  0  0  0  0  0  0  0  0  0
  -19.8460    0.6210  -33.0130 C   0  0  0  0  0  0  0  0  0  0  0  0
  -20.4440    1.6230  -33.7710 C   0  0  0  0  0  0  0  0  0  0  0  0
  -21.5580    1.3760  -34.5380 C   0  0  0  0  0  0  0  0  0  0  0  0
  -22.0630    0.1000  -34.5280 C   0  0  0  0  0  0  0  0  0  0  0  0
  -22.0230   -4.4380  -33.1080 C   0  0  0  0  0  0  0  0  0  0  0  0
  -22.2560   -5.0230  -31.7400 C   0  0  0  0  0  0  0  0  0  0  0  0
  -21.3590   -6.0280  -31.4290 O   0  0  0  0  0  0  0  0  0  0  0  0
  -18.3090    1.5900  -26.3580 C   0  0  0  0  0  0  0  0  0  0  0  0
  -17.8850    2.0830  -25.1420 C   0  0  0  0  0  0  0  0  0  0  0  0
  -17.8230   -0.8180  -23.4830 H   0  0  0  0  0  0  0  0  0  0  0  0
  -19.2410   -3.4140  -27.0760 H   0  0  0  0  0  0  0  0  0  0  0  0
  -20.2880   -2.8400  -29.3020 H   0  0  0  0  0  0  0  0  0  0  0  0
  -20.3880   -1.1290  -29.7070 H   0  0  0  0  0  0  0  0  0  0  0  0
  -18.9940    0.8890  -32.4520 H   0  0  0  0  0  0  0  0  0  0  0  0
  -20.0210    2.6200  -33.7580 H   0  0  0  0  0  0  0  0  0  0  0  0
  -22.0310    2.1610  -35.1340 H   0  0  0  0  0  0  0  0  0  0  0  0
  -22.9310   -0.1150  -35.1170 H   0  0  0  0  0  0  0  0  0  0  0  0
  -21.3580   -5.1330  -33.6580 H   0  0  0  0  0  0  0  0  0  0  0  0
  -22.9800   -4.3920  -33.6500 H   0  0  0  0  0  0  0  0  0  0  0  0
  -23.2940   -5.3820  -31.6170 H   0  0  0  0  0  0  0  0  0  0  0  0
  -22.1030   -4.2040  -31.0080 H   0  0  0  0  0  0  0  0  0  0  0  0
  -21.4330   -6.2040  -30.4610 H   0  0  0  0  0  0  0  0  0  0  0  0
  -18.4460    2.3020  -27.1850 H   0  0  0  0  0  0  0  0  0  0  0  0
  -17.6900    3.1320  -24.9900 H   0  0  0  0  0  0  0  0  0  0  0  0
  2  1  1  0  0  0  0
  3  2  1  0  0  0  0
  3 31  1  0  0  0  0
  4  3  1  0  0  0  0
  5 29  2  0  0  0  0
  5  4  1  0  0  0  0
  6  5  1  0  0  0  0
  7  6  2  0  0  0  0
  7  8  1  0  0  0  0
  8  9  1  0  0  0  0
  9  4  1  0  0  0  0
  9 10  2  0  0  0  0
 11 33  1  0  0  0  0
 11  7  1  0  0  0  0
 12 11  1  0  0  0  0
 13 12  1  0  0  0  0
 14 13  2  0  0  0  0
 15 13  1  0  0  0  0
 16 15  2  0  0  0  0
 17 16  1  0  0  0  0
 18 20  1  0  0  0  0
 18 17  1  0  0  0  0
 19 18  2  0  0  0  0
 20 21  1  0  0  0  0
 21 15  1  0  0  0  0
 22 21  2  0  0  0  0
 22 35  1  0  0  0  0
 23 36  1  0  0  0  0
 23 22  1  0  0  0  0
 24 25  1  0  0  0  0
 24 23  2  0  0  0  0
 25 20  2  0  0  0  0
 26 17  1  0  0  0  0
 26 27  1  0  0  0  0
 27 41  1  0  0  0  0
 27 28  1  0  0  0  0
 27 42  1  0  0  0  0
 28 43  1  0  0  0  0
 29 30  1  0  0  0  0
 30 45  1  0  0  0  0
 30  2  2  0  0  0  0
 32  8  1  0  0  0  0
 34 11  1  0  0  0  0
 37 24  1  0  0  0  0
 38 25  1  0  0  0  0
 39 26  1  0  0  0  0
 40 26  1  0  0  0  0
 44 29  1  0  0  0  0
M  END
>  <Pose>
1

>  <Score>
-6.86

$$$$
