
 OpenBabel03222201593D

 51 54  0  0  1  0  0  0  0  0999 V2000
  -22.8790    0.1340  -34.4160 B   0  0  0  0  0  0  0  0  0  0  0  0
  -21.3530   -0.1950  -33.3200 C   0  0  0  0  0  0  0  0  0  0  0  0
  -21.4410   -0.1670  -31.9410 C   0  0  0  0  0  0  0  0  0  0  0  0
  -20.3680   -0.3970  -31.1060 C   0  0  0  0  0  0  0  0  0  0  0  0
  -19.1520   -0.6700  -31.7400 C   0  0  0  0  0  0  0  0  0  0  0  0
  -19.0640   -0.6970  -33.1100 C   0  0  0  0  0  0  0  0  0  0  0  0
  -20.1470   -0.4650  -33.9320 C   0  0  0  0  0  0  0  0  0  0  0  0
  -19.9940   -0.5080  -35.4150 C   0  0  0  0  0  0  0  0  0  0  0  0
  -18.0960   -0.8980  -30.8690 O   0  0  0  0  0  0  0  0  0  0  0  0
  -18.1430   -0.6620  -29.4750 C   0  0  0  0  0  0  0  0  0  0  0  0
  -19.4980   -1.1740  -28.8810 C   0  0  2  0  0  0  0  0  0  0  0  0
  -20.4580   -0.3490  -29.6540 C   0  0  0  0  0  0  0  0  0  0  0  0
  -21.3460    0.3940  -29.2000 O   0  0  0  0  0  0  0  0  0  0  0  0
  -19.5640   -1.0950  -27.5240 N   0  0  0  0  0  0  0  0  0  0  0  0
  -18.6350   -0.4160  -26.7280 C   0  0  0  0  0  0  0  0  0  0  0  0
  -17.6700   -1.3990  -26.1010 C   0  0  0  0  0  0  0  0  0  0  0  0
  -18.4470   -2.1710  -25.2050 O   0  0  0  0  0  0  0  0  0  0  0  0
  -19.2180   -2.9970  -26.0420 C   0  0  0  0  0  0  0  0  0  0  0  0
  -20.2020   -2.1060  -26.8030 C   0  0  0  0  0  0  0  0  0  0  0  0
  -19.5540   -2.5840  -29.3470 C   0  0  0  0  0  0  0  0  0  0  0  0
  -20.8310   -3.2180  -29.4480 N   0  0  0  0  0  0  0  0  0  0  0  0
  -21.3930   -3.4090  -30.7310 C   0  0  0  0  0  0  0  0  0  0  0  0
  -20.7050   -4.5760  -31.4540 C   0  0  0  0  0  0  0  0  0  0  0  0
  -21.0410   -5.7190  -30.7210 O   0  0  0  0  0  0  0  0  0  0  0  0
  -20.3590   -5.6320  -29.5020 C   0  0  0  0  0  0  0  0  0  0  0  0
  -20.8000   -4.4630  -28.6770 C   0  0  0  0  0  0  0  0  0  0  0  0
  -22.4020    0.0470  -31.4420 H   0  0  0  0  0  0  0  0  0  0  0  0
  -18.1060   -0.9110  -33.5670 H   0  0  0  0  0  0  0  0  0  0  0  0
  -20.6640    0.2160  -35.9180 H   0  0  0  0  0  0  0  0  0  0  0  0
  -18.9190   -0.3100  -35.6260 H   0  0  0  0  0  0  0  0  0  0  0  0
  -20.1980   -1.5330  -35.7850 H   0  0  0  0  0  0  0  0  0  0  0  0
  -17.2960   -1.2070  -29.0290 H   0  0  0  0  0  0  0  0  0  0  0  0
  -18.0400    0.4260  -29.2600 H   0  0  0  0  0  0  0  0  0  0  0  0
  -18.0760    0.4030  -27.1720 H   0  0  0  0  0  0  0  0  0  0  0  0
  -19.1920    0.0360  -25.8600 H   0  0  0  0  0  0  0  0  0  0  0  0
  -17.1760   -2.0230  -26.8410 H   0  0  0  0  0  0  0  0  0  0  0  0
  -16.9740   -0.8200  -25.4630 H   0  0  0  0  0  0  0  0  0  0  0  0
  -19.8300   -3.6510  -25.3980 H   0  0  0  0  0  0  0  0  0  0  0  0
  -18.5200   -3.5320  -26.6820 H   0  0  0  0  0  0  0  0  0  0  0  0
  -20.7720   -1.5920  -25.9540 H   0  0  0  0  0  0  0  0  0  0  0  0
  -20.9490   -2.7330  -27.2710 H   0  0  0  0  0  0  0  0  0  0  0  0
  -18.9220   -3.2720  -28.7130 H   0  0  0  0  0  0  0  0  0  0  0  0
  -19.0970   -2.7050  -30.3790 H   0  0  0  0  0  0  0  0  0  0  0  0
  -21.3270   -2.5660  -31.3930 H   0  0  0  0  0  0  0  0  0  0  0  0
  -22.4490   -3.7570  -30.6000 H   0  0  0  0  0  0  0  0  0  0  0  0
  -21.1760   -4.6030  -32.4710 H   0  0  0  0  0  0  0  0  0  0  0  0
  -19.6180   -4.4310  -31.5400 H   0  0  0  0  0  0  0  0  0  0  0  0
  -20.6510   -6.5630  -28.9400 H   0  0  0  0  0  0  0  0  0  0  0  0
  -19.2630   -5.6810  -29.6440 H   0  0  0  0  0  0  0  0  0  0  0  0
  -21.7680   -4.6620  -28.1960 H   0  0  0  0  0  0  0  0  0  0  0  0
  -20.0590   -4.3040  -27.8670 H   0  0  0  0  0  0  0  0  0  0  0  0
  1  2  1  0  0  0  0
  2  3  1  0  0  0  0
  3 27  1  0  0  0  0
  3  4  2  0  0  0  0
  4 12  1  0  0  0  0
  5  4  1  0  0  0  0
  5  9  1  0  0  0  0
  6  5  2  0  0  0  0
  7  2  2  0  0  0  0
  7  6  1  0  0  0  0
  8  7  1  0  0  0  0
  9 10  1  0  0  0  0
 10 33  1  0  0  0  0
 10 32  1  0  0  0  0
 10 11  1  0  0  0  0
 11 20  1  6  0  0  0
 11 14  1  0  0  0  0
 12 13  2  0  0  0  0
 12 11  1  0  0  0  0
 14 19  1  0  0  0  0
 14 15  1  0  0  0  0
 15 16  1  0  0  0  0
 15 35  1  0  0  0  0
 16 37  1  0  0  0  0
 16 17  1  0  0  0  0
 18 38  1  0  0  0  0
 18 17  1  0  0  0  0
 19 18  1  0  0  0  0
 19 40  1  0  0  0  0
 20 42  1  0  0  0  0
 21 20  1  0  0  0  0
 21 26  1  0  0  0  0
 22 45  1  0  0  0  0
 22 21  1  0  0  0  0
 23 22  1  0  0  0  0
 23 24  1  0  0  0  0
 24 25  1  0  0  0  0
 25 48  1  0  0  0  0
 25 26  1  0  0  0  0
 26 50  1  0  0  0  0
 26 51  1  0  0  0  0
 28  6  1  0  0  0  0
 29  8  1  0  0  0  0
 30  8  1  0  0  0  0
 31  8  1  0  0  0  0
 34 15  1  0  0  0  0
 36 16  1  0  0  0  0
 39 18  1  0  0  0  0
 41 19  1  0  0  0  0
 43 20  1  0  0  0  0
 44 22  1  0  0  0  0
 46 23  1  0  0  0  0
 47 23  1  0  0  0  0
 49 25  1  0  0  0  0
M  END
>  <Pose>
1

>  <Score>
-5.29

$$$$
