
 OpenBabel03222201593D

 38 41  0  0  0  0  0  0  0  0999 V2000
  -19.4550   -3.4580  -25.7340 B   0  0  0  0  0  0  0  0  0  0  0  0
  -19.7180   -2.8200  -27.4980 C   0  0  0  0  0  0  0  0  0  0  0  0
  -19.0740   -1.6950  -27.8880 C   0  0  0  0  0  0  0  0  0  0  0  0
  -18.2250   -0.8780  -27.2350 N   0  0  0  0  0  0  0  0  0  0  0  0
  -17.9170    0.0610  -28.1240 N   0  0  0  0  0  0  0  0  0  0  0  0
  -18.5150   -0.1250  -29.2680 N   0  0  0  0  0  0  0  0  0  0  0  0
  -19.2760   -1.2460  -29.1740 C   0  0  0  0  0  0  0  0  0  0  0  0
  -20.1180   -1.9280  -30.0460 C   0  0  0  0  0  0  0  0  0  0  0  0
  -20.7600   -3.0450  -29.6640 N   0  0  0  0  0  0  0  0  0  0  0  0
  -20.5540   -3.4760  -28.4010 C   0  0  0  0  0  0  0  0  0  0  0  0
  -21.6480   -3.7910  -30.5410 C   0  0  0  0  0  0  0  0  0  0  0  0
  -21.1670   -3.9200  -31.9130 C   0  0  0  0  0  0  0  0  0  0  0  0
  -20.5640   -4.9990  -32.1980 O   0  0  0  0  0  0  0  0  0  0  0  0
  -21.3140   -2.9340  -32.9780 C   0  0  0  0  0  0  0  0  0  0  0  0
  -20.2930   -2.0570  -33.2140 C   0  0  0  0  0  0  0  0  0  0  0  0
  -20.4050   -1.1150  -34.2040 C   0  0  0  0  0  0  0  0  0  0  0  0
  -21.5370   -1.0130  -34.9930 C   0  0  0  0  0  0  0  0  0  0  0  0
  -22.5590   -1.9200  -34.7260 C   0  0  0  0  0  0  0  0  0  0  0  0
  -22.4510   -2.8620  -33.7400 C   0  0  0  0  0  0  0  0  0  0  0  0
  -21.6730   -0.0750  -35.9950 C   0  0  0  0  0  0  0  0  0  0  0  0
  -20.6220    0.7920  -36.2040 C   0  0  0  0  0  0  0  0  0  0  0  0
  -19.4880    0.7000  -35.4230 C   0  0  0  0  0  0  0  0  0  0  0  0
  -19.3580   -0.2390  -34.4260 C   0  0  0  0  0  0  0  0  0  0  0  0
  -17.7140   -0.9130  -25.9170 C   0  0  0  0  0  0  0  0  0  0  0  0
  -20.2390   -1.5390  -31.0290 H   0  0  0  0  0  0  0  0  0  0  0  0
  -21.0590   -4.3710  -28.0720 H   0  0  0  0  0  0  0  0  0  0  0  0
  -21.8250   -4.8230  -30.1330 H   0  0  0  0  0  0  0  0  0  0  0  0
  -22.6320   -3.2870  -30.5490 H   0  0  0  0  0  0  0  0  0  0  0  0
  -19.3610   -2.0690  -32.6360 H   0  0  0  0  0  0  0  0  0  0  0  0
  -23.4570   -1.8340  -35.3560 H   0  0  0  0  0  0  0  0  0  0  0  0
  -23.2760   -3.5580  -33.5560 H   0  0  0  0  0  0  0  0  0  0  0  0
  -22.5840   -0.0440  -36.5770 H   0  0  0  0  0  0  0  0  0  0  0  0
  -20.7090    1.5440  -36.9930 H   0  0  0  0  0  0  0  0  0  0  0  0
  -18.6720    1.3890  -35.6020 H   0  0  0  0  0  0  0  0  0  0  0  0
  -18.4550   -0.3050  -33.8110 H   0  0  0  0  0  0  0  0  0  0  0  0
  -17.2540    0.0680  -25.6770 H   0  0  0  0  0  0  0  0  0  0  0  0
  -16.8570   -1.6500  -25.8530 H   0  0  0  0  0  0  0  0  0  0  0  0
  -18.3820   -1.1480  -25.1040 H   0  0  0  0  0  0  0  0  0  0  0  0
  2  1  1  0  0  0  0
  3  2  1  0  0  0  0
  3  4  1  0  0  0  0
  4 24  1  0  0  0  0
  5  4  1  0  0  0  0
  6  7  1  0  0  0  0
  6  5  2  0  0  0  0
  7  3  2  0  0  0  0
  8  9  1  0  0  0  0
  8  7  1  0  0  0  0
  9 10  1  0  0  0  0
 10 26  1  0  0  0  0
 10  2  2  0  0  0  0
 11 27  1  0  0  0  0
 11  9  1  0  0  0  0
 12 11  1  0  0  0  0
 13 12  2  0  0  0  0
 14 12  1  0  0  0  0
 15 14  1  0  0  0  0
 15 29  1  0  0  0  0
 16 15  2  0  0  0  0
 17 18  2  0  0  0  0
 17 16  1  0  0  0  0
 18 19  1  0  0  0  0
 19 31  1  0  0  0  0
 19 14  2  0  0  0  0
 20 17  1  0  0  0  0
 21 20  2  0  0  0  0
 21 22  1  0  0  0  0
 22 23  2  0  0  0  0
 23 16  1  0  0  0  0
 23 35  1  0  0  0  0
 24 37  1  0  0  0  0
 24 36  1  0  0  0  0
 24 38  1  0  0  0  0
 25  8  1  0  0  0  0
 28 11  1  0  0  0  0
 30 18  1  0  0  0  0
 32 20  1  0  0  0  0
 33 21  1  0  0  0  0
 34 22  1  0  0  0  0
M  END
>  <Pose>
1

>  <Score>
-6.29

$$$$
