
 OpenBabel03222201593D

 55 58  0  0  1  0  0  0  0  0999 V2000
  -21.9150   -5.3670  -32.1970 Cl  0  0  0  0  0  0  0  0  0  0  0  0
  -22.3840   -3.8180  -32.8890 C   0  0  0  0  0  0  0  0  0  0  0  0
  -21.4620   -2.8650  -33.2310 C   0  0  0  0  0  0  0  0  0  0  0  0
  -21.8830   -1.6690  -33.7680 C   0  0  0  0  0  0  0  0  0  0  0  0
  -23.2280   -1.4750  -33.9450 C   0  0  0  0  0  0  0  0  0  0  0  0
  -24.1670   -2.4500  -33.5950 C   0  0  0  0  0  0  0  0  0  0  0  0
  -23.7380   -3.6300  -33.0630 C   0  0  0  0  0  0  0  0  0  0  0  0
  -23.5200   -0.2070  -34.5200 N   0  0  0  0  0  0  0  0  0  0  0  0
  -22.2860    0.4260  -34.7140 C   0  0  0  0  0  0  0  0  0  0  0  0
  -22.2000    1.5880  -35.2340 O   0  0  0  0  0  0  0  0  0  0  0  0
  -21.2000   -0.4420  -34.2400 C   0  0  2  0  0  0  0  0  0  0  0  0
  -20.3250   -0.6980  -35.3490 N   0  0  0  0  0  0  0  0  0  0  0  0
  -19.0730   -0.0490  -35.1130 C   0  0  2  0  0  0  0  0  0  0  0  0
  -19.2680    0.8930  -33.9680 C   0  0  0  0  0  0  0  0  0  0  0  0
  -20.4060    0.2560  -33.2210 C   0  0  2  0  0  0  0  0  0  0  0  0
  -19.9510   -0.5600  -32.0660 C   0  0  0  0  0  0  0  0  0  0  0  0
  -18.9930   -1.3390  -32.2870 O   0  0  0  0  0  0  0  0  0  0  0  0
  -20.5280   -0.4960  -30.7920 N   0  0  0  0  0  0  0  0  0  0  0  0
  -19.9050   -0.5470  -29.5440 C   0  0  0  0  0  0  0  0  0  0  0  0
  -19.7990   -1.7650  -28.8890 C   0  0  0  0  0  0  0  0  0  0  0  0
  -19.1950   -1.8900  -27.6550 C   0  0  0  0  0  0  0  0  0  0  0  0
  -18.6660   -0.8000  -27.0100 C   0  0  0  0  0  0  0  0  0  0  0  0
  -18.7560    0.4130  -27.6290 C   0  0  0  0  0  0  0  0  0  0  0  0
  -19.3680    0.5240  -28.8760 C   0  0  0  0  0  0  0  0  0  0  0  0
  -18.2350    1.5360  -27.0130 O   0  0  0  0  0  0  0  0  0  0  0  0
  -18.4510    2.8470  -27.5030 C   0  0  0  0  0  0  0  0  0  0  0  0
  -20.3080   -2.9110  -29.4750 O   0  0  0  0  0  0  0  0  0  0  0  0
  -20.6430   -4.0680  -28.7720 C   0  0  0  0  0  0  0  0  0  0  0  0
  -18.5620    0.6610  -36.3560 C   0  0  0  0  0  0  0  0  0  0  0  0
  -19.4690    0.4900  -37.5000 C   0  0  0  0  0  0  0  0  0  0  0  0
  -20.3130    1.3600  -37.7660 O   0  0  0  0  0  0  0  0  0  0  0  0
  -19.3780   -0.6660  -38.2960 N   0  0  0  0  0  0  0  0  0  0  0  0
  -20.4290   -3.0530  -33.0780 H   0  0  0  0  0  0  0  0  0  0  0  0
  -25.2380   -2.2770  -33.7440 H   0  0  0  0  0  0  0  0  0  0  0  0
  -24.4740   -4.3870  -32.7920 H   0  0  0  0  0  0  0  0  0  0  0  0
  -24.4710    0.1830  -34.7550 H   0  0  0  0  0  0  0  0  0  0  0  0
  -20.2460   -1.7190  -35.5390 H   0  0  0  0  0  0  0  0  0  0  0  0
  -18.2830   -0.7840  -34.8210 H   0  0  0  0  0  0  0  0  0  0  0  0
  -19.6200    1.9020  -34.3060 H   0  0  0  0  0  0  0  0  0  0  0  0
  -18.3630    0.9970  -33.3300 H   0  0  0  0  0  0  0  0  0  0  0  0
  -21.0600    1.0840  -32.7950 H   0  0  0  0  0  0  0  0  0  0  0  0
  -21.5880   -0.3850  -30.7970 H   0  0  0  0  0  0  0  0  0  0  0  0
  -19.1250   -2.8640  -27.1590 H   0  0  0  0  0  0  0  0  0  0  0  0
  -18.1950   -0.8960  -26.0460 H   0  0  0  0  0  0  0  0  0  0  0  0
  -19.3960    1.5000  -29.2850 H   0  0  0  0  0  0  0  0  0  0  0  0
  -19.5200    3.0440  -27.7080 H   0  0  0  0  0  0  0  0  0  0  0  0
  -17.8460    2.9410  -28.4280 H   0  0  0  0  0  0  0  0  0  0  0  0
  -18.0960    3.6140  -26.7960 H   0  0  0  0  0  0  0  0  0  0  0  0
  -21.5610   -3.8260  -28.1690 H   0  0  0  0  0  0  0  0  0  0  0  0
  -20.9130   -4.8630  -29.4970 H   0  0  0  0  0  0  0  0  0  0  0  0
  -19.8820   -4.3990  -28.0500 H   0  0  0  0  0  0  0  0  0  0  0  0
  -17.5290    0.3210  -36.5880 H   0  0  0  0  0  0  0  0  0  0  0  0
  -18.4820    1.7510  -36.1590 H   0  0  0  0  0  0  0  0  0  0  0  0
  -19.4260   -0.5560  -39.3320 H   0  0  0  0  0  0  0  0  0  0  0  0
  -19.2650   -1.6390  -37.9200 H   0  0  0  0  0  0  0  0  0  0  0  0
  2  1  1  0  0  0  0
  3 33  1  0  0  0  0
  3  2  2  0  0  0  0
  4  3  1  0  0  0  0
  5  4  2  0  0  0  0
  5  6  1  0  0  0  0
  6  7  2  0  0  0  0
  7  2  1  0  0  0  0
  7 35  1  0  0  0  0
  8  5  1  0  0  0  0
  9  8  1  0  0  0  0
 10  9  2  0  0  0  0
 11  9  1  6  0  0  0
 11  4  1  0  0  0  0
 11 15  1  0  0  0  0
 12 13  1  0  0  0  0
 12 11  1  0  0  0  0
 13 38  1  1  0  0  0
 13 14  1  0  0  0  0
 14 40  1  0  0  0  0
 14 15  1  0  0  0  0
 15 41  1  1  0  0  0
 15 16  1  0  0  0  0
 16 18  1  0  0  0  0
 17 16  2  0  0  0  0
 18 19  1  0  0  0  0
 19 20  2  0  0  0  0
 19 24  1  0  0  0  0
 20 21  1  0  0  0  0
 21 43  1  0  0  0  0
 21 22  2  0  0  0  0
 22 44  1  0  0  0  0
 23 25  1  0  0  0  0
 23 22  1  0  0  0  0
 24 23  2  0  0  0  0
 26 25  1  0  0  0  0
 26 48  1  0  0  0  0
 27 20  1  0  0  0  0
 27 28  1  0  0  0  0
 28 49  1  0  0  0  0
 28 51  1  0  0  0  0
 29 53  1  0  0  0  0
 29 13  1  0  0  0  0
 30 29  1  0  0  0  0
 31 30  2  0  0  0  0
 32 55  1  0  0  0  0
 32 30  1  0  0  0  0
 34  6  1  0  0  0  0
 36  8  1  0  0  0  0
 37 12  1  0  0  0  0
 39 14  1  0  0  0  0
 42 18  1  0  0  0  0
 45 24  1  0  0  0  0
 46 26  1  0  0  0  0
 47 26  1  0  0  0  0
 50 28  1  0  0  0  0
 52 29  1  0  0  0  0
 54 32  1  0  0  0  0
M  END
>  <Pose>
1

>  <Score>
-6.96

$$$$
