
 OpenBabel03222201593D

 47 50  0  0  0  0  0  0  0  0999 V2000
  -20.7860   -3.0920  -31.5270 B   0  0  0  0  0  0  0  0  0  0  0  0
  -19.9580   -2.5470  -29.8910 C   0  0  0  0  0  0  0  0  0  0  0  0
  -19.3140   -1.4070  -29.6520 N   0  0  0  0  0  0  0  0  0  0  0  0
  -18.9500   -1.4530  -28.3410 C   0  0  0  0  0  0  0  0  0  0  0  0
  -19.3950   -2.6510  -27.8260 C   0  0  0  0  0  0  0  0  0  0  0  0
  -20.0160   -3.3240  -28.7850 N   0  0  0  0  0  0  0  0  0  0  0  0
  -19.1550   -2.9370  -26.5160 N   0  0  0  0  0  0  0  0  0  0  0  0
  -18.4990   -2.0490  -25.7710 C   0  0  0  0  0  0  0  0  0  0  0  0
  -18.2910   -2.3420  -24.5580 O   0  0  0  0  0  0  0  0  0  0  0  0
  -18.0620   -0.8790  -26.2630 N   0  0  0  0  0  0  0  0  0  0  0  0
  -18.2700   -0.5350  -27.5660 C   0  0  0  0  0  0  0  0  0  0  0  0
  -17.8580    0.5640  -28.0160 O   0  0  0  0  0  0  0  0  0  0  0  0
  -19.6060   -4.1850  -25.9370 C   0  0  0  0  0  0  0  0  0  0  0  0
  -18.9880   -0.3130  -30.5040 C   0  0  0  0  0  0  0  0  0  0  0  0
  -19.3070   -0.4210  -31.9370 C   0  0  0  0  0  0  0  0  0  0  0  0
  -20.4930   -0.9010  -32.3850 O   0  0  0  0  0  0  0  0  0  0  0  0
  -20.7230   -0.5370  -33.7010 C   0  0  0  0  0  0  0  0  0  0  0  0
  -22.1820   -0.2380  -33.8800 C   0  0  0  0  0  0  0  0  0  0  0  0
  -22.5070    0.0600  -35.2390 N   0  0  0  0  0  0  0  0  0  0  0  0
  -22.7920   -0.8360  -36.1930 C   0  0  0  0  0  0  0  0  0  0  0  0
  -23.0380   -0.1550  -37.3440 C   0  0  0  0  0  0  0  0  0  0  0  0
  -22.8960    1.1380  -37.0640 N   0  0  0  0  0  0  0  0  0  0  0  0
  -22.5680    1.3110  -35.7730 C   0  0  0  0  0  0  0  0  0  0  0  0
  -22.2420    2.9170  -34.8140 B   0  0  0  0  0  0  0  0  0  0  0  0
  -23.3550   -0.8220  -38.4670 N   0  0  0  0  0  0  0  0  0  0  0  0
  -23.4250   -2.1500  -38.4330 C   0  0  0  0  0  0  0  0  0  0  0  0
  -23.7230   -2.7620  -39.4930 O   0  0  0  0  0  0  0  0  0  0  0  0
  -23.1890   -2.8340  -37.3200 N   0  0  0  0  0  0  0  0  0  0  0  0
  -22.8700   -2.2150  -36.1810 C   0  0  0  0  0  0  0  0  0  0  0  0
  -22.6520   -2.9070  -35.1350 O   0  0  0  0  0  0  0  0  0  0  0  0
  -23.6200   -0.1130  -39.7020 C   0  0  0  0  0  0  0  0  0  0  0  0
  -17.5500   -0.1930  -25.6680 H   0  0  0  0  0  0  0  0  0  0  0  0
  -20.5950   -4.4700  -26.3640 H   0  0  0  0  0  0  0  0  0  0  0  0
  -19.7230   -4.1070  -24.8500 H   0  0  0  0  0  0  0  0  0  0  0  0
  -18.8630   -5.0000  -26.1310 H   0  0  0  0  0  0  0  0  0  0  0  0
  -19.5800    0.5680  -30.1000 H   0  0  0  0  0  0  0  0  0  0  0  0
  -17.9210    0.0460  -30.3310 H   0  0  0  0  0  0  0  0  0  0  0  0
  -19.2070    0.6150  -32.4410 H   0  0  0  0  0  0  0  0  0  0  0  0
  -18.4380   -0.9540  -32.4810 H   0  0  0  0  0  0  0  0  0  0  0  0
  -20.4740   -1.4440  -34.3490 H   0  0  0  0  0  0  0  0  0  0  0  0
  -20.0310    0.2350  -33.9940 H   0  0  0  0  0  0  0  0  0  0  0  0
  -22.7440   -1.1350  -33.4950 H   0  0  0  0  0  0  0  0  0  0  0  0
  -22.4100    0.6160  -33.1980 H   0  0  0  0  0  0  0  0  0  0  0  0
  -23.2480   -3.8750  -37.3140 H   0  0  0  0  0  0  0  0  0  0  0  0
  -24.7030    0.0700  -39.7700 H   0  0  0  0  0  0  0  0  0  0  0  0
  -23.0590    0.8380  -39.7200 H   0  0  0  0  0  0  0  0  0  0  0  0
  -23.2430   -0.7800  -40.5250 H   0  0  0  0  0  0  0  0  0  0  0  0
  1  2  1  0  0  0  0
  2  3  1  0  0  0  0
  2  6  2  0  0  0  0
  3  4  1  0  0  0  0
  4  5  2  0  0  0  0
  4 11  1  0  0  0  0
  5  7  1  0  0  0  0
  6  5  1  0  0  0  0
  7 13  1  0  0  0  0
  7  8  1  0  0  0  0
  8  9  2  0  0  0  0
 10  8  1  0  0  0  0
 10 32  1  0  0  0  0
 11 10  1  0  0  0  0
 12 11  2  0  0  0  0
 13 34  1  0  0  0  0
 14 37  1  0  0  0  0
 14 36  1  0  0  0  0
 14  3  1  0  0  0  0
 15 14  1  0  0  0  0
 16 15  1  0  0  0  0
 17 16  1  0  0  0  0
 18 17  1  0  0  0  0
 18 42  1  0  0  0  0
 18 43  1  0  0  0  0
 19 18  1  0  0  0  0
 20 29  1  0  0  0  0
 20 19  1  0  0  0  0
 21 22  1  0  0  0  0
 21 20  2  0  0  0  0
 22 23  2  0  0  0  0
 23 19  1  0  0  0  0
 23 24  1  0  0  0  0
 25 26  1  0  0  0  0
 25 21  1  0  0  0  0
 26 28  1  0  0  0  0
 27 26  2  0  0  0  0
 28 44  1  0  0  0  0
 28 29  1  0  0  0  0
 29 30  2  0  0  0  0
 31 25  1  0  0  0  0
 33 13  1  0  0  0  0
 35 13  1  0  0  0  0
 38 15  1  0  0  0  0
 39 15  1  0  0  0  0
 40 17  1  0  0  0  0
 41 17  1  0  0  0  0
 45 31  1  0  0  0  0
 46 31  1  0  0  0  0
 47 31  1  0  0  0  0
M  END
>  <Pose>
1

>  <Score>
-8.33

$$$$
