
 OpenBabel03222201593D

 51 54  0  0  0  0  0  0  0  0999 V2000
  -22.9120   -2.0680  -38.3430 Cl  0  0  0  0  0  0  0  0  0  0  0  0
  -23.1120   -0.3570  -38.6470 C   0  0  0  0  0  0  0  0  0  0  0  0
  -22.0150    0.4330  -38.8220 C   0  0  0  0  0  0  0  0  0  0  0  0
  -22.2320    1.7730  -39.0580 C   0  0  0  0  0  0  0  0  0  0  0  0
  -23.4910    2.3110  -39.1200 C   0  0  0  0  0  0  0  0  0  0  0  0
  -24.5930    1.5020  -38.9420 C   0  0  0  0  0  0  0  0  0  0  0  0
  -24.3850    0.1620  -38.7050 C   0  0  0  0  0  0  0  0  0  0  0  0
  -20.6280   -0.0640  -38.7720 C   0  0  0  0  0  0  0  0  0  0  0  0
  -19.8690    0.4210  -37.6730 N   0  0  0  0  0  0  0  0  0  0  0  0
  -18.9510    1.3790  -37.7050 N   0  0  0  0  0  0  0  0  0  0  0  0
  -18.4280    1.5870  -36.5090 C   0  0  0  0  0  0  0  0  0  0  0  0
  -19.0670    0.6860  -35.6450 C   0  0  0  0  0  0  0  0  0  0  0  0
  -19.9680   -0.0400  -36.3900 C   0  0  0  0  0  0  0  0  0  0  0  0
  -20.8510   -1.0040  -35.9180 N   0  0  0  0  0  0  0  0  0  0  0  0
  -21.5830   -1.2510  -34.8010 C   0  0  0  0  0  0  0  0  0  0  0  0
  -22.8690   -0.8310  -35.0440 O   0  0  0  0  0  0  0  0  0  0  0  0
  -21.4870   -1.7990  -33.4570 C   0  0  0  0  0  0  0  0  0  0  0  0
  -20.4600   -1.5650  -32.5360 N   0  0  0  0  0  0  0  0  0  0  0  0
  -19.3080   -0.6680  -32.8210 C   0  0  0  0  0  0  0  0  0  0  0  0
  -18.3000   -0.9880  -31.7380 C   0  0  0  0  0  0  0  0  0  0  0  0
  -18.8850   -0.6000  -30.4050 C   0  0  0  0  0  0  0  0  0  0  0  0
  -20.0340   -1.5280  -30.0720 C   0  0  0  0  0  0  0  0  0  0  0  0
  -20.4500   -2.2790  -31.2920 C   0  0  0  0  0  0  0  0  0  0  0  0
  -20.7000   -3.5890  -31.2220 C   0  0  0  0  0  0  0  0  0  0  0  0
  -20.6970   -4.2840  -29.9630 N   0  0  0  0  0  0  0  0  0  0  0  0
  -20.9250   -5.6540  -30.1880 N   0  0  0  0  0  0  0  0  0  0  0  0
  -21.0750   -5.8490  -31.5760 C   0  0  0  0  0  0  0  0  0  0  0  0
  -21.2920   -6.9050  -32.2130 O   0  0  0  0  0  0  0  0  0  0  0  0
  -20.9310   -4.5580  -32.1930 N   0  0  0  0  0  0  0  0  0  0  0  0
  -21.3910    2.4330  -39.2020 H   0  0  0  0  0  0  0  0  0  0  0  0
  -23.6330    3.3640  -39.3070 H   0  0  0  0  0  0  0  0  0  0  0  0
  -25.5860    1.9320  -38.9920 H   0  0  0  0  0  0  0  0  0  0  0  0
  -25.2460   -0.4670  -38.5660 H   0  0  0  0  0  0  0  0  0  0  0  0
  -20.1420    0.0760  -39.7710 H   0  0  0  0  0  0  0  0  0  0  0  0
  -20.7140   -1.1890  -38.6810 H   0  0  0  0  0  0  0  0  0  0  0  0
  -17.6620    2.2870  -36.1830 H   0  0  0  0  0  0  0  0  0  0  0  0
  -18.8610    0.6230  -34.5960 H   0  0  0  0  0  0  0  0  0  0  0  0
  -21.0680   -1.7470  -36.7340 H   0  0  0  0  0  0  0  0  0  0  0  0
  -22.4870   -1.3980  -32.9990 H   0  0  0  0  0  0  0  0  0  0  0  0
  -21.6660   -2.9510  -33.5050 H   0  0  0  0  0  0  0  0  0  0  0  0
  -18.8180   -1.0120  -33.7630 H   0  0  0  0  0  0  0  0  0  0  0  0
  -19.5330    0.3760  -32.7890 H   0  0  0  0  0  0  0  0  0  0  0  0
  -17.3620   -0.3850  -31.9160 H   0  0  0  0  0  0  0  0  0  0  0  0
  -18.0170   -2.0600  -31.7370 H   0  0  0  0  0  0  0  0  0  0  0  0
  -18.1030   -0.6670  -29.6080 H   0  0  0  0  0  0  0  0  0  0  0  0
  -19.2140    0.4490  -30.4630 H   0  0  0  0  0  0  0  0  0  0  0  0
  -19.7630   -2.2030  -29.2280 H   0  0  0  0  0  0  0  0  0  0  0  0
  -20.8820   -0.9360  -29.7180 H   0  0  0  0  0  0  0  0  0  0  0  0
  -20.5650   -3.9450  -28.9910 H   0  0  0  0  0  0  0  0  0  0  0  0
  -20.9810   -6.4230  -29.4750 H   0  0  0  0  0  0  0  0  0  0  0  0
  -20.9710   -4.3980  -33.2130 H   0  0  0  0  0  0  0  0  0  0  0  0
  2  1  1  0  0  0  0
  3  8  1  0  0  0  0
  3  2  2  0  0  0  0
  4  3  1  0  0  0  0
  5  4  2  0  0  0  0
  5  6  1  0  0  0  0
  6  7  2  0  0  0  0
  7  2  1  0  0  0  0
  7 33  1  0  0  0  0
  8 35  1  0  0  0  0
  8  9  1  0  0  0  0
  9 13  1  0  0  0  0
 10  9  1  0  0  0  0
 10 11  2  0  0  0  0
 11 36  1  0  0  0  0
 11 12  1  0  0  0  0
 12 37  1  0  0  0  0
 13 14  1  0  0  0  0
 13 12  2  0  0  0  0
 14 15  1  0  0  0  0
 15 17  1  0  0  0  0
 16 15  2  0  0  0  0
 17 39  1  0  0  0  0
 17 18  1  0  0  0  0
 18 23  1  0  0  0  0
 19 42  1  0  0  0  0
 19 18  1  0  0  0  0
 19 20  1  0  0  0  0
 20 44  1  0  0  0  0
 20 21  1  0  0  0  0
 21 22  1  0  0  0  0
 21 45  1  0  0  0  0
 22 48  1  0  0  0  0
 22 47  1  0  0  0  0
 23 24  2  0  0  0  0
 23 22  1  0  0  0  0
 24 25  1  0  0  0  0
 25 49  1  0  0  0  0
 26 25  1  0  0  0  0
 26 50  1  0  0  0  0
 27 26  1  0  0  0  0
 28 27  2  0  0  0  0
 29 27  1  0  0  0  0
 29 24  1  0  0  0  0
 30  4  1  0  0  0  0
 31  5  1  0  0  0  0
 32  6  1  0  0  0  0
 34  8  1  0  0  0  0
 38 14  1  0  0  0  0
 40 17  1  0  0  0  0
 41 19  1  0  0  0  0
 43 20  1  0  0  0  0
 46 21  1  0  0  0  0
 51 29  1  0  0  0  0
M  END
>  <Pose>
1

>  <Score>
-7.66

$$$$
