
 OpenBabel03222201593D

 50 53  0  0  0  0  0  0  0  0999 V2000
  -24.0740    0.0500  -38.4890 B   0  0  0  0  0  0  0  0  0  0  0  0
  -22.6960    0.6090  -37.3150 C   0  0  0  0  0  0  0  0  0  0  0  0
  -22.3760    1.9320  -37.2190 C   0  0  0  0  0  0  0  0  0  0  0  0
  -21.3580    2.3110  -36.3490 C   0  0  0  0  0  0  0  0  0  0  0  0
  -20.6940    1.3430  -35.6020 C   0  0  0  0  0  0  0  0  0  0  0  0
  -21.0090    0.0130  -35.6930 C   0  0  0  0  0  0  0  0  0  0  0  0
  -22.0180   -0.3480  -36.5580 C   0  0  0  0  0  0  0  0  0  0  0  0
  -22.3290   -1.6960  -36.6420 O   0  0  0  0  0  0  0  0  0  0  0  0
  -20.3020   -0.9840  -34.9050 C   0  0  0  0  0  0  0  0  0  0  0  0
  -20.6380   -1.3140  -33.7080 N   0  0  0  0  0  0  0  0  0  0  0  0
  -19.8730   -2.3130  -33.0160 N   0  0  0  0  0  0  0  0  0  0  0  0
  -20.5790   -3.2520  -32.2760 C   0  0  0  0  0  0  0  0  0  0  0  0
  -21.5190   -3.8810  -32.8920 O   0  0  0  0  0  0  0  0  0  0  0  0
  -20.4100   -3.6330  -30.8870 C   0  0  0  0  0  0  0  0  0  0  0  0
  -20.3880   -4.9230  -30.4170 N   0  0  0  0  0  0  0  0  0  0  0  0
  -20.2150   -4.9100  -29.1250 N   0  0  0  0  0  0  0  0  0  0  0  0
  -20.1170   -3.6750  -28.6630 N   0  0  0  0  0  0  0  0  0  0  0  0
  -20.2320   -2.8670  -29.7300 C   0  0  0  0  0  0  0  0  0  0  0  0
  -20.2220   -1.4010  -29.7290 C   0  0  0  0  0  0  0  0  0  0  0  0
  -19.0670   -0.8060  -30.4060 N   0  0  0  0  0  0  0  0  0  0  0  0
  -18.0870   -0.3910  -29.3830 C   0  0  0  0  0  0  0  0  0  0  0  0
  -18.7790    0.3510  -28.2930 C   0  0  0  0  0  0  0  0  0  0  0  0
  -19.5010    1.3890  -28.8280 O   0  0  0  0  0  0  0  0  0  0  0  0
  -19.2610    1.6210  -30.1570 C   0  0  0  0  0  0  0  0  0  0  0  0
  -19.5160    0.4450  -31.0630 C   0  0  0  0  0  0  0  0  0  0  0  0
  -19.9580   -3.3520  -27.2930 C   0  0  0  0  0  0  0  0  0  0  0  0
  -20.3000   -2.2250  -26.6320 N   0  0  0  0  0  0  0  0  0  0  0  0
  -19.9870   -2.3400  -25.3690 O   0  0  0  0  0  0  0  0  0  0  0  0
  -19.4420   -3.5070  -25.1380 N   0  0  0  0  0  0  0  0  0  0  0  0
  -19.4080   -4.1620  -26.3110 C   0  0  0  0  0  0  0  0  0  0  0  0
  -18.8900   -5.4650  -26.4780 N   0  0  0  0  0  0  0  0  0  0  0  0
  -20.8890    4.1410  -36.1910 B   0  0  0  0  0  0  0  0  0  0  0  0
  -23.0260    2.9130  -37.9530 O   0  0  0  0  0  0  0  0  0  0  0  0
  -19.9110    1.6350  -34.9330 H   0  0  0  0  0  0  0  0  0  0  0  0
  -21.8380   -2.2920  -37.2970 H   0  0  0  0  0  0  0  0  0  0  0  0
  -19.4400   -1.4900  -35.3320 H   0  0  0  0  0  0  0  0  0  0  0  0
  -18.8330   -2.2450  -33.1300 H   0  0  0  0  0  0  0  0  0  0  0  0
  -20.2270   -0.9940  -28.7160 H   0  0  0  0  0  0  0  0  0  0  0  0
  -21.0940   -1.0270  -30.2830 H   0  0  0  0  0  0  0  0  0  0  0  0
  -17.5100   -1.2550  -29.0190 H   0  0  0  0  0  0  0  0  0  0  0  0
  -17.3850    0.2900  -29.8970 H   0  0  0  0  0  0  0  0  0  0  0  0
  -19.4450   -0.2800  -27.6820 H   0  0  0  0  0  0  0  0  0  0  0  0
  -17.9890    0.8230  -27.6380 H   0  0  0  0  0  0  0  0  0  0  0  0
  -20.0030    2.4150  -30.4720 H   0  0  0  0  0  0  0  0  0  0  0  0
  -18.2570    2.0700  -30.3080 H   0  0  0  0  0  0  0  0  0  0  0  0
  -18.8830    0.5870  -31.9490 H   0  0  0  0  0  0  0  0  0  0  0  0
  -20.5670    0.4180  -31.3320 H   0  0  0  0  0  0  0  0  0  0  0  0
  -19.1310   -6.1930  -25.7810 H   0  0  0  0  0  0  0  0  0  0  0  0
  -18.2770   -5.7240  -27.2720 H   0  0  0  0  0  0  0  0  0  0  0  0
  -22.8050    3.0670  -38.9240 H   0  0  0  0  0  0  0  0  0  0  0  0
  1  2  1  0  0  0  0
  2  3  2  0  0  0  0
  2  7  1  0  0  0  0
  3  4  1  0  0  0  0
  4 32  1  0  0  0  0
  4  5  2  0  0  0  0
  5 34  1  0  0  0  0
  6  5  1  0  0  0  0
  6  9  1  0  0  0  0
  7  6  2  0  0  0  0
  8  7  1  0  0  0  0
  9 10  2  0  0  0  0
 10 11  1  0  0  0  0
 11 12  1  0  0  0  0
 12 14  1  0  0  0  0
 13 12  2  0  0  0  0
 14 15  1  0  0  0  0
 14 18  2  0  0  0  0
 15 16  2  0  0  0  0
 16 17  1  0  0  0  0
 17 26  1  0  0  0  0
 18 19  1  0  0  0  0
 18 17  1  0  0  0  0
 19 38  1  0  0  0  0
 20 19  1  0  0  0  0
 20 21  1  0  0  0  0
 21 40  1  0  0  0  0
 21 22  1  0  0  0  0
 22 42  1  0  0  0  0
 22 43  1  0  0  0  0
 23 22  1  0  0  0  0
 24 23  1  0  0  0  0
 25 20  1  0  0  0  0
 25 24  1  0  0  0  0
 26 27  2  0  0  0  0
 26 30  1  0  0  0  0
 27 28  1  0  0  0  0
 28 29  1  0  0  0  0
 30 29  2  0  0  0  0
 31 30  1  0  0  0  0
 31 48  1  0  0  0  0
 33  3  1  0  0  0  0
 35  8  1  0  0  0  0
 36  9  1  0  0  0  0
 37 11  1  0  0  0  0
 39 19  1  0  0  0  0
 41 21  1  0  0  0  0
 44 24  1  0  0  0  0
 45 24  1  0  0  0  0
 46 25  1  0  0  0  0
 47 25  1  0  0  0  0
 49 31  1  0  0  0  0
 50 33  1  0  0  0  0
M  END
>  <Pose>
1

>  <Score>
-8.97

$$$$
