
 OpenBabel03222201593D

 54 57  0  0  0  0  0  0  0  0999 V2000
  -17.5600    1.5440  -23.1890 Cl  0  0  0  0  0  0  0  0  0  0  0  0
  -16.4310    2.9020  -23.1690 C   0  0  0  0  0  0  0  0  0  0  0  0
  -15.9680    3.4150  -24.3610 C   0  0  0  0  0  0  0  0  0  0  0  0
  -15.0940    4.4670  -24.3160 C   0  0  0  0  0  0  0  0  0  0  0  0
  -14.6620    5.0330  -23.1260 C   0  0  0  0  0  0  0  0  0  0  0  0
  -15.1550    4.4830  -21.9370 C   0  0  0  0  0  0  0  0  0  0  0  0
  -16.0330    3.4280  -21.9580 C   0  0  0  0  0  0  0  0  0  0  0  0
  -16.3670    2.8880  -25.6040 N   0  0  0  0  0  0  0  0  0  0  0  0
  -17.6300    3.2400  -26.1990 C   0  0  0  0  0  0  0  0  0  0  0  0
  -18.4040    2.0470  -26.7020 C   0  0  0  0  0  0  0  0  0  0  0  0
  -17.5060    0.9260  -26.7710 N   0  0  0  0  0  0  0  0  0  0  0  0
  -16.1930    1.1560  -27.3180 C   0  0  0  0  0  0  0  0  0  0  0  0
  -15.4300    1.9650  -26.2600 C   0  0  0  0  0  0  0  0  0  0  0  0
  -17.8450   -0.3740  -26.3360 C   0  0  0  0  0  0  0  0  0  0  0  0
  -17.5270   -0.7840  -25.1820 O   0  0  0  0  0  0  0  0  0  0  0  0
  -18.5720   -1.3090  -27.1800 C   0  0  0  0  0  0  0  0  0  0  0  0
  -18.8810   -0.9870  -28.4730 C   0  0  0  0  0  0  0  0  0  0  0  0
  -19.5610   -1.8100  -29.3300 N   0  0  0  0  0  0  0  0  0  0  0  0
  -19.9410   -2.9950  -28.8630 C   0  0  0  0  0  0  0  0  0  0  0  0
  -19.6790   -3.4060  -27.5830 C   0  0  0  0  0  0  0  0  0  0  0  0
  -18.9570   -2.5210  -26.6880 C   0  0  0  0  0  0  0  0  0  0  0  0
  -18.8490   -3.1810  -25.5190 N   0  0  0  0  0  0  0  0  0  0  0  0
  -19.4280   -4.3660  -25.6140 N   0  0  0  0  0  0  0  0  0  0  0  0
  -19.9410   -4.5430  -26.8390 C   0  0  0  0  0  0  0  0  0  0  0  0
  -20.5670   -5.5400  -27.3130 O   0  0  0  0  0  0  0  0  0  0  0  0
  -19.8030   -1.3820  -30.6990 C   0  0  0  0  0  0  0  0  0  0  0  0
  -18.6200   -1.2410  -31.5490 C   0  0  0  0  0  0  0  0  0  0  0  0
  -18.6180   -0.5920  -32.8610 C   0  0  0  0  0  0  0  0  0  0  0  0
  -17.8630    0.4870  -33.1240 O   0  0  0  0  0  0  0  0  0  0  0  0
  -18.2740    1.5170  -33.8670 C   0  0  0  0  0  0  0  0  0  0  0  0
  -14.7250    4.8770  -25.2370 H   0  0  0  0  0  0  0  0  0  0  0  0
  -13.9780    5.8540  -23.1230 H   0  0  0  0  0  0  0  0  0  0  0  0
  -14.8030    4.9410  -21.0250 H   0  0  0  0  0  0  0  0  0  0  0  0
  -16.3940    3.0280  -21.0400 H   0  0  0  0  0  0  0  0  0  0  0  0
  -17.5280    3.9860  -27.0140 H   0  0  0  0  0  0  0  0  0  0  0  0
  -18.2560    3.7200  -25.4170 H   0  0  0  0  0  0  0  0  0  0  0  0
  -19.3040    1.8400  -26.0930 H   0  0  0  0  0  0  0  0  0  0  0  0
  -18.7650    2.2480  -27.7490 H   0  0  0  0  0  0  0  0  0  0  0  0
  -16.2320    1.8410  -28.2130 H   0  0  0  0  0  0  0  0  0  0  0  0
  -15.6620    0.2280  -27.5670 H   0  0  0  0  0  0  0  0  0  0  0  0
  -14.5760    2.5010  -26.6930 H   0  0  0  0  0  0  0  0  0  0  0  0
  -15.1050    1.2440  -25.4810 H   0  0  0  0  0  0  0  0  0  0  0  0
  -18.5910   -0.0200  -28.9170 H   0  0  0  0  0  0  0  0  0  0  0  0
  -20.4630   -3.7160  -29.4850 H   0  0  0  0  0  0  0  0  0  0  0  0
  -19.5080   -5.1100  -24.8660 H   0  0  0  0  0  0  0  0  0  0  0  0
  -20.5440   -0.5530  -30.7630 H   0  0  0  0  0  0  0  0  0  0  0  0
  -20.4020   -2.2580  -31.1390 H   0  0  0  0  0  0  0  0  0  0  0  0
  -17.7500   -0.8380  -30.9160 H   0  0  0  0  0  0  0  0  0  0  0  0
  -18.2330   -2.3120  -31.7310 H   0  0  0  0  0  0  0  0  0  0  0  0
  -18.5460   -1.3600  -33.7110 H   0  0  0  0  0  0  0  0  0  0  0  0
  -19.7100   -0.2460  -33.0280 H   0  0  0  0  0  0  0  0  0  0  0  0
  -19.1710    2.0280  -33.4260 H   0  0  0  0  0  0  0  0  0  0  0  0
  -18.4890    1.3510  -34.9260 H   0  0  0  0  0  0  0  0  0  0  0  0
  -17.4850    2.3510  -33.7890 H   0  0  0  0  0  0  0  0  0  0  0  0
  1  2  1  0  0  0  0
  2  7  1  0  0  0  0
  3  4  1  0  0  0  0
  3  2  2  0  0  0  0
  4  5  2  0  0  0  0
  5 32  1  0  0  0  0
  5  6  1  0  0  0  0
  6 33  1  0  0  0  0
  7  6  2  0  0  0  0
  7 34  1  0  0  0  0
  8  3  1  0  0  0  0
  9  8  1  0  0  0  0
  9 36  1  0  0  0  0
 10  9  1  0  0  0  0
 10 37  1  0  0  0  0
 11 10  1  0  0  0  0
 11 14  1  0  0  0  0
 12 11  1  0  0  0  0
 12 13  1  0  0  0  0
 13  8  1  0  0  0  0
 13 42  1  0  0  0  0
 14 15  2  0  0  0  0
 16 21  2  0  0  0  0
 16 14  1  0  0  0  0
 17 16  1  0  0  0  0
 18 19  1  0  0  0  0
 18 17  1  0  0  0  0
 19 20  2  0  0  0  0
 20 24  1  0  0  0  0
 20 21  1  0  0  0  0
 21 22  1  0  0  0  0
 23 22  1  0  0  0  0
 23 45  1  0  0  0  0
 24 23  1  0  0  0  0
 25 24  2  0  0  0  0
 26 18  1  0  0  0  0
 27 48  1  0  0  0  0
 27 26  1  0  0  0  0
 28 27  1  0  0  0  0
 29 28  1  0  0  0  0
 30 54  1  0  0  0  0
 30 52  1  0  0  0  0
 30 29  1  0  0  0  0
 31  4  1  0  0  0  0
 35  9  1  0  0  0  0
 38 10  1  0  0  0  0
 39 12  1  0  0  0  0
 40 12  1  0  0  0  0
 41 13  1  0  0  0  0
 43 17  1  0  0  0  0
 44 19  1  0  0  0  0
 46 26  1  0  0  0  0
 47 26  1  0  0  0  0
 49 27  1  0  0  0  0
 50 28  1  0  0  0  0
 51 28  1  0  0  0  0
 53 30  1  0  0  0  0
M  END
>  <Pose>
1

>  <Score>
-6.73

$$$$
