
 OpenBabel03222201593D

 59 63  0  0  1  0  0  0  0  0999 V2000
  -24.2270    0.3390  -34.7010 B   0  0  0  0  0  0  0  0  0  0  0  0
  -22.7810   -0.6650  -33.9930 C   0  0  0  0  0  0  0  0  0  0  0  0
  -21.6890   -0.0330  -33.4410 C   0  0  0  0  0  0  0  0  0  0  0  0
  -20.6180   -0.7700  -32.9200 C   0  0  0  0  0  0  0  0  0  0  0  0
  -20.7550   -2.1380  -33.0070 C   0  0  0  0  0  0  0  0  0  0  0  0
  -21.8180   -2.8050  -33.5430 C   0  0  0  0  0  0  0  0  0  0  0  0
  -22.8560   -2.0430  -34.0490 C   0  0  0  0  0  0  0  0  0  0  0  0
  -19.4490   -0.0950  -32.3930 C   0  0  2  0  0  0  0  0  0  0  0  0
  -18.2850    0.1150  -33.1360 N   0  0  0  0  0  0  0  0  0  0  0  0
  -17.1960   -0.5430  -32.4190 C   0  0  0  0  0  0  0  0  0  0  0  0
  -16.0130   -0.7130  -32.8090 O   0  0  0  0  0  0  0  0  0  0  0  0
  -17.6710   -1.0020  -31.1240 C   0  0  0  0  0  0  0  0  0  0  0  0
  -16.9870   -1.6230  -30.2430 O   0  0  0  0  0  0  0  0  0  0  0  0
  -19.0560   -0.6210  -31.0450 C   0  0  0  0  0  0  0  0  0  0  0  0
  -19.8290   -0.7630  -29.9890 C   0  0  0  0  0  0  0  0  0  0  0  0
  -21.1780   -0.3770  -30.1750 O   0  0  0  0  0  0  0  0  0  0  0  0
  -19.4250   -1.2630  -28.6880 C   0  0  0  0  0  0  0  0  0  0  0  0
  -19.5730   -2.4510  -28.0830 N   0  0  0  0  0  0  0  0  0  0  0  0
  -19.0770   -2.4620  -26.8360 C   0  0  0  0  0  0  0  0  0  0  0  0
  -18.5840   -1.2210  -26.6250 N   0  0  0  0  0  0  0  0  0  0  0  0
  -18.7750   -0.4730  -27.7150 C   0  0  0  0  0  0  0  0  0  0  0  0
  -18.3860    0.9320  -27.9000 C   0  0  0  0  0  0  0  0  0  0  0  0
  -19.1080   -3.5890  -26.0370 C   0  0  0  0  0  0  0  0  0  0  0  0
  -19.6670   -4.7360  -26.5320 C   0  0  0  0  0  0  0  0  0  0  0  0
  -20.1770   -4.7260  -27.8160 C   0  0  0  0  0  0  0  0  0  0  0  0
  -20.1300   -3.5870  -28.5860 C   0  0  0  0  0  0  0  0  0  0  0  0
  -18.0890    0.8930  -34.3040 C   0  0  0  0  0  0  0  0  0  0  0  0
  -18.7140    2.2040  -34.4640 C   0  0  0  0  0  0  0  0  0  0  0  0
  -17.9340    3.4040  -34.3880 N   0  0  0  0  0  4  0  0  0  0  0  0
  -18.2190    4.1670  -35.6030 C   0  0  0  0  0  0  0  0  0  0  0  0
  -19.3860    5.0890  -35.4490 C   0  0  0  0  0  0  0  0  0  0  0  0
  -20.1010    4.8040  -34.2760 O   0  0  0  0  0  0  0  0  0  0  0  0
  -19.2430    5.1050  -33.2420 C   0  0  0  0  0  0  0  0  0  0  0  0
  -18.1210    4.1360  -33.1810 C   0  0  0  0  0  0  0  0  0  0  0  0
  -21.5990    1.0350  -33.3810 H   0  0  0  0  0  0  0  0  0  0  0  0
  -19.9360   -2.7410  -32.6090 H   0  0  0  0  0  0  0  0  0  0  0  0
  -21.8850   -3.8890  -33.5940 H   0  0  0  0  0  0  0  0  0  0  0  0
  -23.7000   -2.5770  -34.4760 H   0  0  0  0  0  0  0  0  0  0  0  0
  -19.8320    1.0000  -32.1840 H   0  0  0  0  0  0  0  0  0  0  0  0
  -18.0260    1.1710  -28.9260 H   0  0  0  0  0  0  0  0  0  0  0  0
  -19.2500    1.5720  -27.6040 H   0  0  0  0  0  0  0  0  0  0  0  0
  -17.5550    1.1720  -27.2010 H   0  0  0  0  0  0  0  0  0  0  0  0
  -18.7120   -3.5960  -25.0390 H   0  0  0  0  0  0  0  0  0  0  0  0
  -19.7310   -5.6640  -25.9710 H   0  0  0  0  0  0  0  0  0  0  0  0
  -20.6330   -5.6180  -28.2520 H   0  0  0  0  0  0  0  0  0  0  0  0
  -20.5300   -3.5690  -29.6100 H   0  0  0  0  0  0  0  0  0  0  0  0
  -18.4180    0.2450  -35.1780 H   0  0  0  0  0  0  0  0  0  0  0  0
  -16.9850    1.0030  -34.4920 H   0  0  0  0  0  0  0  0  0  0  0  0
  -19.1700    2.1980  -35.5080 H   0  0  0  0  0  0  0  0  0  0  0  0
  -19.6460    2.3290  -33.8320 H   0  0  0  0  0  0  0  0  0  0  0  0
  -16.8940    3.2020  -34.4830 H   0  0  0  0  0  0  0  0  0  0  0  0
  -17.3280    4.7660  -35.8460 H   0  0  0  0  0  0  0  0  0  0  0  0
  -18.3880    3.4750  -36.4660 H   0  0  0  0  0  0  0  0  0  0  0  0
  -19.0440    6.1560  -35.3900 H   0  0  0  0  0  0  0  0  0  0  0  0
  -20.0810    4.9340  -36.3000 H   0  0  0  0  0  0  0  0  0  0  0  0
  -19.8790    5.0260  -32.3030 H   0  0  0  0  0  0  0  0  0  0  0  0
  -18.8850    6.1720  -33.3340 H   0  0  0  0  0  0  0  0  0  0  0  0
  -18.2900    3.4690  -32.2970 H   0  0  0  0  0  0  0  0  0  0  0  0
  -17.1820    4.7420  -32.9990 H   0  0  0  0  0  0  0  0  0  0  0  0
  1  2  1  0  0  0  0
  2  3  1  0  0  0  0
  3 35  1  0  0  0  0
  3  4  2  0  0  0  0
  4  8  1  0  0  0  0
  5  4  1  0  0  0  0
  5 36  1  0  0  0  0
  6  5  2  0  0  0  0
  7  2  2  0  0  0  0
  7  6  1  0  0  0  0
  8 39  1  1  0  0  0
  8 14  1  0  0  0  0
  9 10  1  0  0  0  0
  9  8  1  0  0  0  0
 10 12  1  0  0  0  0
 11 10  2  0  0  0  0
 12 14  1  0  0  0  0
 12 13  2  0  0  0  0
 14 15  2  0  0  0  0
 15 17  1  0  0  0  0
 16 15  1  0  0  0  0
 17 18  1  0  0  0  0
 17 21  2  0  0  0  0
 18 19  1  0  0  0  0
 19 20  2  0  0  0  0
 19 23  1  0  0  0  0
 21 20  1  0  0  0  0
 22 21  1  0  0  0  0
 22 41  1  0  0  0  0
 22 42  1  0  0  0  0
 23 43  1  0  0  0  0
 24 23  2  0  0  0  0
 24 44  1  0  0  0  0
 25 24  1  0  0  0  0
 26 18  1  0  0  0  0
 26 25  2  0  0  0  0
 27  9  1  0  0  0  0
 28 29  1  0  0  0  0
 28 27  1  0  0  0  0
 28 50  1  0  0  0  0
 29 34  1  0  0  0  0
 30 31  1  0  0  0  0
 30 29  1  0  0  0  0
 31 54  1  0  0  0  0
 31 32  1  0  0  0  0
 32 33  1  0  0  0  0
 33 34  1  0  0  0  0
 33 56  1  0  0  0  0
 34 59  1  0  0  0  0
 34 58  1  0  0  0  0
 37  6  1  0  0  0  0
 38  7  1  0  0  0  0
 40 22  1  0  0  0  0
 45 25  1  0  0  0  0
 46 26  1  0  0  0  0
 47 27  1  0  0  0  0
 48 27  1  0  0  0  0
 49 28  1  0  0  0  0
 51 29  1  0  0  0  0
 52 30  1  0  0  0  0
 53 30  1  0  0  0  0
 55 31  1  0  0  0  0
 57 33  1  0  0  0  0
M  END
>  <Pose>
1

>  <Score>
-5.90

$$$$
