
 OpenBabel03222201593D

 56 59  0  0  1  0  0  0  0  0999 V2000
  -18.3160   -1.6670  -25.6490 B   0  0  0  0  0  0  0  0  0  0  0  0
  -19.2150   -2.2630  -27.2430 C   0  0  0  0  0  0  0  0  0  0  0  0
  -19.9190   -3.4540  -27.2320 C   0  0  0  0  0  0  0  0  0  0  0  0
  -20.5700   -3.8910  -28.3820 C   0  0  0  0  0  0  0  0  0  0  0  0
  -20.5340   -3.1600  -29.5470 C   0  0  0  0  0  0  0  0  0  0  0  0
  -19.8240   -1.9800  -29.5220 C   0  0  0  0  0  0  0  0  0  0  0  0
  -19.1720   -1.5250  -28.4020 C   0  0  0  0  0  0  0  0  0  0  0  0
  -21.2070   -3.6000  -30.7500 C   0  0  0  0  0  0  0  0  0  0  0  0
  -22.4590   -3.7330  -30.7440 O   0  0  0  0  0  0  0  0  0  0  0  0
  -20.4880   -3.9110  -32.0140 C   0  0  0  0  0  0  0  0  0  0  0  0
  -20.8180   -2.9840  -33.0550 N   0  0  0  0  0  0  0  0  0  0  0  0
  -21.9040   -2.9820  -33.7930 N   0  0  0  0  0  0  0  0  0  0  0  0
  -21.8770   -1.9670  -34.6700 C   0  0  0  0  0  0  0  0  0  0  0  0
  -20.7250   -1.3100  -34.4710 N   0  0  0  0  0  0  0  0  0  0  0  0
  -20.0700   -1.9520  -33.4590 C   0  0  2  0  0  0  0  0  0  0  0  0
  -18.7680   -1.5810  -32.9060 C   0  0  0  0  0  0  0  0  0  0  0  0
  -18.7380   -0.1730  -32.3590 C   0  0  0  0  0  0  0  0  0  0  0  0
  -18.7550    0.8620  -33.4610 C   0  0  0  0  0  0  0  0  0  0  0  0
  -20.0780    0.9600  -34.1580 C   0  0  0  0  0  0  0  0  0  0  0  0
  -20.2670   -0.1390  -35.1930 C   0  0  0  0  0  0  0  0  0  0  0  0
  -22.8920   -1.6130  -35.6720 C   0  0  0  0  0  0  0  0  0  0  0  0
  -22.3800   -1.6350  -37.0070 N   0  0  0  0  0  0  0  0  0  0  0  0
  -22.7620   -0.6890  -38.0010 C   0  0  0  0  0  0  0  0  0  0  0  0
  -22.0300   -0.4920  -39.1490 C   0  0  0  0  0  0  0  0  0  0  0  0
  -22.4110    0.4180  -40.1010 C   0  0  0  0  0  0  0  0  0  0  0  0
  -23.5410    1.1510  -39.9150 C   0  0  0  0  0  0  0  0  0  0  0  0
  -24.2760    0.9570  -38.7670 C   0  0  0  0  0  0  0  0  0  0  0  0
  -23.9030    0.0440  -37.8030 C   0  0  0  0  0  0  0  0  0  0  0  0
  -23.9470    2.0710  -40.8520 O   0  0  0  0  0  0  0  0  0  0  0  0
  -24.1910    3.4210  -40.5420 C   0  0  0  0  0  0  0  0  0  0  0  0
  -19.9430   -4.0180  -26.3200 H   0  0  0  0  0  0  0  0  0  0  0  0
  -21.1110   -4.8200  -28.3490 H   0  0  0  0  0  0  0  0  0  0  0  0
  -19.7840   -1.3820  -30.4430 H   0  0  0  0  0  0  0  0  0  0  0  0
  -18.6360   -0.5980  -28.4450 H   0  0  0  0  0  0  0  0  0  0  0  0
  -19.3990   -4.0150  -31.8500 H   0  0  0  0  0  0  0  0  0  0  0  0
  -20.8730   -4.9230  -32.3340 H   0  0  0  0  0  0  0  0  0  0  0  0
  -18.4730   -2.2540  -32.0820 H   0  0  0  0  0  0  0  0  0  0  0  0
  -17.9320   -1.6410  -33.6600 H   0  0  0  0  0  0  0  0  0  0  0  0
  -19.5160    0.0310  -31.6240 H   0  0  0  0  0  0  0  0  0  0  0  0
  -17.7560   -0.0600  -31.8360 H   0  0  0  0  0  0  0  0  0  0  0  0
  -17.9220    0.7410  -34.1560 H   0  0  0  0  0  0  0  0  0  0  0  0
  -18.5890    1.8530  -32.9490 H   0  0  0  0  0  0  0  0  0  0  0  0
  -20.9130    0.9090  -33.4610 H   0  0  0  0  0  0  0  0  0  0  0  0
  -20.1090    1.9550  -34.6790 H   0  0  0  0  0  0  0  0  0  0  0  0
  -19.3470   -0.3240  -35.7690 H   0  0  0  0  0  0  0  0  0  0  0  0
  -21.0520    0.1770  -35.8960 H   0  0  0  0  0  0  0  0  0  0  0  0
  -23.2670   -0.5840  -35.4320 H   0  0  0  0  0  0  0  0  0  0  0  0
  -23.7680   -2.2800  -35.6100 H   0  0  0  0  0  0  0  0  0  0  0  0
  -21.7010   -2.3570  -37.2890 H   0  0  0  0  0  0  0  0  0  0  0  0
  -21.1280   -1.1100  -39.2490 H   0  0  0  0  0  0  0  0  0  0  0  0
  -21.8090    0.5370  -40.9820 H   0  0  0  0  0  0  0  0  0  0  0  0
  -25.1900    1.5310  -38.5880 H   0  0  0  0  0  0  0  0  0  0  0  0
  -24.5050   -0.0980  -36.8940 H   0  0  0  0  0  0  0  0  0  0  0  0
  -24.7410    3.9150  -41.3530 H   0  0  0  0  0  0  0  0  0  0  0  0
  -24.7940    3.4650  -39.6130 H   0  0  0  0  0  0  0  0  0  0  0  0
  -23.2450    3.9770  -40.3510 H   0  0  0  0  0  0  0  0  0  0  0  0
  2  3  1  0  0  0  0
  2  1  1  0  0  0  0
  3 31  1  0  0  0  0
  4 32  1  0  0  0  0
  4  3  2  0  0  0  0
  5  6  2  0  0  0  0
  5  4  1  0  0  0  0
  6  7  1  0  0  0  0
  7  2  2  0  0  0  0
  8  9  2  0  0  0  0
  8  5  1  0  0  0  0
 10 35  1  0  0  0  0
 10  8  1  0  0  0  0
 11 10  1  0  0  0  0
 12 11  1  0  0  0  0
 13 14  1  0  0  0  0
 13 12  2  0  0  0  0
 15 14  1  6  0  0  0
 15 11  1  0  0  0  0
 15 16  1  0  0  0  0
 16 17  1  0  0  0  0
 16 37  1  0  0  0  0
 17 40  1  0  0  0  0
 17 39  1  0  0  0  0
 18 42  1  0  0  0  0
 18 17  1  0  0  0  0
 19 43  1  0  0  0  0
 19 18  1  0  0  0  0
 20 14  1  0  0  0  0
 20 19  1  0  0  0  0
 21 48  1  0  0  0  0
 21 47  1  0  0  0  0
 21 13  1  0  0  0  0
 22 21  1  0  0  0  0
 23 28  1  0  0  0  0
 23 22  1  0  0  0  0
 24 23  2  0  0  0  0
 25 26  2  0  0  0  0
 25 24  1  0  0  0  0
 26 27  1  0  0  0  0
 27 52  1  0  0  0  0
 27 28  2  0  0  0  0
 28 53  1  0  0  0  0
 29 30  1  0  0  0  0
 29 26  1  0  0  0  0
 30 56  1  0  0  0  0
 30 55  1  0  0  0  0
 33  6  1  0  0  0  0
 34  7  1  0  0  0  0
 36 10  1  0  0  0  0
 38 16  1  0  0  0  0
 41 18  1  0  0  0  0
 44 19  1  0  0  0  0
 45 20  1  0  0  0  0
 46 20  1  0  0  0  0
 49 22  1  0  0  0  0
 50 24  1  0  0  0  0
 51 25  1  0  0  0  0
 54 30  1  0  0  0  0
M  END
>  <Pose>
1

>  <Score>
-7.73

$$$$
