
 OpenBabel03222201593D

 52 55  0  0  0  0  0  0  0  0999 V2000
  -20.5890   -2.9820  -31.2790 Cl  0  0  0  0  0  0  0  0  0  0  0  0
  -20.0920   -2.8800  -29.6020 C   0  0  0  0  0  0  0  0  0  0  0  0
  -19.4160   -1.7460  -29.1760 C   0  0  0  0  0  0  0  0  0  0  0  0
  -18.9950   -1.6000  -27.8630 C   0  0  0  0  0  0  0  0  0  0  0  0
  -19.2490   -2.6010  -26.9520 C   0  0  0  0  0  0  0  0  0  0  0  0
  -19.9310   -3.7290  -27.4070 C   0  0  0  0  0  0  0  0  0  0  0  0
  -20.3540   -3.8890  -28.6980 C   0  0  0  0  0  0  0  0  0  0  0  0
  -18.8330   -2.5070  -25.5550 C   0  0  0  0  0  0  0  0  0  0  0  0
  -19.4250   -3.2420  -24.7240 O   0  0  0  0  0  0  0  0  0  0  0  0
  -17.8210   -1.6450  -25.1310 N   0  0  0  0  0  0  0  0  0  0  0  0
  -17.9860   -0.2120  -24.9840 C   0  0  0  0  0  0  0  0  0  0  0  0
  -18.5990    0.3520  -26.2260 C   0  0  0  0  0  0  0  0  0  0  0  0
  -17.9990    1.6450  -26.6250 C   0  0  0  0  0  0  0  0  0  0  0  0
  -17.4880    1.7350  -27.7680 O   0  0  0  0  0  0  0  0  0  0  0  0
  -17.9940    2.7570  -25.7510 N   0  0  0  0  0  0  0  0  0  0  0  0
  -17.2030    2.8040  -24.5380 C   0  0  0  0  0  0  0  0  0  0  0  0
  -17.9720    3.6270  -23.5150 C   0  0  0  0  0  0  0  0  0  0  0  0
  -18.1240    5.0690  -23.9990 C   0  0  0  0  0  0  0  0  0  0  0  0
  -19.3980    5.5300  -23.5290 N   0  0  0  0  0  0  0  0  0  0  0  0
  -19.4710    6.9750  -23.4900 C   0  0  0  0  0  0  0  0  0  0  0  0
  -18.5860    7.4760  -22.3510 C   0  0  0  0  0  0  0  0  0  0  0  0
  -17.2020    7.0190  -22.6680 C   0  0  0  0  0  0  0  0  0  0  0  0
  -15.9780    7.5220  -22.3270 N   0  0  0  0  0  0  0  0  0  0  0  0
  -15.0400    6.7280  -22.8730 C   0  0  0  0  0  0  0  0  0  0  0  0
  -15.6680    5.7450  -23.5430 N   0  0  0  0  0  0  0  0  0  0  0  0
  -17.0210    5.8920  -23.4390 C   0  0  0  0  0  0  0  0  0  0  0  0
  -18.1020    5.1310  -25.5120 C   0  0  0  0  0  0  0  0  0  0  0  0
  -18.8070    3.9200  -26.0500 C   0  0  0  0  0  0  0  0  0  0  0  0
  -19.2180   -0.9640  -29.8960 H   0  0  0  0  0  0  0  0  0  0  0  0
  -18.4590   -0.6820  -27.5620 H   0  0  0  0  0  0  0  0  0  0  0  0
  -20.1250   -4.5070  -26.6830 H   0  0  0  0  0  0  0  0  0  0  0  0
  -20.8790   -4.7560  -29.0560 H   0  0  0  0  0  0  0  0  0  0  0  0
  -16.8670   -2.0090  -24.8940 H   0  0  0  0  0  0  0  0  0  0  0  0
  -16.9630    0.2150  -24.8970 H   0  0  0  0  0  0  0  0  0  0  0  0
  -18.5380    0.0360  -24.0670 H   0  0  0  0  0  0  0  0  0  0  0  0
  -18.4720   -0.3910  -27.0690 H   0  0  0  0  0  0  0  0  0  0  0  0
  -19.6780    0.4440  -26.0910 H   0  0  0  0  0  0  0  0  0  0  0  0
  -17.1640    1.7670  -24.1100 H   0  0  0  0  0  0  0  0  0  0  0  0
  -16.1970    3.1880  -24.6960 H   0  0  0  0  0  0  0  0  0  0  0  0
  -18.9380    3.1800  -23.2840 H   0  0  0  0  0  0  0  0  0  0  0  0
  -17.3560    3.6660  -22.5940 H   0  0  0  0  0  0  0  0  0  0  0  0
  -20.1800    5.1460  -24.0940 H   0  0  0  0  0  0  0  0  0  0  0  0
  -19.0060    7.3580  -24.4200 H   0  0  0  0  0  0  0  0  0  0  0  0
  -20.4880    7.3560  -23.4230 H   0  0  0  0  0  0  0  0  0  0  0  0
  -18.6680    8.5760  -22.3340 H   0  0  0  0  0  0  0  0  0  0  0  0
  -18.8980    7.0350  -21.3820 H   0  0  0  0  0  0  0  0  0  0  0  0
  -15.8800    8.3800  -21.7400 H   0  0  0  0  0  0  0  0  0  0  0  0
  -13.9790    6.9050  -22.7550 H   0  0  0  0  0  0  0  0  0  0  0  0
  -18.6000    6.0220  -25.9070 H   0  0  0  0  0  0  0  0  0  0  0  0
  -17.0510    5.1110  -25.8870 H   0  0  0  0  0  0  0  0  0  0  0  0
  -18.9320    4.0700  -27.1410 H   0  0  0  0  0  0  0  0  0  0  0  0
  -19.8230    3.8140  -25.5950 H   0  0  0  0  0  0  0  0  0  0  0  0
  1  2  1  0  0  0  0
  2  3  2  0  0  0  0
  2  7  1  0  0  0  0
  3  4  1  0  0  0  0
  4 30  1  0  0  0  0
  4  5  2  0  0  0  0
  5  8  1  0  0  0  0
  6  5  1  0  0  0  0
  6 31  1  0  0  0  0
  7  6  2  0  0  0  0
  8 10  1  0  0  0  0
  8  9  2  0  0  0  0
 10 11  1  0  0  0  0
 10 33  1  0  0  0  0
 11 34  1  0  0  0  0
 11 35  1  0  0  0  0
 12 37  1  0  0  0  0
 12 11  1  0  0  0  0
 13 12  1  0  0  0  0
 13 15  1  0  0  0  0
 14 13  2  0  0  0  0
 15 16  1  0  0  0  0
 16 38  1  0  0  0  0
 16 17  1  0  0  0  0
 17 40  1  0  0  0  0
 17 41  1  0  0  0  0
 18 19  1  0  0  0  0
 18 17  1  0  0  0  0
 18 26  1  0  0  0  0
 19 20  1  0  0  0  0
 20 44  1  0  0  0  0
 20 21  1  0  0  0  0
 21 45  1  0  0  0  0
 21 46  1  0  0  0  0
 22 21  1  0  0  0  0
 22 23  1  0  0  0  0
 23 47  1  0  0  0  0
 24 48  1  0  0  0  0
 24 23  1  0  0  0  0
 25 26  1  0  0  0  0
 25 24  2  0  0  0  0
 26 22  2  0  0  0  0
 27 18  1  0  0  0  0
 28 15  1  0  0  0  0
 28 52  1  0  0  0  0
 28 27  1  0  0  0  0
 29  3  1  0  0  0  0
 32  7  1  0  0  0  0
 36 12  1  0  0  0  0
 39 16  1  0  0  0  0
 42 19  1  0  0  0  0
 43 20  1  0  0  0  0
 49 27  1  0  0  0  0
 50 27  1  0  0  0  0
 51 28  1  0  0  0  0
M  END
>  <Pose>
1

>  <Score>
-6.33

$$$$
