
 OpenBabel03222201593D

 44 47  0  0  1  0  0  0  0  0999 V2000
  -23.1880   -1.7240  -36.7540 B   0  0  0  0  0  0  0  0  0  0  0  0
  -22.6750   -0.6730  -35.2530 C   0  0  0  0  0  0  0  0  0  0  0  0
  -21.6830   -1.0990  -34.3740 C   0  0  0  0  0  0  0  0  0  0  0  0
  -21.3160   -0.3310  -33.2890 C   0  0  0  0  0  0  0  0  0  0  0  0
  -21.9890    0.8750  -33.1300 C   0  0  0  0  0  0  0  0  0  0  0  0
  -22.9650    1.3110  -33.9840 C   0  0  0  0  0  0  0  0  0  0  0  0
  -23.3170    0.5310  -35.0590 C   0  0  0  0  0  0  0  0  0  0  0  0
  -20.3070   -0.7240  -32.3570 N   0  0  0  0  0  0  0  0  0  0  0  0
  -19.2090    0.0960  -31.9750 C   0  0  0  0  0  0  0  0  0  0  0  0
  -18.7740    1.0390  -32.6790 O   0  0  0  0  0  0  0  0  0  0  0  0
  -18.7530   -0.3860  -30.6770 C   0  0  2  0  0  0  0  0  0  0  0  0
  -19.0980   -1.8600  -30.7180 C   0  0  0  0  0  0  0  0  0  0  0  0
  -20.2300   -1.9720  -31.6570 C   0  0  0  0  0  0  0  0  0  0  0  0
  -20.9920   -2.9600  -31.8280 O   0  0  0  0  0  0  0  0  0  0  0  0
  -19.2690    0.2680  -29.5430 N   0  0  0  0  0  0  0  0  0  0  0  0
  -18.3990    0.5120  -28.4650 C   0  0  0  0  0  0  0  0  0  0  0  0
  -18.5830   -0.6020  -27.4250 C   0  0  0  0  0  0  0  0  0  0  0  0
  -19.8360   -1.2990  -27.6690 N   0  0  0  0  0  0  0  0  0  0  0  0
  -21.0170   -0.6110  -28.1510 C   0  0  0  0  0  0  0  0  0  0  0  0
  -20.6410    0.3010  -29.2950 C   0  0  0  0  0  0  0  0  0  0  0  0
  -19.9450   -2.7140  -27.4590 C   0  0  0  0  0  0  0  0  0  0  0  0
  -20.5680   -3.5040  -28.3580 N   0  0  0  0  0  0  0  0  0  0  0  0
  -20.6530   -4.8350  -28.1630 C   0  0  0  0  0  0  0  0  0  0  0  0
  -20.1050   -5.4400  -27.0380 C   0  0  0  0  0  0  0  0  0  0  0  0
  -19.4660   -4.6240  -26.1210 C   0  0  0  0  0  0  0  0  0  0  0  0
  -19.4150   -3.3040  -26.3720 N   0  0  0  0  0  0  0  0  0  0  0  0
  -21.1950   -2.0440  -34.5470 H   0  0  0  0  0  0  0  0  0  0  0  0
  -21.7050    1.4860  -32.2740 H   0  0  0  0  0  0  0  0  0  0  0  0
  -23.4900    2.2630  -33.8490 H   0  0  0  0  0  0  0  0  0  0  0  0
  -24.0900    0.8800  -35.7280 H   0  0  0  0  0  0  0  0  0  0  0  0
  -17.6280   -0.3260  -30.6410 H   0  0  0  0  0  0  0  0  0  0  0  0
  -18.2490   -2.4000  -31.1690 H   0  0  0  0  0  0  0  0  0  0  0  0
  -19.3510   -2.2450  -29.7070 H   0  0  0  0  0  0  0  0  0  0  0  0
  -18.6940    1.4540  -27.9570 H   0  0  0  0  0  0  0  0  0  0  0  0
  -17.3540    0.6020  -28.7210 H   0  0  0  0  0  0  0  0  0  0  0  0
  -17.7530   -1.3490  -27.5210 H   0  0  0  0  0  0  0  0  0  0  0  0
  -18.6310   -0.2220  -26.4010 H   0  0  0  0  0  0  0  0  0  0  0  0
  -21.5140   -0.0550  -27.3050 H   0  0  0  0  0  0  0  0  0  0  0  0
  -21.7480   -1.3510  -28.5830 H   0  0  0  0  0  0  0  0  0  0  0  0
  -21.2510    0.1130  -30.2030 H   0  0  0  0  0  0  0  0  0  0  0  0
  -20.9180    1.3440  -28.9560 H   0  0  0  0  0  0  0  0  0  0  0  0
  -21.1510   -5.4870  -28.8800 H   0  0  0  0  0  0  0  0  0  0  0  0
  -20.1890   -6.5240  -26.9080 H   0  0  0  0  0  0  0  0  0  0  0  0
  -19.0160   -5.0690  -25.2240 H   0  0  0  0  0  0  0  0  0  0  0  0
  1  2  1  0  0  0  0
  2  7  2  0  0  0  0
  2  3  1  0  0  0  0
  3  4  2  0  0  0  0
  4  5  1  0  0  0  0
  4  8  1  0  0  0  0
  5 28  1  0  0  0  0
  6 29  1  0  0  0  0
  6  5  2  0  0  0  0
  7  6  1  0  0  0  0
  8  9  1  0  0  0  0
  8 13  1  0  0  0  0
  9 11  1  0  0  0  0
 10  9  2  0  0  0  0
 11 31  1  1  0  0  0
 11 15  1  0  0  0  0
 12 11  1  0  0  0  0
 12 33  1  0  0  0  0
 13 12  1  0  0  0  0
 14 13  2  0  0  0  0
 15 20  1  0  0  0  0
 15 16  1  0  0  0  0
 16 34  1  0  0  0  0
 16 17  1  0  0  0  0
 17 37  1  0  0  0  0
 18 21  1  0  0  0  0
 18 17  1  0  0  0  0
 19 18  1  0  0  0  0
 19 38  1  0  0  0  0
 20 41  1  0  0  0  0
 20 19  1  0  0  0  0
 21 26  1  0  0  0  0
 22 23  1  0  0  0  0
 22 21  2  0  0  0  0
 23 24  2  0  0  0  0
 24 43  1  0  0  0  0
 24 25  1  0  0  0  0
 25 44  1  0  0  0  0
 26 25  2  0  0  0  0
 27  3  1  0  0  0  0
 30  7  1  0  0  0  0
 32 12  1  0  0  0  0
 35 16  1  0  0  0  0
 36 17  1  0  0  0  0
 39 19  1  0  0  0  0
 40 20  1  0  0  0  0
 42 23  1  0  0  0  0
M  END
>  <Pose>
1

>  <Score>
-6.00

$$$$
