
 OpenBabel03222201593D

 55 58  0  0  0  0  0  0  0  0999 V2000
  -19.9820    0.0750  -32.0510 S   0  0  0  0  0  0  0  0  0  0  0  0
  -21.4790    0.1450  -32.3690 O   0  0  0  0  0  0  0  0  0  0  0  0
  -19.6270    1.5300  -31.7340 O   0  0  0  0  0  0  0  0  0  0  0  0
  -19.1820   -0.4090  -33.4140 N   0  0  0  0  0  0  0  0  0  0  0  0
  -17.9860    0.1390  -33.8620 C   0  0  0  0  0  0  0  0  0  0  0  0
  -18.0870    1.2660  -34.8390 C   0  0  0  0  0  0  0  0  0  0  0  0
  -19.4400    1.1940  -35.5430 C   0  0  0  0  0  0  0  0  0  0  0  0
  -19.6240   -0.3070  -35.8170 C   0  0  0  0  0  0  0  0  0  0  0  0
  -20.0420   -0.9040  -34.4830 C   0  0  0  0  0  0  0  0  0  0  0  0
  -19.4690    1.9780  -36.7660 C   0  0  0  0  0  0  0  0  0  0  0  0
  -18.4000    2.4670  -37.2150 O   0  0  0  0  0  0  0  0  0  0  0  0
  -20.6590    2.2030  -37.4650 N   0  0  0  0  0  0  0  0  0  0  0  0
  -20.7170    2.3230  -38.9260 C   0  0  0  0  0  0  0  0  0  0  0  0
  -22.1260    2.7650  -39.2610 C   0  0  0  0  0  0  0  0  0  0  0  0
  -23.0840    1.7590  -38.8420 N   0  0  0  0  0  0  0  0  0  0  0  0
  -23.0080    1.5210  -37.4120 C   0  0  0  0  0  0  0  0  0  0  0  0
  -21.9100    2.3550  -36.7760 C   0  0  0  0  0  0  0  0  0  0  0  0
  -24.4280    2.1280  -39.2310 C   0  0  0  0  0  0  0  0  0  0  0  0
  -19.8560   -0.8970  -30.6140 C   0  0  0  0  0  0  0  0  0  0  0  0
  -19.3900   -0.3070  -29.4270 C   0  0  0  0  0  0  0  0  0  0  0  0
  -19.2170   -1.0200  -28.2680 C   0  0  0  0  0  0  0  0  0  0  0  0
  -19.5020   -2.3500  -28.2470 C   0  0  0  0  0  0  0  0  0  0  0  0
  -19.9610   -2.9800  -29.3750 C   0  0  0  0  0  0  0  0  0  0  0  0
  -20.1310   -2.2320  -30.5420 C   0  0  0  0  0  0  0  0  0  0  0  0
  -20.7950   -3.0710  -31.9340 Cl  0  0  0  0  0  0  0  0  0  0  0  0
  -19.3090   -3.0820  -27.0240 N   0  0  0  0  0  0  0  0  0  0  0  0
  -18.8290   -2.4060  -25.8750 C   0  0  0  0  0  0  0  0  0  0  0  0
  -18.9950   -2.8660  -24.7260 O   0  0  0  0  0  0  0  0  0  0  0  0
  -18.1130   -1.1200  -26.0840 C   0  0  0  0  0  0  0  0  0  0  0  0
  -18.7500   -0.3970  -27.1040 O   0  0  0  0  0  0  0  0  0  0  0  0
  -17.2980    0.3970  -33.0560 H   0  0  0  0  0  0  0  0  0  0  0  0
  -17.4250   -0.7280  -34.3890 H   0  0  0  0  0  0  0  0  0  0  0  0
  -17.3240    1.1170  -35.6440 H   0  0  0  0  0  0  0  0  0  0  0  0
  -17.9130    2.2690  -34.4420 H   0  0  0  0  0  0  0  0  0  0  0  0
  -20.2100    1.5060  -34.8180 H   0  0  0  0  0  0  0  0  0  0  0  0
  -20.3370   -0.5220  -36.6050 H   0  0  0  0  0  0  0  0  0  0  0  0
  -18.5900   -0.6860  -36.0640 H   0  0  0  0  0  0  0  0  0  0  0  0
  -20.0800   -2.0050  -34.5330 H   0  0  0  0  0  0  0  0  0  0  0  0
  -21.0640   -0.5400  -34.2720 H   0  0  0  0  0  0  0  0  0  0  0  0
  -20.5650    1.2770  -39.3280 H   0  0  0  0  0  0  0  0  0  0  0  0
  -19.9660    3.0210  -39.2970 H   0  0  0  0  0  0  0  0  0  0  0  0
  -22.2900    3.7540  -38.7500 H   0  0  0  0  0  0  0  0  0  0  0  0
  -22.2000    2.9220  -40.3530 H   0  0  0  0  0  0  0  0  0  0  0  0
  -22.8140    0.4620  -37.2020 H   0  0  0  0  0  0  0  0  0  0  0  0
  -23.9610    1.8720  -36.9660 H   0  0  0  0  0  0  0  0  0  0  0  0
  -22.1930    3.4360  -36.7550 H   0  0  0  0  0  0  0  0  0  0  0  0
  -21.8020    2.0530  -35.7350 H   0  0  0  0  0  0  0  0  0  0  0  0
  -25.0720    1.2400  -39.0940 H   0  0  0  0  0  0  0  0  0  0  0  0
  -24.4440    2.4010  -40.2960 H   0  0  0  0  0  0  0  0  0  0  0  0
  -24.8510    2.9300  -38.5740 H   0  0  0  0  0  0  0  0  0  0  0  0
  -19.1650    0.7600  -29.4570 H   0  0  0  0  0  0  0  0  0  0  0  0
  -20.1860   -4.0230  -29.3630 H   0  0  0  0  0  0  0  0  0  0  0  0
  -19.5250   -4.0980  -26.9980 H   0  0  0  0  0  0  0  0  0  0  0  0
  -18.1000   -0.5160  -25.1510 H   0  0  0  0  0  0  0  0  0  0  0  0
  -17.0710   -1.2900  -26.3920 H   0  0  0  0  0  0  0  0  0  0  0  0
  1  3  2  0  0  0  0
  1 19  1  0  0  0  0
  2  1  2  0  0  0  0
  4  1  1  0  0  0  0
  5  4  1  0  0  0  0
  5 31  1  0  0  0  0
  6 34  1  0  0  0  0
  6  5  1  0  0  0  0
  7  6  1  0  0  0  0
  7 35  1  0  0  0  0
  8  7  1  0  0  0  0
  8  9  1  0  0  0  0
  9 39  1  0  0  0  0
  9  4  1  0  0  0  0
 10  7  1  0  0  0  0
 11 10  2  0  0  0  0
 12 17  1  0  0  0  0
 12 10  1  0  0  0  0
 13 12  1  0  0  0  0
 14 13  1  0  0  0  0
 14 15  1  0  0  0  0
 14 42  1  0  0  0  0
 15 16  1  0  0  0  0
 16 44  1  0  0  0  0
 16 45  1  0  0  0  0
 16 17  1  0  0  0  0
 17 46  1  0  0  0  0
 17 47  1  0  0  0  0
 18 48  1  0  0  0  0
 18 15  1  0  0  0  0
 18 50  1  0  0  0  0
 19 24  2  0  0  0  0
 19 20  1  0  0  0  0
 20 21  2  0  0  0  0
 21 22  1  0  0  0  0
 21 30  1  0  0  0  0
 22 26  1  0  0  0  0
 23 52  1  0  0  0  0
 23 22  2  0  0  0  0
 24 23  1  0  0  0  0
 25 24  1  0  0  0  0
 26 53  1  0  0  0  0
 26 27  1  0  0  0  0
 27 28  2  0  0  0  0
 29 27  1  0  0  0  0
 29 54  1  0  0  0  0
 30 29  1  0  0  0  0
 32  5  1  0  0  0  0
 33  6  1  0  0  0  0
 36  8  1  0  0  0  0
 37  8  1  0  0  0  0
 38  9  1  0  0  0  0
 40 13  1  0  0  0  0
 41 13  1  0  0  0  0
 43 14  1  0  0  0  0
 49 18  1  0  0  0  0
 51 20  1  0  0  0  0
 55 29  1  0  0  0  0
M  END
>  <Pose>
1

>  <Score>
-6.55

$$$$
