
 OpenBabel03222201593D

 36 39  0  0  1  0  0  0  0  0999 V2000
  -17.6240    1.4210  -23.5970 Cl  0  0  0  0  0  0  0  0  0  0  0  0
  -18.0730    0.3660  -24.9290 C   0  0  0  0  0  0  0  0  0  0  0  0
  -18.4030    0.8550  -26.1740 C   0  0  0  0  0  0  0  0  0  0  0  0
  -18.7520    0.0330  -27.2060 N   0  0  0  0  0  0  0  0  0  0  0  0
  -18.7900   -1.3030  -27.0570 C   0  0  0  0  0  0  0  0  0  0  0  0
  -19.1370   -2.1220  -28.0810 N   0  0  0  0  0  0  0  0  0  0  0  0
  -19.4580   -1.6350  -29.2990 C   0  0  0  0  0  0  0  0  0  0  0  0
  -19.4300   -0.2840  -29.4860 C   0  0  2  0  0  0  0  0  0  0  0  0
  -19.7770    0.3110  -30.8170 C   0  0  0  0  0  0  0  0  0  0  0  0
  -19.4390   -0.7360  -31.7970 N   0  0  0  0  0  0  0  0  0  0  0  0
  -20.1910   -1.9470  -31.6380 C   0  0  0  0  0  0  0  0  0  0  0  0
  -19.8190   -2.6360  -30.3360 C   0  0  0  0  0  0  0  0  0  0  0  0
  -18.4570   -0.4470  -32.7400 C   0  0  0  0  0  0  0  0  0  0  0  0
  -17.4800   -1.2620  -32.8760 O   0  0  0  0  0  0  0  0  0  0  0  0
  -18.4290    0.7290  -33.6180 C   0  0  0  0  0  0  0  0  0  0  0  0
  -18.6470    1.9660  -33.1640 N   0  0  0  0  0  0  0  0  0  0  0  0
  -18.6200    3.0310  -33.9710 C   0  0  0  0  0  0  0  0  0  0  0  0
  -18.3650    2.9140  -35.3220 C   0  0  0  0  0  0  0  0  0  0  0  0
  -18.1480    1.6620  -35.7600 N   0  0  0  0  0  0  0  0  0  0  0  0
  -18.1700    0.5830  -34.9770 C   0  0  0  0  0  0  0  0  0  0  0  0
  -19.0710    0.5260  -28.4160 C   0  0  0  0  0  0  0  0  0  0  0  0
  -19.0420    1.7620  -28.5780 O   0  0  0  0  0  0  0  0  0  0  0  0
  -18.4600   -1.8050  -25.8070 C   0  0  0  0  0  0  0  0  0  0  0  0
  -18.1040   -1.0000  -24.7460 C   0  0  0  0  0  0  0  0  0  0  0  0
  -18.3930    1.9140  -26.3630 H   0  0  0  0  0  0  0  0  0  0  0  0
  -19.2220    1.2390  -31.0030 H   0  0  0  0  0  0  0  0  0  0  0  0
  -20.8840    0.4750  -30.7890 H   0  0  0  0  0  0  0  0  0  0  0  0
  -20.2330   -2.6180  -32.4830 H   0  0  0  0  0  0  0  0  0  0  0  0
  -21.2670   -1.6180  -31.4720 H   0  0  0  0  0  0  0  0  0  0  0  0
  -19.0000   -3.3370  -30.5400 H   0  0  0  0  0  0  0  0  0  0  0  0
  -20.6930   -3.2340  -29.9940 H   0  0  0  0  0  0  0  0  0  0  0  0
  -18.7990    4.0340  -33.5900 H   0  0  0  0  0  0  0  0  0  0  0  0
  -18.3420    3.7780  -35.9810 H   0  0  0  0  0  0  0  0  0  0  0  0
  -17.9920   -0.3850  -35.3740 H   0  0  0  0  0  0  0  0  0  0  0  0
  -18.4860   -2.8770  -25.6700 H   0  0  0  0  0  0  0  0  0  0  0  0
  -17.8450   -1.3940  -23.7670 H   0  0  0  0  0  0  0  0  0  0  0  0
  2 24  2  0  0  0  0
  2  1  1  0  0  0  0
  3  2  1  0  0  0  0
  4  5  1  0  0  0  0
  4  3  1  0  0  0  0
  5 23  2  0  0  0  0
  6  5  1  0  0  0  0
  7  6  2  0  0  0  0
  8  7  1  6  0  0  0
  8 21  1  0  0  0  0
  9 27  1  0  0  0  0
  9  8  1  0  0  0  0
 10 11  1  0  0  0  0
 10  9  1  0  0  0  0
 11 29  1  0  0  0  0
 11 12  1  0  0  0  0
 12 31  1  0  0  0  0
 12  7  1  0  0  0  0
 13 10  1  0  0  0  0
 14 13  2  0  0  0  0
 15 16  1  0  0  0  0
 15 13  1  0  0  0  0
 17 32  1  0  0  0  0
 17 16  2  0  0  0  0
 18 17  1  0  0  0  0
 19 18  2  0  0  0  0
 19 20  1  0  0  0  0
 20 15  2  0  0  0  0
 21  4  1  0  0  0  0
 22 21  2  0  0  0  0
 23 35  1  0  0  0  0
 23 24  1  0  0  0  0
 24 36  1  0  0  0  0
 25  3  1  0  0  0  0
 26  9  1  0  0  0  0
 28 11  1  0  0  0  0
 30 12  1  0  0  0  0
 33 18  1  0  0  0  0
 34 20  1  0  0  0  0
M  END
>  <Pose>
1

>  <Score>
-6.61

$$$$
