
 OpenBabel03222201593D

 56 59  0  0  0  0  0  0  0  0999 V2000
  -22.1340    0.5610  -33.1290 Cl  0  0  0  0  0  0  0  0  0  0  0  0
  -21.4720    1.1850  -34.5970 C   0  0  0  0  0  0  0  0  0  0  0  0
  -20.2270    0.7520  -35.0020 C   0  0  0  0  0  0  0  0  0  0  0  0
  -19.7530    1.2920  -36.1950 C   0  0  0  0  0  0  0  0  0  0  0  0
  -20.4930    2.2060  -36.9190 C   0  0  0  0  0  0  0  0  0  0  0  0
  -21.7260    2.6080  -36.4780 C   0  0  0  0  0  0  0  0  0  0  0  0
  -22.2180    2.0980  -35.3170 C   0  0  0  0  0  0  0  0  0  0  0  0
  -19.4420   -0.1670  -34.3040 N   0  0  0  0  0  0  0  0  0  0  0  0
  -18.2260    0.1340  -33.5790 C   0  0  0  0  0  0  0  0  0  0  0  0
  -17.9460   -1.0100  -32.6080 C   0  0  0  0  0  0  0  0  0  0  0  0
  -19.1940   -1.4430  -32.0000 N   0  0  0  0  0  0  0  0  0  0  0  0
  -20.2650   -1.8800  -32.8630 C   0  0  0  0  0  0  0  0  0  0  0  0
  -19.8710   -1.5740  -34.2890 C   0  0  0  0  0  0  0  0  0  0  0  0
  -19.3760   -1.4450  -30.5890 C   0  0  0  0  0  0  0  0  0  0  0  0
  -18.8780   -2.4040  -29.9210 O   0  0  0  0  0  0  0  0  0  0  0  0
  -20.1050   -0.4060  -29.8530 C   0  0  0  0  0  0  0  0  0  0  0  0
  -19.4120    0.0500  -28.6490 N   0  0  0  0  0  0  0  0  0  0  0  0
  -18.7060    1.1460  -28.4550 N   0  0  0  0  0  0  0  0  0  0  0  0
  -18.2150    1.2350  -27.2170 C   0  0  0  0  0  0  0  0  0  0  0  0
  -18.6400    0.1010  -26.5500 C   0  0  0  0  0  0  0  0  0  0  0  0
  -19.3810   -0.6170  -27.4630 C   0  0  0  0  0  0  0  0  0  0  0  0
  -20.0360   -1.9130  -27.1840 C   0  0  0  0  0  0  0  0  0  0  0  0
  -17.3890    2.3270  -26.6700 C   0  0  0  0  0  0  0  0  0  0  0  0
  -16.1560    2.1810  -26.5540 O   0  0  0  0  0  0  0  0  0  0  0  0
  -18.0180    3.5310  -26.2850 N   0  0  0  0  0  0  0  0  0  0  0  0
  -18.4480    3.8190  -24.9460 C   0  0  0  0  0  0  0  0  0  0  0  0
  -18.9310    5.2750  -24.9520 C   0  0  0  0  0  0  0  0  0  0  0  0
  -17.9710    6.1160  -25.4690 O   0  0  0  0  0  0  0  0  0  0  0  0
  -17.6390    5.8530  -26.7770 C   0  0  0  0  0  0  0  0  0  0  0  0
  -18.2590    4.5710  -27.2900 C   0  0  0  0  0  0  0  0  0  0  0  0
  -18.7950    1.0120  -36.5830 H   0  0  0  0  0  0  0  0  0  0  0  0
  -20.1110    2.6180  -37.8440 H   0  0  0  0  0  0  0  0  0  0  0  0
  -22.3070    3.3370  -37.0630 H   0  0  0  0  0  0  0  0  0  0  0  0
  -23.2040    2.4090  -34.9500 H   0  0  0  0  0  0  0  0  0  0  0  0
  -17.3430    0.2160  -34.2300 H   0  0  0  0  0  0  0  0  0  0  0  0
  -18.3780    1.0280  -32.9400 H   0  0  0  0  0  0  0  0  0  0  0  0
  -17.3180   -0.5870  -31.7980 H   0  0  0  0  0  0  0  0  0  0  0  0
  -17.4240   -1.8480  -33.1100 H   0  0  0  0  0  0  0  0  0  0  0  0
  -20.5190   -2.9480  -32.7190 H   0  0  0  0  0  0  0  0  0  0  0  0
  -21.1650   -1.2330  -32.6690 H   0  0  0  0  0  0  0  0  0  0  0  0
  -18.9710   -2.1900  -34.5430 H   0  0  0  0  0  0  0  0  0  0  0  0
  -20.7020   -1.7470  -35.0020 H   0  0  0  0  0  0  0  0  0  0  0  0
  -21.1310   -0.7250  -29.5800 H   0  0  0  0  0  0  0  0  0  0  0  0
  -20.1940    0.4810  -30.5100 H   0  0  0  0  0  0  0  0  0  0  0  0
  -18.4260   -0.1540  -25.5250 H   0  0  0  0  0  0  0  0  0  0  0  0
  -20.7040   -1.8150  -26.3070 H   0  0  0  0  0  0  0  0  0  0  0  0
  -20.6430   -2.2320  -28.0520 H   0  0  0  0  0  0  0  0  0  0  0  0
  -19.2640   -2.7070  -27.0220 H   0  0  0  0  0  0  0  0  0  0  0  0
  -17.6110    3.7200  -24.2240 H   0  0  0  0  0  0  0  0  0  0  0  0
  -19.2820    3.2050  -24.5910 H   0  0  0  0  0  0  0  0  0  0  0  0
  -19.9180    5.3540  -25.4360 H   0  0  0  0  0  0  0  0  0  0  0  0
  -19.0620    5.5410  -23.8800 H   0  0  0  0  0  0  0  0  0  0  0  0
  -17.9960    6.6840  -27.4410 H   0  0  0  0  0  0  0  0  0  0  0  0
  -16.5430    5.7570  -26.8980 H   0  0  0  0  0  0  0  0  0  0  0  0
  -17.7820    4.2830  -28.2450 H   0  0  0  0  0  0  0  0  0  0  0  0
  -19.3440    4.7390  -27.4070 H   0  0  0  0  0  0  0  0  0  0  0  0
  2  1  1  0  0  0  0
  3  2  1  0  0  0  0
  3  8  1  0  0  0  0
  4  3  2  0  0  0  0
  5  6  2  0  0  0  0
  5  4  1  0  0  0  0
  6  7  1  0  0  0  0
  7 34  1  0  0  0  0
  7  2  2  0  0  0  0
  8 13  1  0  0  0  0
  8  9  1  0  0  0  0
  9 36  1  0  0  0  0
  9 10  1  0  0  0  0
 10 11  1  0  0  0  0
 10 37  1  0  0  0  0
 11 14  1  0  0  0  0
 12 39  1  0  0  0  0
 12 40  1  0  0  0  0
 12 11  1  0  0  0  0
 13 12  1  0  0  0  0
 14 15  2  0  0  0  0
 14 16  1  0  0  0  0
 16 43  1  0  0  0  0
 16 17  1  0  0  0  0
 17 18  1  0  0  0  0
 17 21  1  0  0  0  0
 18 19  2  0  0  0  0
 19 23  1  0  0  0  0
 19 20  1  0  0  0  0
 20 45  1  0  0  0  0
 21 22  1  0  0  0  0
 21 20  2  0  0  0  0
 22 48  1  0  0  0  0
 22 46  1  0  0  0  0
 23 24  2  0  0  0  0
 23 25  1  0  0  0  0
 25 26  1  0  0  0  0
 26 50  1  0  0  0  0
 26 49  1  0  0  0  0
 27 26  1  0  0  0  0
 27 52  1  0  0  0  0
 28 27  1  0  0  0  0
 29 28  1  0  0  0  0
 30 29  1  0  0  0  0
 30 25  1  0  0  0  0
 31  4  1  0  0  0  0
 32  5  1  0  0  0  0
 33  6  1  0  0  0  0
 35  9  1  0  0  0  0
 38 10  1  0  0  0  0
 41 13  1  0  0  0  0
 42 13  1  0  0  0  0
 44 16  1  0  0  0  0
 47 22  1  0  0  0  0
 51 27  1  0  0  0  0
 53 29  1  0  0  0  0
 54 29  1  0  0  0  0
 55 30  1  0  0  0  0
 56 30  1  0  0  0  0
M  END
>  <Pose>
1

>  <Score>
-5.93

$$$$
