
 OpenBabel03222201593D

 46 49  0  0  1  0  0  0  0  0999 V2000
  -23.8420   -1.7440  -36.9210 Cl  0  0  0  0  0  0  0  0  0  0  0  0
  -22.8010   -1.5410  -35.5190 C   0  0  0  0  0  0  0  0  0  0  0  0
  -22.5990   -2.6340  -34.7090 C   0  0  0  0  0  0  0  0  0  0  0  0
  -21.7950   -2.4740  -33.6280 N   0  0  0  0  0  0  0  0  0  0  0  0
  -21.2080   -1.3010  -33.3410 C   0  0  0  0  0  0  0  0  0  0  0  0
  -20.4090   -1.1330  -32.2710 N   0  0  0  0  0  0  0  0  0  0  0  0
  -20.1370   -2.1270  -31.4070 C   0  0  0  0  0  0  0  0  0  0  0  0
  -20.7410   -3.3370  -31.7010 C   0  0  0  0  0  0  0  0  0  0  0  0
  -21.5590   -3.5080  -32.7950 C   0  0  0  0  0  0  0  0  0  0  0  0
  -22.0930   -4.6370  -33.0270 O   0  0  0  0  0  0  0  0  0  0  0  0
  -19.2710   -1.9850  -30.2280 C   0  0  0  0  0  0  0  0  0  0  0  0
  -19.8840   -1.5180  -29.0550 N   0  0  0  0  0  0  0  0  0  0  0  0
  -19.7630   -2.2800  -27.8840 C   0  0  0  0  0  0  0  0  0  0  0  0
  -18.6950   -1.8500  -26.9340 C   0  0  0  0  0  0  0  0  0  0  0  0
  -18.4170   -0.4240  -27.0300 N   0  0  0  0  0  0  0  0  0  0  0  0
  -17.5640    0.2630  -26.2710 N   0  0  0  0  0  0  0  0  0  0  0  0
  -17.5740    1.5450  -26.6480 C   0  0  0  0  0  0  0  0  0  0  0  0
  -18.4700    1.6520  -27.6820 C   0  0  0  0  0  0  0  0  0  0  0  0
  -19.0080    0.3850  -27.9230 C   0  0  0  0  0  0  0  0  0  0  0  0
  -20.0080   -0.1120  -28.9010 C   0  0  0  0  0  0  0  0  0  0  0  0
  -16.7580    2.6470  -26.0490 C   0  0  1  0  0  0  0  0  0  0  0  0
  -16.4050    3.5280  -27.0840 O   0  0  0  0  0  0  0  0  0  0  0  0
  -17.6130    3.4640  -25.0840 C   0  0  0  0  0  0  0  0  0  0  0  0
  -17.3870    2.9310  -23.6760 C   0  0  0  0  0  0  0  0  0  0  0  0
  -21.4090   -0.1860  -34.1620 C   0  0  0  0  0  0  0  0  0  0  0  0
  -22.2180   -0.3170  -35.2630 C   0  0  0  0  0  0  0  0  0  0  0  0
  -23.0540   -3.5730  -34.9170 H   0  0  0  0  0  0  0  0  0  0  0  0
  -20.5550   -4.1830  -31.0310 H   0  0  0  0  0  0  0  0  0  0  0  0
  -18.8010   -2.9780  -30.0140 H   0  0  0  0  0  0  0  0  0  0  0  0
  -18.3950   -1.3140  -30.4680 H   0  0  0  0  0  0  0  0  0  0  0  0
  -20.7400   -2.2110  -27.3180 H   0  0  0  0  0  0  0  0  0  0  0  0
  -19.6810   -3.3540  -28.1560 H   0  0  0  0  0  0  0  0  0  0  0  0
  -17.7840   -2.4460  -27.1200 H   0  0  0  0  0  0  0  0  0  0  0  0
  -18.9740   -2.0700  -25.8630 H   0  0  0  0  0  0  0  0  0  0  0  0
  -18.7370    2.5380  -28.2340 H   0  0  0  0  0  0  0  0  0  0  0  0
  -21.0520    0.1010  -28.5230 H   0  0  0  0  0  0  0  0  0  0  0  0
  -19.8920    0.3680  -29.8930 H   0  0  0  0  0  0  0  0  0  0  0  0
  -15.8600    2.2800  -25.5380 H   0  0  0  0  0  0  0  0  0  0  0  0
  -15.4310    3.4460  -27.2990 H   0  0  0  0  0  0  0  0  0  0  0  0
  -18.6560    3.2850  -25.3480 H   0  0  0  0  0  0  0  0  0  0  0  0
  -17.3980    4.5320  -25.1340 H   0  0  0  0  0  0  0  0  0  0  0  0
  -16.5900    2.1690  -23.6820 H   0  0  0  0  0  0  0  0  0  0  0  0
  -17.1670    3.7540  -22.9560 H   0  0  0  0  0  0  0  0  0  0  0  0
  -18.3150    2.4310  -23.2800 H   0  0  0  0  0  0  0  0  0  0  0  0
  -20.9220    0.7480  -33.9040 H   0  0  0  0  0  0  0  0  0  0  0  0
  -22.3770    0.5430  -35.8990 H   0  0  0  0  0  0  0  0  0  0  0  0
  1  2  1  0  0  0  0
  2 26  2  0  0  0  0
  2  3  1  0  0  0  0
  3  4  1  0  0  0  0
  4  5  1  0  0  0  0
  4  9  1  0  0  0  0
  5  6  1  0  0  0  0
  6  7  2  0  0  0  0
  7 11  1  0  0  0  0
  8  7  1  0  0  0  0
  8 28  1  0  0  0  0
  9  8  1  0  0  0  0
 10  9  2  0  0  0  0
 11 29  1  0  0  0  0
 11 12  1  0  0  0  0
 12 20  1  0  0  0  0
 12 13  1  0  0  0  0
 13 31  1  0  0  0  0
 13 14  1  0  0  0  0
 14 34  1  0  0  0  0
 15 14  1  0  0  0  0
 15 16  1  0  0  0  0
 17 16  2  0  0  0  0
 17 21  1  0  0  0  0
 18 17  1  0  0  0  0
 19 18  2  0  0  0  0
 19 15  1  0  0  0  0
 20 36  1  0  0  0  0
 20 19  1  0  0  0  0
 21 38  1  1  0  0  0
 21 23  1  0  0  0  0
 22 21  1  0  0  0  0
 23 24  1  0  0  0  0
 24 44  1  0  0  0  0
 24 43  1  0  0  0  0
 25 45  1  0  0  0  0
 25  5  2  0  0  0  0
 26 25  1  0  0  0  0
 27  3  1  0  0  0  0
 30 11  1  0  0  0  0
 32 13  1  0  0  0  0
 33 14  1  0  0  0  0
 35 18  1  0  0  0  0
 37 20  1  0  0  0  0
 39 22  1  0  0  0  0
 40 23  1  0  0  0  0
 41 23  1  0  0  0  0
 42 24  1  0  0  0  0
 46 26  1  0  0  0  0
M  END
>  <Pose>
1

>  <Score>
-6.24

$$$$
