
 OpenBabel03222201593D

 41 44  0  0  0  0  0  0  0  0999 V2000
  -21.4860   -3.6690  -32.7900 Cl  0  0  0  0  0  0  0  0  0  0  0  0
  -20.9470   -3.8140  -31.1270 C   0  0  0  0  0  0  0  0  0  0  0  0
  -20.4340   -2.7270  -30.4550 C   0  0  0  0  0  0  0  0  0  0  0  0
  -20.0260   -2.8770  -29.1650 N   0  0  0  0  0  0  0  0  0  0  0  0
  -20.1310   -4.0720  -28.5740 C   0  0  0  0  0  0  0  0  0  0  0  0
  -19.6700   -3.9750  -27.3170 N   0  0  0  0  0  0  0  0  0  0  0  0
  -19.2690   -2.7240  -27.0910 C   0  0  0  0  0  0  0  0  0  0  0  0
  -19.4990   -2.0170  -28.2830 C   0  0  0  0  0  0  0  0  0  0  0  0
  -18.7030   -2.1540  -25.8810 C   0  0  0  0  0  0  0  0  0  0  0  0
  -19.0460   -2.6990  -24.7670 O   0  0  0  0  0  0  0  0  0  0  0  0
  -17.8340   -1.0830  -25.8030 N   0  0  0  0  0  0  0  0  0  0  0  0
  -17.8880    0.0630  -26.6790 C   0  0  0  0  0  0  0  0  0  0  0  0
  -18.3280    1.3000  -25.9250 C   0  0  0  0  0  0  0  0  0  0  0  0
  -17.7380    1.2770  -24.5430 C   0  0  0  0  0  0  0  0  0  0  0  0
  -17.0250    0.2350  -24.0160 C   0  0  0  0  0  0  0  0  0  0  0  0
  -16.6850    0.6280  -22.7610 N   0  0  0  0  0  0  0  0  0  0  0  0
  -17.1470    1.8310  -22.5050 N   0  0  0  0  0  0  0  0  0  0  0  0
  -17.8110    2.2890  -23.5740 C   0  0  0  0  0  0  0  0  0  0  0  0
  -18.4000    3.4080  -23.7160 O   0  0  0  0  0  0  0  0  0  0  0  0
  -16.9960    2.6080  -21.2670 C   0  0  0  0  0  0  0  0  0  0  0  0
  -15.8540    3.5910  -21.3860 C   0  0  0  0  0  0  0  0  0  0  0  0
  -14.7050    3.1440  -20.7450 O   0  0  0  0  0  0  0  0  0  0  0  0
  -16.7560   -1.0130  -24.7870 C   0  0  0  0  0  0  0  0  0  0  0  0
  -20.6510   -5.1980  -29.2360 C   0  0  0  0  0  0  0  0  0  0  0  0
  -21.0600   -5.0550  -30.5260 C   0  0  0  0  0  0  0  0  0  0  0  0
  -20.3460   -1.7600  -30.9230 H   0  0  0  0  0  0  0  0  0  0  0  0
  -19.2800   -0.9600  -28.4400 H   0  0  0  0  0  0  0  0  0  0  0  0
  -18.4580   -0.0450  -27.5870 H   0  0  0  0  0  0  0  0  0  0  0  0
  -16.8070    0.2070  -27.0140 H   0  0  0  0  0  0  0  0  0  0  0  0
  -19.4100    1.4100  -25.8720 H   0  0  0  0  0  0  0  0  0  0  0  0
  -17.9340    2.1790  -26.5060 H   0  0  0  0  0  0  0  0  0  0  0  0
  -16.1260    0.0130  -22.1210 H   0  0  0  0  0  0  0  0  0  0  0  0
  -16.7120    1.8800  -20.4790 H   0  0  0  0  0  0  0  0  0  0  0  0
  -17.9190    3.0980  -20.9660 H   0  0  0  0  0  0  0  0  0  0  0  0
  -15.6110    3.6610  -22.4660 H   0  0  0  0  0  0  0  0  0  0  0  0
  -16.1260    4.5720  -20.9810 H   0  0  0  0  0  0  0  0  0  0  0  0
  -14.3400    2.3090  -21.1650 H   0  0  0  0  0  0  0  0  0  0  0  0
  -15.7800   -0.9910  -25.3000 H   0  0  0  0  0  0  0  0  0  0  0  0
  -16.8930   -1.8980  -24.1350 H   0  0  0  0  0  0  0  0  0  0  0  0
  -20.7150   -6.1530  -28.7090 H   0  0  0  0  0  0  0  0  0  0  0  0
  -21.4660   -5.9200  -31.0560 H   0  0  0  0  0  0  0  0  0  0  0  0
  1  2  1  0  0  0  0
  2 25  1  0  0  0  0
  2  3  2  0  0  0  0
  3  4  1  0  0  0  0
  4  5  1  0  0  0  0
  4  8  1  0  0  0  0
  5  6  2  0  0  0  0
  6  7  1  0  0  0  0
  7  9  1  0  0  0  0
  8  7  2  0  0  0  0
  9 11  1  0  0  0  0
  9 10  2  0  0  0  0
 11 23  1  0  0  0  0
 12 13  1  0  0  0  0
 12 11  1  0  0  0  0
 13 30  1  0  0  0  0
 13 14  1  0  0  0  0
 14 15  2  0  0  0  0
 14 18  1  0  0  0  0
 15 16  1  0  0  0  0
 16 17  1  0  0  0  0
 16 32  1  0  0  0  0
 17 20  1  0  0  0  0
 18 17  1  0  0  0  0
 19 18  2  0  0  0  0
 20 34  1  0  0  0  0
 20 33  1  0  0  0  0
 21 20  1  0  0  0  0
 21 36  1  0  0  0  0
 21 22  1  0  0  0  0
 23 39  1  0  0  0  0
 23 15  1  0  0  0  0
 24 40  1  0  0  0  0
 24  5  1  0  0  0  0
 25 24  2  0  0  0  0
 26  3  1  0  0  0  0
 27  8  1  0  0  0  0
 28 12  1  0  0  0  0
 29 12  1  0  0  0  0
 31 13  1  0  0  0  0
 35 21  1  0  0  0  0
 37 22  1  0  0  0  0
 38 23  1  0  0  0  0
 41 25  1  0  0  0  0
M  END
>  <Pose>
1

>  <Score>
-6.77

$$$$
