
 OpenBabel03222201593D

 44 47  0  0  0  0  0  0  0  0999 V2000
  -24.0240    0.4380  -34.5080 S   0  0  0  0  0  0  0  0  0  0  0  0
  -23.7490    1.8020  -34.1160 O   0  0  0  0  0  0  0  0  0  0  0  0
  -25.2680   -0.0930  -33.8610 O   0  0  0  0  0  0  0  0  0  0  0  0
  -24.2270    0.2460  -36.2970 C   0  0  0  0  0  0  0  0  0  0  0  0
  -22.7140   -0.6710  -34.0640 C   0  0  0  0  0  0  0  0  0  0  0  0
  -21.4970   -0.1610  -33.8460 N   0  0  0  0  0  0  0  0  0  0  0  0
  -20.4480   -0.8700  -33.4380 C   0  0  0  0  0  0  0  0  0  0  0  0
  -20.6500   -2.2420  -33.2180 C   0  0  0  0  0  0  0  0  0  0  0  0
  -21.8800   -2.7510  -33.4400 C   0  0  0  0  0  0  0  0  0  0  0  0
  -22.9070   -1.9630  -33.8650 N   0  0  0  0  0  0  0  0  0  0  0  0
  -22.0800   -4.1090  -33.2360 O   0  0  0  0  0  0  0  0  0  0  0  0
  -19.5070   -2.9490  -32.6360 C   0  0  0  0  0  0  0  0  0  0  0  0
  -19.1040   -2.1670  -31.5080 N   0  0  0  0  0  0  0  0  0  0  0  0
  -18.2890   -1.0460  -32.1550 C   0  0  0  0  0  0  0  0  0  0  0  0
  -19.0940   -0.3170  -33.1730 C   0  0  0  0  0  0  0  0  0  0  0  0
  -20.1710   -1.3480  -30.8270 C   0  0  0  0  0  0  0  0  0  0  0  0
  -19.7000   -1.4990  -29.3780 C   0  0  0  0  0  0  0  0  0  0  0  0
  -19.4020   -0.4960  -28.5410 C   0  0  0  0  0  0  0  0  0  0  0  0
  -18.9700   -0.6830  -27.2000 C   0  0  0  0  0  0  0  0  0  0  0  0
  -18.8820   -2.0200  -26.8040 C   0  0  0  0  0  0  0  0  0  0  0  0
  -18.4720   -2.2620  -25.5260 C   0  0  0  0  0  0  0  0  0  0  0  0
  -18.1360   -1.2560  -24.5930 C   0  0  0  0  0  0  0  0  0  0  0  0
  -18.2470    0.0740  -25.0370 C   0  0  0  0  0  0  0  0  0  0  0  0
  -18.6570    0.2980  -26.3210 C   0  0  0  0  0  0  0  0  0  0  0  0
  -19.1770   -2.9910  -27.5980 O   0  0  0  0  0  0  0  0  0  0  0  0
  -19.5790   -2.7870  -28.8610 C   0  0  0  0  0  0  0  0  0  0  0  0
  -19.8600   -3.7710  -29.6480 O   0  0  0  0  0  0  0  0  0  0  0  0
  -19.6100    1.1280  -29.1030 Cl  0  0  0  0  0  0  0  0  0  0  0  0
  -24.0720   -0.8690  -36.5250 H   0  0  0  0  0  0  0  0  0  0  0  0
  -23.3660    0.7770  -36.7970 H   0  0  0  0  0  0  0  0  0  0  0  0
  -25.1920    0.6160  -36.6490 H   0  0  0  0  0  0  0  0  0  0  0  0
  -21.4570   -4.8380  -33.5970 H   0  0  0  0  0  0  0  0  0  0  0  0
  -19.6480   -4.0410  -32.4660 H   0  0  0  0  0  0  0  0  0  0  0  0
  -18.6360   -2.8480  -33.4060 H   0  0  0  0  0  0  0  0  0  0  0  0
  -17.9670   -0.3990  -31.2790 H   0  0  0  0  0  0  0  0  0  0  0  0
  -17.4300   -1.5630  -32.5680 H   0  0  0  0  0  0  0  0  0  0  0  0
  -19.2050    0.7390  -32.7550 H   0  0  0  0  0  0  0  0  0  0  0  0
  -18.5130   -0.2080  -34.0910 H   0  0  0  0  0  0  0  0  0  0  0  0
  -20.1410   -0.3150  -31.1100 H   0  0  0  0  0  0  0  0  0  0  0  0
  -21.1020   -1.9050  -30.9720 H   0  0  0  0  0  0  0  0  0  0  0  0
  -18.4060   -3.2660  -25.1080 H   0  0  0  0  0  0  0  0  0  0  0  0
  -17.7920   -1.4930  -23.5670 H   0  0  0  0  0  0  0  0  0  0  0  0
  -18.0250    0.8090  -24.3270 H   0  0  0  0  0  0  0  0  0  0  0  0
  -18.6750    1.3230  -26.7240 H   0  0  0  0  0  0  0  0  0  0  0  0
  1  2  2  0  0  0  0
  1  5  1  0  0  0  0
  1  3  2  0  0  0  0
  4  1  1  0  0  0  0
  5 10  1  0  0  0  0
  5  6  2  0  0  0  0
  6  7  1  0  0  0  0
  7  8  2  0  0  0  0
  7 15  1  0  0  0  0
  8 12  1  0  0  0  0
  9 11  1  0  0  0  0
  9  8  1  0  0  0  0
 10  9  2  0  0  0  0
 12 33  1  0  0  0  0
 12 13  1  0  0  0  0
 13 16  1  0  0  0  0
 14 13  1  0  0  0  0
 14 35  1  0  0  0  0
 15 37  1  0  0  0  0
 15 14  1  0  0  0  0
 16 17  1  0  0  0  0
 17 26  1  0  0  0  0
 17 18  2  0  0  0  0
 18 19  1  0  0  0  0
 19 20  2  0  0  0  0
 19 24  1  0  0  0  0
 20 21  1  0  0  0  0
 21 41  1  0  0  0  0
 21 22  2  0  0  0  0
 22 42  1  0  0  0  0
 23 22  1  0  0  0  0
 23 43  1  0  0  0  0
 24 23  2  0  0  0  0
 25 20  1  0  0  0  0
 26 25  1  0  0  0  0
 27 26  2  0  0  0  0
 28 18  1  0  0  0  0
 29  4  1  0  0  0  0
 30  4  1  0  0  0  0
 31  4  1  0  0  0  0
 32 11  1  0  0  0  0
 34 12  1  0  0  0  0
 36 14  1  0  0  0  0
 38 15  1  0  0  0  0
 39 16  1  0  0  0  0
 40 16  1  0  0  0  0
 44 24  1  0  0  0  0
M  END
>  <Pose>
1

>  <Score>
-6.17

$$$$
