
 OpenBabel03222201593D

 63 66  0  0  0  0  0  0  0  0999 V2000
  -20.0090   -0.5770  -35.2190 S   0  0  0  0  0  0  0  0  0  0  0  0
  -18.9170   -0.9790  -36.1550 O   0  0  0  0  0  0  0  0  0  0  0  0
  -21.3570   -1.0690  -35.6830 O   0  0  0  0  0  0  0  0  0  0  0  0
  -19.7470   -1.2090  -33.6060 C   0  0  0  0  0  0  0  0  0  0  0  0
  -18.6200   -0.8670  -32.8700 C   0  0  0  0  0  0  0  0  0  0  0  0
  -18.4500   -1.3790  -31.6220 N   0  0  0  0  0  0  0  0  0  0  0  0
  -19.3310   -2.2140  -31.0540 C   0  0  0  0  0  0  0  0  0  0  0  0
  -20.4250   -2.5490  -31.7610 N   0  0  0  0  0  0  0  0  0  0  0  0
  -20.6370   -2.0690  -32.9990 C   0  0  0  0  0  0  0  0  0  0  0  0
  -19.1490   -2.7530  -29.7470 N   0  0  0  0  0  0  0  0  0  0  0  0
  -17.8400   -3.0050  -29.1950 C   0  0  0  0  0  0  0  0  0  0  0  0
  -17.5920   -2.3500  -27.8650 C   0  0  0  0  0  0  0  0  0  0  0  0
  -18.8820   -2.0810  -27.1070 C   0  0  0  0  0  0  0  0  0  0  0  0
  -19.7860   -3.2590  -27.5100 C   0  0  0  0  0  0  0  0  0  0  0  0
  -20.2850   -3.0810  -28.9050 C   0  0  0  0  0  0  0  0  0  0  0  0
  -19.5180   -0.8940  -27.4270 N   0  0  0  0  0  0  0  0  0  0  0  0
  -18.8580    0.3510  -27.3590 C   0  0  0  0  0  0  0  0  0  0  0  0
  -19.4590    1.2460  -28.4560 C   0  0  0  0  0  0  0  0  0  0  0  0
  -20.8370    0.7300  -28.7710 C   0  0  0  0  0  0  0  0  0  0  0  0
  -21.5830    0.2850  -27.5390 C   0  0  0  0  0  0  0  0  0  0  0  0
  -20.7780   -0.7370  -26.7530 C   0  0  0  0  0  0  0  0  0  0  0  0
  -18.6060   -2.2650  -25.6640 C   0  0  0  0  0  0  0  0  0  0  0  0
  -19.2250   -3.1550  -24.9900 O   0  0  0  0  0  0  0  0  0  0  0  0
  -17.6740   -1.5000  -24.9550 N   0  0  0  0  0  0  0  0  0  0  0  0
  -17.6980    0.0090  -33.4710 N   0  0  0  0  0  0  0  0  0  0  0  0
  -20.0950    1.1860  -35.0970 C   0  0  0  0  0  0  0  0  0  0  0  0
  -21.1290    1.7810  -34.4030 C   0  0  0  0  0  0  0  0  0  0  0  0
  -21.1550    3.1580  -34.3340 C   0  0  0  0  0  0  0  0  0  0  0  0
  -20.1770    3.9390  -34.9420 C   0  0  0  0  0  0  0  0  0  0  0  0
  -19.1610    3.3070  -35.6260 C   0  0  0  0  0  0  0  0  0  0  0  0
  -19.1070    1.9310  -35.7130 C   0  0  0  0  0  0  0  0  0  0  0  0
  -17.9090    4.2840  -36.4050 Cl  0  0  0  0  0  0  0  0  0  0  0  0
  -22.0720    0.9820  -33.8190 O   0  0  0  0  0  0  0  0  0  0  0  0
  -23.4350    1.2820  -33.7100 C   0  0  0  0  0  0  0  0  0  0  0  0
  -21.5310   -2.3420  -33.5780 H   0  0  0  0  0  0  0  0  0  0  0  0
  -17.7670   -4.1320  -29.1180 H   0  0  0  0  0  0  0  0  0  0  0  0
  -17.0290   -2.7440  -29.9190 H   0  0  0  0  0  0  0  0  0  0  0  0
  -17.0350   -3.0960  -27.2560 H   0  0  0  0  0  0  0  0  0  0  0  0
  -16.9440   -1.4590  -27.9180 H   0  0  0  0  0  0  0  0  0  0  0  0
  -20.5260   -3.5150  -26.7540 H   0  0  0  0  0  0  0  0  0  0  0  0
  -19.1040   -4.1680  -27.5530 H   0  0  0  0  0  0  0  0  0  0  0  0
  -21.0870   -2.3440  -29.0420 H   0  0  0  0  0  0  0  0  0  0  0  0
  -20.6510   -4.0760  -29.3130 H   0  0  0  0  0  0  0  0  0  0  0  0
  -19.1380    0.9050  -26.4110 H   0  0  0  0  0  0  0  0  0  0  0  0
  -17.7880    0.3680  -27.5070 H   0  0  0  0  0  0  0  0  0  0  0  0
  -19.4800    2.3120  -28.1340 H   0  0  0  0  0  0  0  0  0  0  0  0
  -18.8040    1.1470  -29.3720 H   0  0  0  0  0  0  0  0  0  0  0  0
  -20.7510   -0.1630  -29.4480 H   0  0  0  0  0  0  0  0  0  0  0  0
  -21.4720    1.5080  -29.2570 H   0  0  0  0  0  0  0  0  0  0  0  0
  -22.5520   -0.1550  -27.8880 H   0  0  0  0  0  0  0  0  0  0  0  0
  -21.8590    1.1740  -26.9470 H   0  0  0  0  0  0  0  0  0  0  0  0
  -21.3350   -1.6330  -26.5240 H   0  0  0  0  0  0  0  0  0  0  0  0
  -20.5470   -0.2050  -25.7780 H   0  0  0  0  0  0  0  0  0  0  0  0
  -18.0270   -0.6770  -24.3940 H   0  0  0  0  0  0  0  0  0  0  0  0
  -16.6470   -1.6540  -24.9090 H   0  0  0  0  0  0  0  0  0  0  0  0
  -16.8280   -0.3070  -33.9480 H   0  0  0  0  0  0  0  0  0  0  0  0
  -17.8820    1.0330  -33.4450 H   0  0  0  0  0  0  0  0  0  0  0  0
  -21.9520    3.6670  -33.7970 H   0  0  0  0  0  0  0  0  0  0  0  0
  -20.2400    5.0060  -34.8610 H   0  0  0  0  0  0  0  0  0  0  0  0
  -18.2870    1.4430  -36.2630 H   0  0  0  0  0  0  0  0  0  0  0  0
  -23.9260    1.1030  -34.6810 H   0  0  0  0  0  0  0  0  0  0  0  0
  -23.8950    0.5530  -32.9910 H   0  0  0  0  0  0  0  0  0  0  0  0
  -23.6450    2.2830  -33.2990 H   0  0  0  0  0  0  0  0  0  0  0  0
  1 26  1  0  0  0  0
  1  4  1  0  0  0  0
  2  1  2  0  0  0  0
  3  1  2  0  0  0  0
  4  9  1  0  0  0  0
  4  5  2  0  0  0  0
  5  6  1  0  0  0  0
  6  7  2  0  0  0  0
  7 10  1  0  0  0  0
  8  7  1  0  0  0  0
  9  8  2  0  0  0  0
 10 11  1  0  0  0  0
 10 15  1  0  0  0  0
 11 36  1  0  0  0  0
 11 12  1  0  0  0  0
 12 38  1  0  0  0  0
 12 13  1  0  0  0  0
 13 22  1  0  0  0  0
 14 13  1  0  0  0  0
 14 40  1  0  0  0  0
 15 14  1  0  0  0  0
 16 17  1  0  0  0  0
 16 13  1  0  0  0  0
 16 21  1  0  0  0  0
 17 44  1  0  0  0  0
 18 46  1  0  0  0  0
 18 17  1  0  0  0  0
 19 18  1  0  0  0  0
 19 20  1  0  0  0  0
 20 51  1  0  0  0  0
 20 21  1  0  0  0  0
 21 52  1  0  0  0  0
 21 53  1  0  0  0  0
 22 23  2  0  0  0  0
 22 24  1  0  0  0  0
 24 55  1  0  0  0  0
 24 54  1  0  0  0  0
 25 57  1  0  0  0  0
 25  5  1  0  0  0  0
 26 27  1  0  0  0  0
 27 28  2  0  0  0  0
 27 33  1  0  0  0  0
 28 58  1  0  0  0  0
 29 59  1  0  0  0  0
 29 28  1  0  0  0  0
 30 29  2  0  0  0  0
 31 30  1  0  0  0  0
 31 26  2  0  0  0  0
 32 30  1  0  0  0  0
 33 34  1  0  0  0  0
 34 63  1  0  0  0  0
 34 62  1  0  0  0  0
 35  9  1  0  0  0  0
 37 11  1  0  0  0  0
 39 12  1  0  0  0  0
 41 14  1  0  0  0  0
 42 15  1  0  0  0  0
 43 15  1  0  0  0  0
 45 17  1  0  0  0  0
 47 18  1  0  0  0  0
 48 19  1  0  0  0  0
 49 19  1  0  0  0  0
 50 20  1  0  0  0  0
 56 25  1  0  0  0  0
 60 31  1  0  0  0  0
 61 34  1  0  0  0  0
M  END
>  <Pose>
1

>  <Score>
-6.28

$$$$
