
 OpenBabel03222201593D

 61 64  0  0  1  0  0  0  0  0999 V2000
  -21.1490   -0.6970  -41.1330 Cl  0  0  0  0  0  0  0  0  0  0  0  0
  -21.4000   -0.3030  -39.4280 C   0  0  0  0  0  0  0  0  0  0  0  0
  -22.6760   -0.1310  -38.9360 C   0  0  0  0  0  0  0  0  0  0  0  0
  -22.8640    0.1690  -37.6270 C   0  0  0  0  0  0  0  0  0  0  0  0
  -21.7680    0.3090  -36.7650 C   0  0  0  0  0  0  0  0  0  0  0  0
  -20.5040    0.1340  -37.2780 C   0  0  0  0  0  0  0  0  0  0  0  0
  -20.2930   -0.1750  -38.6150 C   0  0  0  0  0  0  0  0  0  0  0  0
  -21.9580    0.6230  -35.3900 N   0  0  0  0  0  0  0  0  0  0  0  0
  -23.2080    0.2470  -34.7480 C   0  0  2  0  0  0  0  0  0  0  0  0
  -24.2660    0.6830  -35.6300 N   0  0  0  0  0  0  0  0  0  0  0  0
  -24.1740    0.3710  -37.0110 C   0  0  0  0  0  0  0  0  0  0  0  0
  -25.1800    0.2530  -37.7570 O   0  0  0  0  0  0  0  0  0  0  0  0
  -23.3020    0.9580  -33.4400 C   0  0  0  0  0  0  0  0  0  0  0  0
  -22.6330    0.2170  -32.3050 C   0  0  0  0  0  0  0  0  0  0  0  0
  -21.3060   -0.2410  -32.6630 N   0  0  0  0  0  0  0  0  0  0  0  0
  -21.0570   -1.1720  -33.7450 C   0  0  0  0  0  0  0  0  0  0  0  0
  -19.8500   -1.3590  -34.0200 O   0  0  0  0  0  0  0  0  0  0  0  0
  -22.0040   -1.9340  -34.5760 C   0  0  0  0  0  0  0  0  0  0  0  0
  -23.3410   -1.2590  -34.6420 C   0  0  0  0  0  0  0  0  0  0  0  0
  -20.1690    0.2230  -31.9790 C   0  0  0  0  0  0  0  0  0  0  0  0
  -19.7430   -0.3400  -30.7170 C   0  0  0  0  0  0  0  0  0  0  0  0
  -18.8190   -1.2840  -30.9000 O   0  0  0  0  0  0  0  0  0  0  0  0
  -20.1260   -0.0580  -29.4250 N   0  0  0  0  0  0  0  0  0  0  0  0
  -21.5070   -0.4070  -29.0030 C   0  0  0  0  0  0  0  0  0  0  0  0
  -21.3190   -1.0690  -27.6290 C   0  0  0  0  0  0  0  0  0  0  0  0
  -19.9940   -1.5650  -27.4670 N   0  0  0  0  0  0  0  0  0  0  0  0
  -18.9630   -0.5750  -27.3710 C   0  0  0  0  0  0  0  0  0  0  0  0
  -19.3420    0.5220  -28.4060 C   0  0  0  0  0  0  0  0  0  0  0  0
  -19.8410   -2.6720  -26.5850 C   0  0  0  0  0  0  0  0  0  0  0  0
  -19.6900   -4.0020  -27.2950 C   0  0  0  0  0  0  0  0  0  0  0  0
  -18.7140   -2.5080  -25.6020 C   0  0  0  0  0  0  0  0  0  0  0  0
  -23.5520   -0.2280  -39.5630 H   0  0  0  0  0  0  0  0  0  0  0  0
  -19.6530    0.2460  -36.5920 H   0  0  0  0  0  0  0  0  0  0  0  0
  -19.2960   -0.3090  -39.0050 H   0  0  0  0  0  0  0  0  0  0  0  0
  -21.1790    1.1150  -34.9050 H   0  0  0  0  0  0  0  0  0  0  0  0
  -25.0950    1.2170  -35.3050 H   0  0  0  0  0  0  0  0  0  0  0  0
  -24.3960    1.0030  -33.1700 H   0  0  0  0  0  0  0  0  0  0  0  0
  -22.9410    1.9820  -33.5720 H   0  0  0  0  0  0  0  0  0  0  0  0
  -22.6500    0.8290  -31.4060 H   0  0  0  0  0  0  0  0  0  0  0  0
  -23.2560   -0.6760  -32.1080 H   0  0  0  0  0  0  0  0  0  0  0  0
  -21.5930   -2.0270  -35.6120 H   0  0  0  0  0  0  0  0  0  0  0  0
  -22.1650   -2.9720  -34.1600 H   0  0  0  0  0  0  0  0  0  0  0  0
  -24.0000   -1.5360  -33.7950 H   0  0  0  0  0  0  0  0  0  0  0  0
  -23.8690   -1.6750  -35.5520 H   0  0  0  0  0  0  0  0  0  0  0  0
  -20.2280    1.3600  -31.7940 H   0  0  0  0  0  0  0  0  0  0  0  0
  -19.3000    0.1860  -32.7040 H   0  0  0  0  0  0  0  0  0  0  0  0
  -22.0980    0.5250  -28.8960 H   0  0  0  0  0  0  0  0  0  0  0  0
  -21.9770   -1.0620  -29.7320 H   0  0  0  0  0  0  0  0  0  0  0  0
  -21.6420   -0.3550  -26.8360 H   0  0  0  0  0  0  0  0  0  0  0  0
  -22.0110   -1.9350  -27.6180 H   0  0  0  0  0  0  0  0  0  0  0  0
  -18.0160   -1.0060  -27.7540 H   0  0  0  0  0  0  0  0  0  0  0  0
  -18.8200   -0.1360  -26.3820 H   0  0  0  0  0  0  0  0  0  0  0  0
  -18.4810    1.1180  -28.6600 H   0  0  0  0  0  0  0  0  0  0  0  0
  -20.0280    1.2620  -27.8530 H   0  0  0  0  0  0  0  0  0  0  0  0
  -20.7770   -2.7510  -25.9830 H   0  0  0  0  0  0  0  0  0  0  0  0
  -20.6120   -4.1730  -27.8980 H   0  0  0  0  0  0  0  0  0  0  0  0
  -18.7750   -4.0430  -27.8840 H   0  0  0  0  0  0  0  0  0  0  0  0
  -19.6950   -4.7880  -26.5020 H   0  0  0  0  0  0  0  0  0  0  0  0
  -17.7210   -2.6570  -26.0550 H   0  0  0  0  0  0  0  0  0  0  0  0
  -18.8160   -1.4810  -25.1430 H   0  0  0  0  0  0  0  0  0  0  0  0
  -18.8740   -3.2650  -24.8020 H   0  0  0  0  0  0  0  0  0  0  0  0
  1  2  1  0  0  0  0
  2  3  2  0  0  0  0
  2  7  1  0  0  0  0
  3  4  1  0  0  0  0
  4 11  1  0  0  0  0
  4  5  2  0  0  0  0
  5  8  1  0  0  0  0
  6  5  1  0  0  0  0
  6 33  1  0  0  0  0
  7  6  2  0  0  0  0
  8 35  1  0  0  0  0
  8  9  1  0  0  0  0
  9 10  1  6  0  0  0
  9 19  1  0  0  0  0
  9 13  1  0  0  0  0
 10 36  1  0  0  0  0
 11 10  1  0  0  0  0
 12 11  2  0  0  0  0
 13 37  1  0  0  0  0
 13 14  1  0  0  0  0
 14 40  1  0  0  0  0
 14 39  1  0  0  0  0
 15 14  1  0  0  0  0
 15 20  1  0  0  0  0
 16 15  1  0  0  0  0
 17 16  2  0  0  0  0
 18 42  1  0  0  0  0
 18 16  1  0  0  0  0
 19 18  1  0  0  0  0
 19 43  1  0  0  0  0
 20 45  1  0  0  0  0
 20 21  1  0  0  0  0
 21 23  1  0  0  0  0
 22 21  2  0  0  0  0
 23 24  1  0  0  0  0
 23 28  1  0  0  0  0
 24 47  1  0  0  0  0
 24 25  1  0  0  0  0
 25 50  1  0  0  0  0
 25 26  1  0  0  0  0
 25 49  1  0  0  0  0
 26 27  1  0  0  0  0
 26 29  1  0  0  0  0
 27 52  1  0  0  0  0
 28 54  1  0  0  0  0
 28 27  1  0  0  0  0
 29 55  1  0  0  0  0
 29 31  1  0  0  0  0
 30 29  1  0  0  0  0
 30 58  1  0  0  0  0
 31 60  1  0  0  0  0
 31 61  1  0  0  0  0
 32  3  1  0  0  0  0
 34  7  1  0  0  0  0
 38 13  1  0  0  0  0
 41 18  1  0  0  0  0
 44 19  1  0  0  0  0
 46 20  1  0  0  0  0
 48 24  1  0  0  0  0
 51 27  1  0  0  0  0
 53 28  1  0  0  0  0
 56 30  1  0  0  0  0
 57 30  1  0  0  0  0
 59 31  1  0  0  0  0
M  END
>  <Pose>
1

>  <Score>
-5.27

$$$$
