
 OpenBabel03222201593D

 61 64  0  0  1  0  0  0  0  0999 V2000
  -17.9560   -1.7730  -25.7520 B   0  0  0  0  0  0  0  0  0  0  0  0
  -18.7170   -1.5100  -27.5040 C   0  0  0  0  0  0  0  0  0  0  0  0
  -19.6780   -2.3540  -27.9960 C   0  0  0  0  0  0  0  0  0  0  0  0
  -20.2590   -2.2090  -29.2520 C   0  0  0  0  0  0  0  0  0  0  0  0
  -19.8480   -1.1620  -30.0450 C   0  0  0  0  0  0  0  0  0  0  0  0
  -18.8750   -0.3150  -29.5350 C   0  0  0  0  0  0  0  0  0  0  0  0
  -18.3010   -0.4590  -28.2940 C   0  0  0  0  0  0  0  0  0  0  0  0
  -20.4250   -0.9160  -31.3590 C   0  0  0  0  0  0  0  0  0  0  0  0
  -21.2380    0.0710  -31.4090 O   0  0  0  0  0  0  0  0  0  0  0  0
  -20.1540   -1.6880  -32.5720 C   0  0  2  0  0  0  0  0  0  0  0  0
  -20.8470   -1.1860  -33.8100 C   0  0  1  0  0  0  0  0  0  0  0  0
  -22.0910   -1.8140  -33.8670 N   0  0  0  0  0  0  0  0  0  0  0  0
  -21.7560   -3.1890  -33.4250 C   0  0  0  0  0  0  0  0  0  0  0  0
  -22.2980   -4.2620  -33.8040 O   0  0  0  0  0  0  0  0  0  0  0  0
  -20.6770   -3.0670  -32.4580 C   0  0  0  0  0  0  0  0  0  0  0  0
  -20.2790   -3.9810  -31.6810 O   0  0  0  0  0  0  0  0  0  0  0  0
  -23.4380   -1.6060  -34.3000 C   0  0  0  0  0  0  0  0  0  0  0  0
  -23.6350   -0.9880  -35.6320 C   0  0  0  0  0  0  0  0  0  0  0  0
  -22.9040   -1.3830  -36.7600 N   0  0  0  0  0  4  0  0  0  0  0  0
  -23.6810   -2.2250  -37.6790 C   0  0  0  0  0  0  0  0  0  0  0  0
  -24.8520   -1.5120  -38.2670 C   0  0  0  0  0  0  0  0  0  0  0  0
  -24.7960   -0.1760  -37.9380 O   0  0  0  0  0  0  0  0  0  0  0  0
  -23.5540    0.3190  -38.3680 C   0  0  0  0  0  0  0  0  0  0  0  0
  -22.4320   -0.1920  -37.4890 C   0  0  0  0  0  0  0  0  0  0  0  0
  -20.5500    0.1720  -34.1920 C   0  0  0  0  0  0  0  0  0  0  0  0
  -19.3160    0.6640  -34.4760 C   0  0  0  0  0  0  0  0  0  0  0  0
  -19.1380    1.9860  -34.8540 C   0  0  0  0  0  0  0  0  0  0  0  0
  -20.2560    2.8280  -34.9410 C   0  0  0  0  0  0  0  0  0  0  0  0
  -21.4960    2.3320  -34.6560 C   0  0  0  0  0  0  0  0  0  0  0  0
  -21.6690    1.0350  -34.2870 C   0  0  0  0  0  0  0  0  0  0  0  0
  -20.1350    4.1530  -35.3120 O   0  0  0  0  0  0  0  0  0  0  0  0
  -17.9180    2.5060  -35.1470 O   0  0  0  0  0  0  0  0  0  0  0  0
  -17.0510    3.0480  -34.2040 C   0  0  0  0  0  0  0  0  0  0  0  0
  -17.6090    4.2650  -33.4890 C   0  0  0  0  0  0  0  0  0  0  0  0
  -20.0180   -3.1910  -27.3820 H   0  0  0  0  0  0  0  0  0  0  0  0
  -20.9970   -2.9360  -29.5650 H   0  0  0  0  0  0  0  0  0  0  0  0
  -18.5090    0.5390  -30.1270 H   0  0  0  0  0  0  0  0  0  0  0  0
  -17.5400    0.2130  -27.9140 H   0  0  0  0  0  0  0  0  0  0  0  0
  -19.0330   -1.7430  -32.7600 H   0  0  0  0  0  0  0  0  0  0  0  0
  -20.2450   -1.8490  -34.6470 H   0  0  0  0  0  0  0  0  0  0  0  0
  -24.0190   -2.5750  -34.3130 H   0  0  0  0  0  0  0  0  0  0  0  0
  -23.9260   -0.9150  -33.5500 H   0  0  0  0  0  0  0  0  0  0  0  0
  -23.5270    0.1560  -35.5600 H   0  0  0  0  0  0  0  0  0  0  0  0
  -24.7500   -1.0410  -35.9220 H   0  0  0  0  0  0  0  0  0  0  0  0
  -22.0680   -1.9120  -36.5240 H   0  0  0  0  0  0  0  0  0  0  0  0
  -23.9150   -3.1610  -37.1600 H   0  0  0  0  0  0  0  0  0  0  0  0
  -22.9720   -2.4730  -38.5060 H   0  0  0  0  0  0  0  0  0  0  0  0
  -24.8570   -1.5940  -39.3760 H   0  0  0  0  0  0  0  0  0  0  0  0
  -25.7730   -1.9560  -37.8200 H   0  0  0  0  0  0  0  0  0  0  0  0
  -23.3300    0.0600  -39.4040 H   0  0  0  0  0  0  0  0  0  0  0  0
  -23.6010    1.4220  -38.2220 H   0  0  0  0  0  0  0  0  0  0  0  0
  -21.5180   -0.4460  -38.0570 H   0  0  0  0  0  0  0  0  0  0  0  0
  -22.1360    0.5330  -36.7040 H   0  0  0  0  0  0  0  0  0  0  0  0
  -18.4050    0.0610  -34.4000 H   0  0  0  0  0  0  0  0  0  0  0  0
  -22.3730    2.9960  -34.7260 H   0  0  0  0  0  0  0  0  0  0  0  0
  -22.6680    0.6740  -34.0660 H   0  0  0  0  0  0  0  0  0  0  0  0
  -16.7630    2.2990  -33.4280 H   0  0  0  0  0  0  0  0  0  0  0  0
  -16.0850    3.3680  -34.6680 H   0  0  0  0  0  0  0  0  0  0  0  0
  -17.9000    3.9570  -32.4490 H   0  0  0  0  0  0  0  0  0  0  0  0
  -16.8290    5.0350  -33.4000 H   0  0  0  0  0  0  0  0  0  0  0  0
  -18.5020    4.6570  -33.9740 H   0  0  0  0  0  0  0  0  0  0  0  0
  2  1  1  0  0  0  0
  3  2  1  0  0  0  0
  3 35  1  0  0  0  0
  4  3  2  0  0  0  0
  5  6  2  0  0  0  0
  5  4  1  0  0  0  0
  6  7  1  0  0  0  0
  7 38  1  0  0  0  0
  7  2  2  0  0  0  0
  8  5  1  0  0  0  0
  9  8  2  0  0  0  0
 10 39  1  6  0  0  0
 10 15  1  0  0  0  0
 10  8  1  0  0  0  0
 11 40  1  6  0  0  0
 11 10  1  0  0  0  0
 12 11  1  0  0  0  0
 12 13  1  0  0  0  0
 13 15  1  0  0  0  0
 14 13  2  0  0  0  0
 15 16  2  0  0  0  0
 17 12  1  0  0  0  0
 17 42  1  0  0  0  0
 18 43  1  0  0  0  0
 18 17  1  0  0  0  0
 19 45  1  0  0  0  0
 19 18  1  0  0  0  0
 20 46  1  0  0  0  0
 20 19  1  0  0  0  0
 21 22  1  0  0  0  0
 21 49  1  0  0  0  0
 21 20  1  0  0  0  0
 23 51  1  0  0  0  0
 23 22  1  0  0  0  0
 23 24  1  0  0  0  0
 24 19  1  0  0  0  0
 24 53  1  0  0  0  0
 25 11  1  0  0  0  0
 26 54  1  0  0  0  0
 26 25  2  0  0  0  0
 27 26  1  0  0  0  0
 28 27  2  0  0  0  0
 28 29  1  0  0  0  0
 29 30  2  0  0  0  0
 30 25  1  0  0  0  0
 30 56  1  0  0  0  0
 31 28  1  0  0  0  0
 32 27  1  0  0  0  0
 32 33  1  0  0  0  0
 33 34  1  0  0  0  0
 33 57  1  0  0  0  0
 34 60  1  0  0  0  0
 34 59  1  0  0  0  0
 36  4  1  0  0  0  0
 37  6  1  0  0  0  0
 41 17  1  0  0  0  0
 44 18  1  0  0  0  0
 47 20  1  0  0  0  0
 48 21  1  0  0  0  0
 50 23  1  0  0  0  0
 52 24  1  0  0  0  0
 55 29  1  0  0  0  0
 58 33  1  0  0  0  0
 61 34  1  0  0  0  0
M  END
>  <Pose>
1

>  <Score>
-6.79

$$$$
