
 OpenBabel03222201593D

 49 52  0  0  1  0  0  0  0  0999 V2000
  -17.6710    3.2540  -36.3840 Cl  0  0  0  0  0  0  0  0  0  0  0  0
  -19.0050    2.2860  -35.8020 C   0  0  0  0  0  0  0  0  0  0  0  0
  -18.9200    0.9000  -35.8260 C   0  0  0  0  0  0  0  0  0  0  0  0
  -19.9660    0.1190  -35.3670 C   0  0  0  0  0  0  0  0  0  0  0  0
  -20.1840   -1.2010  -35.2620 N   0  0  0  0  0  0  0  0  0  0  0  0
  -21.4110   -1.4580  -34.7300 C   0  0  0  0  0  0  0  0  0  0  0  0
  -21.9490   -0.2290  -34.5090 N   0  0  0  0  0  0  0  0  0  0  0  0
  -21.0970    0.7330  -34.8850 C   0  0  0  0  0  0  0  0  0  0  0  0
  -21.1760    2.1090  -34.8640 C   0  0  0  0  0  0  0  0  0  0  0  0
  -20.1360    2.9070  -35.3200 C   0  0  0  0  0  0  0  0  0  0  0  0
  -21.9670   -2.7990  -34.4660 C   0  0  0  0  0  0  0  0  0  0  0  0
  -22.2350   -3.0030  -33.0060 C   0  0  0  0  0  0  0  0  0  0  0  0
  -20.9660   -3.0850  -32.2550 C   0  0  0  0  0  0  0  0  0  0  0  0
  -20.4770   -4.2190  -32.0330 O   0  0  0  0  0  0  0  0  0  0  0  0
  -20.2770   -1.9510  -31.7730 N   0  0  0  0  0  0  0  0  0  0  0  0
  -20.6040   -1.0290  -30.7060 C   0  0  0  0  0  0  0  0  0  0  0  0
  -19.3130   -0.7770  -30.0650 C   0  0  2  0  0  0  0  0  0  0  0  0
  -18.2320   -1.3490  -30.9850 C   0  0  1  0  0  0  0  0  0  0  0  0
  -19.0290   -1.4650  -32.3020 C   0  0  0  0  0  0  0  0  0  0  0  0
  -17.1550   -0.5130  -31.1370 O   0  0  0  0  0  0  0  0  0  0  0  0
  -19.0760   -1.1160  -28.7160 N   0  0  0  0  0  0  0  0  0  0  0  0
  -19.3690   -2.3870  -28.3280 C   0  0  0  0  0  0  0  0  0  0  0  0
  -19.1700   -2.8170  -27.0350 C   0  0  0  0  0  0  0  0  0  0  0  0
  -18.6620   -1.9570  -26.0900 C   0  0  0  0  0  0  0  0  0  0  0  0
  -18.4700   -2.3260  -24.8930 O   0  0  0  0  0  0  0  0  0  0  0  0
  -18.3730   -0.7040  -26.4730 N   0  0  0  0  0  0  0  0  0  0  0  0
  -18.5870   -0.3440  -27.7410 C   0  0  0  0  0  0  0  0  0  0  0  0
  -18.2980    0.8320  -28.0420 O   0  0  0  0  0  0  0  0  0  0  0  0
  -19.4970   -4.2210  -26.6230 C   0  0  0  0  0  0  0  0  0  0  0  0
  -18.0350    0.3970  -36.2030 H   0  0  0  0  0  0  0  0  0  0  0  0
  -19.4640   -1.9010  -35.5670 H   0  0  0  0  0  0  0  0  0  0  0  0
  -22.0460    2.6260  -34.4930 H   0  0  0  0  0  0  0  0  0  0  0  0
  -20.2290    3.9780  -35.2900 H   0  0  0  0  0  0  0  0  0  0  0  0
  -21.2140   -3.5550  -34.7900 H   0  0  0  0  0  0  0  0  0  0  0  0
  -22.9210   -2.9410  -35.0560 H   0  0  0  0  0  0  0  0  0  0  0  0
  -22.7520   -2.0780  -32.6100 H   0  0  0  0  0  0  0  0  0  0  0  0
  -22.9340   -3.8290  -32.8070 H   0  0  0  0  0  0  0  0  0  0  0  0
  -21.4620   -1.3470  -30.1060 H   0  0  0  0  0  0  0  0  0  0  0  0
  -20.9800   -0.1080  -31.2500 H   0  0  0  0  0  0  0  0  0  0  0  0
  -19.1100    0.3430  -30.1210 H   0  0  0  0  0  0  0  0  0  0  0  0
  -17.9520   -2.3830  -30.7220 H   0  0  0  0  0  0  0  0  0  0  0  0
  -18.5370   -2.1750  -32.9990 H   0  0  0  0  0  0  0  0  0  0  0  0
  -19.1020   -0.4390  -32.7170 H   0  0  0  0  0  0  0  0  0  0  0  0
  -16.6350   -0.8190  -31.9220 H   0  0  0  0  0  0  0  0  0  0  0  0
  -19.7660   -3.1270  -29.0050 H   0  0  0  0  0  0  0  0  0  0  0  0
  -17.9800   -0.0160  -25.7590 H   0  0  0  0  0  0  0  0  0  0  0  0
  -20.0160   -4.7530  -27.4630 H   0  0  0  0  0  0  0  0  0  0  0  0
  -18.6180   -4.7550  -26.2770 H   0  0  0  0  0  0  0  0  0  0  0  0
  -20.2390   -4.1790  -25.7800 H   0  0  0  0  0  0  0  0  0  0  0  0
  1  2  1  0  0  0  0
  2 10  1  0  0  0  0
  3  2  2  0  0  0  0
  3  4  1  0  0  0  0
  4  5  1  0  0  0  0
  4  8  2  0  0  0  0
  5  6  1  0  0  0  0
  6  7  2  0  0  0  0
  6 11  1  0  0  0  0
  8  9  1  0  0  0  0
  8  7  1  0  0  0  0
  9 32  1  0  0  0  0
 10 33  1  0  0  0  0
 10  9  2  0  0  0  0
 11 12  1  0  0  0  0
 12 37  1  0  0  0  0
 12 36  1  0  0  0  0
 12 13  1  0  0  0  0
 13 14  2  0  0  0  0
 13 15  1  0  0  0  0
 15 16  1  0  0  0  0
 16 38  1  0  0  0  0
 16 17  1  0  0  0  0
 17 40  1  6  0  0  0
 17 21  1  0  0  0  0
 18 41  1  1  0  0  0
 18 17  1  0  0  0  0
 19 15  1  0  0  0  0
 19 18  1  0  0  0  0
 20 18  1  0  0  0  0
 21 22  1  0  0  0  0
 21 27  1  0  0  0  0
 22 23  2  0  0  0  0
 23 29  1  0  0  0  0
 23 24  1  0  0  0  0
 24 25  2  0  0  0  0
 26 24  1  0  0  0  0
 26 46  1  0  0  0  0
 27 26  1  0  0  0  0
 28 27  2  0  0  0  0
 29 48  1  0  0  0  0
 29 49  1  0  0  0  0
 30  3  1  0  0  0  0
 31  5  1  0  0  0  0
 34 11  1  0  0  0  0
 35 11  1  0  0  0  0
 39 16  1  0  0  0  0
 42 19  1  0  0  0  0
 43 19  1  0  0  0  0
 44 20  1  0  0  0  0
 45 22  1  0  0  0  0
 47 29  1  0  0  0  0
M  END
>  <Pose>
1

>  <Score>
-7.88

$$$$
