
 OpenBabel03222201593D

 50 53  0  0  1  0  0  0  0  0999 V2000
  -22.6690    1.0120  -33.9170 Cl  0  0  0  0  0  0  0  0  0  0  0  0
  -21.1280    0.5160  -33.2970 C   0  0  0  0  0  0  0  0  0  0  0  0
  -21.0350   -0.2150  -32.1210 C   0  0  0  0  0  0  0  0  0  0  0  0
  -19.8160   -0.6170  -31.6150 C   0  0  0  0  0  0  0  0  0  0  0  0
  -18.6890   -0.2740  -32.3080 C   0  0  0  0  0  0  0  0  0  0  0  0
  -18.7400    0.4610  -33.4970 C   0  0  0  0  0  0  0  0  0  0  0  0
  -19.9740    0.8460  -33.9740 C   0  0  0  0  0  0  0  0  0  0  0  0
  -17.5390   -0.7560  -31.6250 N   0  0  0  0  0  0  0  0  0  0  0  0
  -17.9730   -1.4260  -30.4520 C   0  0  0  0  0  0  0  0  0  0  0  0
  -17.1390   -1.9290  -29.6310 O   0  0  0  0  0  0  0  0  0  0  0  0
  -19.4300   -1.3920  -30.4380 C   0  0  2  0  0  0  0  0  0  0  0  0
  -20.0130   -2.7360  -30.4550 N   0  0  0  0  0  0  0  0  0  0  0  0
  -19.7950   -3.1520  -29.0880 C   0  0  1  0  0  0  0  0  0  0  0  0
  -20.0610   -1.9520  -28.2370 C   0  0  2  0  0  0  0  0  0  0  0  0
  -20.0620   -0.8190  -29.2180 C   0  0  1  0  0  0  0  0  0  0  0  0
  -19.3200    0.3110  -28.6070 C   0  0  0  0  0  0  0  0  0  0  0  0
  -19.2730    1.4390  -29.1640 O   0  0  0  0  0  0  0  0  0  0  0  0
  -18.7540   -0.1520  -27.3920 N   0  0  0  0  0  0  0  0  0  0  0  0
  -18.8960   -1.5780  -27.3730 C   0  0  0  0  0  0  0  0  0  0  0  0
  -18.2040   -2.4010  -26.7650 O   0  0  0  0  0  0  0  0  0  0  0  0
  -18.1640    0.6370  -26.3790 C   0  0  0  0  0  0  0  0  0  0  0  0
  -18.4330    2.0900  -26.3470 C   0  0  0  0  0  0  0  0  0  0  0  0
  -17.3180    3.0090  -26.6710 C   0  0  0  0  0  0  0  0  0  0  0  0
  -17.3730    3.6210  -27.9140 O   0  0  0  0  0  0  0  0  0  0  0  0
  -16.7370    4.8800  -27.7920 C   0  0  0  0  0  0  0  0  0  0  0  0
  -20.6340   -4.3440  -28.7070 C   0  0  1  0  0  0  0  0  0  0  0  0
  -20.5050   -5.2920  -29.7150 O   0  0  0  0  0  0  0  0  0  0  0  0
  -20.2320   -4.9380  -27.3820 C   0  0  0  0  0  0  0  0  0  0  0  0
  -21.9460   -0.4860  -31.5700 H   0  0  0  0  0  0  0  0  0  0  0  0
  -17.8380    0.7290  -34.0420 H   0  0  0  0  0  0  0  0  0  0  0  0
  -19.9830    1.4170  -34.9020 H   0  0  0  0  0  0  0  0  0  0  0  0
  -16.5290   -0.6400  -31.9340 H   0  0  0  0  0  0  0  0  0  0  0  0
  -21.0390   -2.5890  -30.5820 H   0  0  0  0  0  0  0  0  0  0  0  0
  -18.7420   -3.4660  -28.9520 H   0  0  0  0  0  0  0  0  0  0  0  0
  -20.9570   -2.0200  -27.6170 H   0  0  0  0  0  0  0  0  0  0  0  0
  -21.1030   -0.5080  -29.4870 H   0  0  0  0  0  0  0  0  0  0  0  0
  -17.0480    0.4540  -26.2830 H   0  0  0  0  0  0  0  0  0  0  0  0
  -18.5400    0.2310  -25.3840 H   0  0  0  0  0  0  0  0  0  0  0  0
  -18.9550    2.4250  -25.4120 H   0  0  0  0  0  0  0  0  0  0  0  0
  -19.2280    2.2760  -27.1380 H   0  0  0  0  0  0  0  0  0  0  0  0
  -17.2220    3.8560  -25.9270 H   0  0  0  0  0  0  0  0  0  0  0  0
  -16.3430    2.4700  -26.5680 H   0  0  0  0  0  0  0  0  0  0  0  0
  -17.3260    5.4180  -27.0200 H   0  0  0  0  0  0  0  0  0  0  0  0
  -16.8310    5.4780  -28.7160 H   0  0  0  0  0  0  0  0  0  0  0  0
  -15.7010    4.7800  -27.4580 H   0  0  0  0  0  0  0  0  0  0  0  0
  -21.6770   -4.0330  -28.6530 H   0  0  0  0  0  0  0  0  0  0  0  0
  -21.3110   -5.8610  -29.8100 H   0  0  0  0  0  0  0  0  0  0  0  0
  -20.4860   -4.2630  -26.5510 H   0  0  0  0  0  0  0  0  0  0  0  0
  -19.1730   -5.2660  -27.3670 H   0  0  0  0  0  0  0  0  0  0  0  0
  -20.8410   -5.8570  -27.2410 H   0  0  0  0  0  0  0  0  0  0  0  0
  1  2  1  0  0  0  0
  2  3  1  0  0  0  0
  3  4  2  0  0  0  0
  3 29  1  0  0  0  0
  5  8  1  0  0  0  0
  5  4  1  0  0  0  0
  6  5  2  0  0  0  0
  7  6  1  0  0  0  0
  7  2  2  0  0  0  0
  8  9  1  0  0  0  0
  9 11  1  0  0  0  0
  9 10  2  0  0  0  0
 11  4  1  6  0  0  0
 11 15  1  0  0  0  0
 12 11  1  0  0  0  0
 12 13  1  0  0  0  0
 13 34  1  1  0  0  0
 13 26  1  0  0  0  0
 13 14  1  0  0  0  0
 14 35  1  1  0  0  0
 14 19  1  0  0  0  0
 15 36  1  6  0  0  0
 15 16  1  0  0  0  0
 15 14  1  0  0  0  0
 16 18  1  0  0  0  0
 17 16  2  0  0  0  0
 18 19  1  0  0  0  0
 18 21  1  0  0  0  0
 19 20  2  0  0  0  0
 21 22  1  0  0  0  0
 21 37  1  0  0  0  0
 21 38  1  0  0  0  0
 22 39  1  0  0  0  0
 23 42  1  0  0  0  0
 23 22  1  0  0  0  0
 23 41  1  0  0  0  0
 24 25  1  0  0  0  0
 24 23  1  0  0  0  0
 25 45  1  0  0  0  0
 25 43  1  0  0  0  0
 26 46  1  1  0  0  0
 26 28  1  0  0  0  0
 27 26  1  0  0  0  0
 28 49  1  0  0  0  0
 28 50  1  0  0  0  0
 28 48  1  0  0  0  0
 30  6  1  0  0  0  0
 31  7  1  0  0  0  0
 32  8  1  0  0  0  0
 33 12  1  0  0  0  0
 40 22  1  0  0  0  0
 44 25  1  0  0  0  0
 47 27  1  0  0  0  0
M  END
>  <Pose>
1

>  <Score>
-6.34

$$$$
