
 OpenBabel03222201593D

 30 33  0  0  1  0  0  0  0  0999 V2000
  -18.0630   -1.8680  -25.6110 F   0  0  0  0  0  0  0  0  0  0  0  0
  -18.2560   -0.5990  -26.1050 C   0  0  0  0  0  0  0  0  0  0  0  0
  -17.8690    0.4930  -25.3170 C   0  0  0  0  0  0  0  0  0  0  0  0
  -18.0510    1.7570  -25.7880 C   0  0  0  0  0  0  0  0  0  0  0  0
  -18.6220    1.9650  -27.0510 C   0  0  0  0  0  0  0  0  0  0  0  0
  -18.9900    0.8820  -27.7990 C   0  0  0  0  0  0  0  0  0  0  0  0
  -18.8160   -0.4030  -27.3440 C   0  0  0  0  0  0  0  0  0  0  0  0
  -19.2940   -1.8010  -28.3160 Cl  0  0  0  0  0  0  0  0  0  0  0  0
  -17.5600    2.7190  -24.7660 C   0  0  2  0  0  0  0  0  0  0  0  0
  -18.6300    3.5820  -24.3760 N   0  0  0  0  0  0  0  0  0  0  0  0
  -18.9090    4.7660  -25.0900 C   0  0  0  0  0  0  0  0  0  0  0  0
  -20.0910    5.4230  -24.9630 N   0  0  0  0  0  0  0  0  0  0  0  0
  -20.4060    6.5460  -25.6160 C   0  0  0  0  0  0  0  0  0  0  0  0
  -19.4790    7.1030  -26.4900 C   0  0  0  0  0  0  0  0  0  0  0  0
  -18.2650    6.5030  -26.6760 C   0  0  0  0  0  0  0  0  0  0  0  0
  -18.0080    5.3480  -25.9700 C   0  0  0  0  0  0  0  0  0  0  0  0
  -16.7370    4.6290  -26.0990 C   0  0  0  0  0  0  0  0  0  0  0  0
  -15.8760    5.1300  -26.8990 O   0  0  0  0  0  0  0  0  0  0  0  0
  -16.4660    3.4500  -25.3820 N   0  0  0  0  0  0  0  0  0  0  0  0
  -17.0830    1.8740  -23.6660 C   0  0  0  0  0  0  0  0  0  0  0  0
  -16.5670    2.2640  -22.5540 O   0  0  0  0  0  0  0  0  0  0  0  0
  -17.2740    0.5270  -24.0130 N   0  0  0  0  0  0  0  0  0  0  0  0
  -18.7560    2.9920  -27.4060 H   0  0  0  0  0  0  0  0  0  0  0  0
  -19.4310    1.0280  -28.7760 H   0  0  0  0  0  0  0  0  0  0  0  0
  -19.2360    3.3590  -23.5480 H   0  0  0  0  0  0  0  0  0  0  0  0
  -21.3520    7.0540  -25.5020 H   0  0  0  0  0  0  0  0  0  0  0  0
  -19.7040    8.0060  -27.0290 H   0  0  0  0  0  0  0  0  0  0  0  0
  -17.4910    6.8760  -27.3390 H   0  0  0  0  0  0  0  0  0  0  0  0
  -15.4690    3.1400  -25.3220 H   0  0  0  0  0  0  0  0  0  0  0  0
  -17.0450   -0.3430  -23.4620 H   0  0  0  0  0  0  0  0  0  0  0  0
  2  1  1  0  0  0  0
  2  3  1  0  0  0  0
  3 22  1  0  0  0  0
  4  3  2  0  0  0  0
  5  4  1  0  0  0  0
  6  7  1  0  0  0  0
  6  5  2  0  0  0  0
  7  2  2  0  0  0  0
  8  7  1  0  0  0  0
  9  4  1  6  0  0  0
  9 10  1  0  0  0  0
  9 20  1  0  0  0  0
 10 25  1  0  0  0  0
 11 12  1  0  0  0  0
 11 10  1  0  0  0  0
 13 26  1  0  0  0  0
 13 12  2  0  0  0  0
 14 13  1  0  0  0  0
 15 14  2  0  0  0  0
 15 16  1  0  0  0  0
 16 11  2  0  0  0  0
 17 16  1  0  0  0  0
 17 19  1  0  0  0  0
 18 17  2  0  0  0  0
 19 29  1  0  0  0  0
 19  9  1  0  0  0  0
 20 21  2  0  0  0  0
 22 20  1  0  0  0  0
 22 30  1  0  0  0  0
 23  5  1  0  0  0  0
 24  6  1  0  0  0  0
 27 14  1  0  0  0  0
 28 15  1  0  0  0  0
M  END
>  <Pose>
1

>  <Score>
-5.82

$$$$
