
 OpenBabel03222201593D

 48 51  0  0  0  0  0  0  0  0999 V2000
  -23.4320   -0.3100  -36.4800 S   0  0  0  0  0  0  0  0  0  0  0  0
  -23.6720   -1.0830  -35.1900 O   0  0  0  0  0  0  0  0  0  0  0  0
  -24.6640    0.5580  -36.6530 O   0  0  0  0  0  0  0  0  0  0  0  0
  -22.1020    0.6910  -36.2640 N   0  0  0  0  0  0  0  0  0  0  0  0
  -22.2390    1.7430  -35.3180 C   0  0  0  0  0  0  0  0  0  0  0  0
  -21.1530    1.7520  -34.2720 C   0  0  0  0  0  0  0  0  0  0  0  0
  -20.6850    0.4290  -33.9510 N   0  0  0  0  0  0  0  0  0  0  0  0
  -20.3140   -0.4680  -35.0190 C   0  0  0  0  0  0  0  0  0  0  0  0
  -20.8170    0.0950  -36.3120 C   0  0  0  0  0  0  0  0  0  0  0  0
  -20.5730   -0.0310  -32.6160 C   0  0  0  0  0  0  0  0  0  0  0  0
  -21.6130   -0.2200  -31.9550 O   0  0  0  0  0  0  0  0  0  0  0  0
  -19.2600   -0.2920  -31.9850 C   0  0  0  0  0  0  0  0  0  0  0  0
  -19.4000   -1.1070  -30.8130 N   0  0  0  0  0  0  0  0  0  0  0  0
  -19.0790   -0.8160  -29.4600 C   0  0  0  0  0  0  0  0  0  0  0  0
  -18.5950    0.2690  -29.0700 O   0  0  0  0  0  0  0  0  0  0  0  0
  -19.4090   -1.9770  -28.6500 C   0  0  0  0  0  0  0  0  0  0  0  0
  -19.9190   -2.9610  -29.4630 C   0  0  0  0  0  0  0  0  0  0  0  0
  -20.3070   -4.1720  -28.9060 C   0  0  0  0  0  0  0  0  0  0  0  0
  -20.1960   -4.4130  -27.5650 C   0  0  0  0  0  0  0  0  0  0  0  0
  -19.6810   -3.4240  -26.7280 C   0  0  0  0  0  0  0  0  0  0  0  0
  -19.2990   -2.2210  -27.3040 C   0  0  0  0  0  0  0  0  0  0  0  0
  -19.9230   -2.4410  -30.8240 C   0  0  0  0  0  0  0  0  0  0  0  0
  -20.3370   -3.1140  -31.8040 O   0  0  0  0  0  0  0  0  0  0  0  0
  -23.3550   -1.3800  -37.8270 C   0  0  0  0  0  0  0  0  0  0  0  0
  -22.7040   -0.9860  -38.9840 C   0  0  0  0  0  0  0  0  0  0  0  0
  -22.6120   -1.8040  -40.0920 C   0  0  0  0  0  0  0  0  0  0  0  0
  -23.1960   -3.0550  -40.0220 C   0  0  0  0  0  0  0  0  0  0  0  0
  -23.8420   -3.4350  -38.8640 C   0  0  0  0  0  0  0  0  0  0  0  0
  -23.9410   -2.6280  -37.7490 C   0  0  0  0  0  0  0  0  0  0  0  0
  -23.1050   -4.2480  -41.5320 B   0  0  0  0  0  0  0  0  0  0  0  0
  -22.1380    2.7150  -35.8860 H   0  0  0  0  0  0  0  0  0  0  0  0
  -23.2570    1.7590  -34.8760 H   0  0  0  0  0  0  0  0  0  0  0  0
  -21.5400    2.2540  -33.3660 H   0  0  0  0  0  0  0  0  0  0  0  0
  -20.2990    2.3870  -34.6240 H   0  0  0  0  0  0  0  0  0  0  0  0
  -19.1880   -0.5080  -35.1040 H   0  0  0  0  0  0  0  0  0  0  0  0
  -20.6940   -1.4760  -34.7920 H   0  0  0  0  0  0  0  0  0  0  0  0
  -20.7600   -0.6490  -37.1270 H   0  0  0  0  0  0  0  0  0  0  0  0
  -20.0870    0.9040  -36.6120 H   0  0  0  0  0  0  0  0  0  0  0  0
  -18.8400    0.7090  -31.6880 H   0  0  0  0  0  0  0  0  0  0  0  0
  -18.5570   -0.7710  -32.7040 H   0  0  0  0  0  0  0  0  0  0  0  0
  -20.7000   -4.9240  -29.5620 H   0  0  0  0  0  0  0  0  0  0  0  0
  -20.4940   -5.3420  -27.1360 H   0  0  0  0  0  0  0  0  0  0  0  0
  -19.5720   -3.5570  -25.6760 H   0  0  0  0  0  0  0  0  0  0  0  0
  -18.8990   -1.4570  -26.6490 H   0  0  0  0  0  0  0  0  0  0  0  0
  -22.2280   -0.0030  -39.0790 H   0  0  0  0  0  0  0  0  0  0  0  0
  -22.1090   -1.5220  -41.0080 H   0  0  0  0  0  0  0  0  0  0  0  0
  -24.3120   -4.4260  -38.7910 H   0  0  0  0  0  0  0  0  0  0  0  0
  -24.4650   -2.9760  -36.8530 H   0  0  0  0  0  0  0  0  0  0  0  0
  1  4  1  0  0  0  0
  1  2  2  0  0  0  0
  3  1  2  0  0  0  0
  4  5  1  0  0  0  0
  5 32  1  0  0  0  0
  5  6  1  0  0  0  0
  6  7  1  0  0  0  0
  6 33  1  0  0  0  0
  7 10  1  0  0  0  0
  8 36  1  0  0  0  0
  8  7  1  0  0  0  0
  9  4  1  0  0  0  0
  9  8  1  0  0  0  0
 10 12  1  0  0  0  0
 10 11  2  0  0  0  0
 12 39  1  0  0  0  0
 12 13  1  0  0  0  0
 13 14  1  0  0  0  0
 14 15  2  0  0  0  0
 14 16  1  0  0  0  0
 16 21  1  0  0  0  0
 17 18  1  0  0  0  0
 17 16  2  0  0  0  0
 18 19  2  0  0  0  0
 19 42  1  0  0  0  0
 19 20  1  0  0  0  0
 20 43  1  0  0  0  0
 21 20  2  0  0  0  0
 21 44  1  0  0  0  0
 22 13  1  0  0  0  0
 22 17  1  0  0  0  0
 23 22  2  0  0  0  0
 24 29  1  0  0  0  0
 24  1  1  0  0  0  0
 25 24  2  0  0  0  0
 26 27  2  0  0  0  0
 26 25  1  0  0  0  0
 27 28  1  0  0  0  0
 28 47  1  0  0  0  0
 28 29  2  0  0  0  0
 29 48  1  0  0  0  0
 30 27  1  0  0  0  0
 31  5  1  0  0  0  0
 34  6  1  0  0  0  0
 35  8  1  0  0  0  0
 37  9  1  0  0  0  0
 38  9  1  0  0  0  0
 40 12  1  0  0  0  0
 41 18  1  0  0  0  0
 45 25  1  0  0  0  0
 46 26  1  0  0  0  0
M  END
>  <Pose>
1

>  <Score>
-6.29

$$$$
