
 OpenBabel03222201593D

 53 56  0  0  1  0  0  0  0  0999 V2000
  -19.1670   -0.5540  -31.5200 B   0  0  0  0  0  0  0  0  0  0  0  0
  -19.9350   -2.2310  -31.0440 C   0  0  0  0  0  0  0  0  0  0  0  0
  -19.8050   -2.6650  -29.7440 C   0  0  0  0  0  0  0  0  0  0  0  0
  -20.3660   -3.8790  -29.4150 C   0  0  0  0  0  0  0  0  0  0  0  0
  -21.0420   -4.6430  -30.3720 C   0  0  0  0  0  0  0  0  0  0  0  0
  -21.1550   -4.1790  -31.6690 C   0  0  0  0  0  0  0  0  0  0  0  0
  -20.6050   -2.9790  -32.0100 C   0  0  0  0  0  0  0  0  0  0  0  0
  -21.8730   -4.9770  -32.7110 C   0  0  0  0  0  0  0  0  0  0  0  0
  -20.2050   -4.5080  -27.6260 B   0  0  0  0  0  0  0  0  0  0  0  0
  -19.1470   -1.9090  -28.8330 O   0  0  0  0  0  0  0  0  0  0  0  0
  -19.5930   -0.7450  -28.2000 C   0  0  0  0  0  0  0  0  0  0  0  0
  -18.3610    0.1300  -27.9750 C   0  0  1  0  0  0  0  0  0  0  0  0
  -17.5040    0.0920  -29.0740 O   0  0  0  0  0  0  0  0  0  0  0  0
  -18.8580    1.5250  -27.7670 C   0  0  0  0  0  0  0  0  0  0  0  0
  -18.4410    2.1160  -26.5100 N   0  0  0  0  0  4  0  0  0  0  0  0
  -17.0220    2.0130  -26.4470 C   0  0  0  0  0  0  0  0  0  0  0  0
  -16.3020    3.2830  -26.1160 C   0  0  1  0  0  0  0  0  0  0  0  0
  -16.2780    4.2840  -27.2150 C   0  0  0  0  0  0  0  0  0  0  0  0
  -17.0230    5.4850  -26.9590 N   0  0  0  0  0  0  0  0  0  0  0  0
  -18.0340    5.5830  -26.0760 C   0  0  0  0  0  0  0  0  0  0  0  0
  -18.7440    6.7240  -25.8320 C   0  0  0  0  0  0  0  0  0  0  0  0
  -18.4150    7.8680  -26.5300 C   0  0  0  0  0  0  0  0  0  0  0  0
  -17.3840    7.7760  -27.4340 C   0  0  0  0  0  0  0  0  0  0  0  0
  -16.6910    6.6100  -27.6550 C   0  0  0  0  0  0  0  0  0  0  0  0
  -15.7520    6.5640  -28.4910 O   0  0  0  0  0  0  0  0  0  0  0  0
  -18.3440    4.2950  -25.3460 C   0  0  1  0  0  0  0  0  0  0  0  0
  -19.0030    3.3970  -26.3160 C   0  0  0  0  0  0  0  0  0  0  0  0
  -16.9970    3.8200  -24.8590 C   0  0  0  0  0  0  0  0  0  0  0  0
  -21.4840   -5.5960  -30.1250 H   0  0  0  0  0  0  0  0  0  0  0  0
  -20.7090   -2.6420  -33.0370 H   0  0  0  0  0  0  0  0  0  0  0  0
  -21.2950   -4.9270  -33.6520 H   0  0  0  0  0  0  0  0  0  0  0  0
  -22.8680   -4.4940  -32.9280 H   0  0  0  0  0  0  0  0  0  0  0  0
  -22.0460   -6.0250  -32.3770 H   0  0  0  0  0  0  0  0  0  0  0  0
  -20.3860   -0.2040  -28.7320 H   0  0  0  0  0  0  0  0  0  0  0  0
  -19.9740   -1.0080  -27.1920 H   0  0  0  0  0  0  0  0  0  0  0  0
  -17.8260   -0.2990  -27.1270 H   0  0  0  0  0  0  0  0  0  0  0  0
  -16.6290   -0.2410  -28.7270 H   0  0  0  0  0  0  0  0  0  0  0  0
  -18.4610    2.1610  -28.5840 H   0  0  0  0  0  0  0  0  0  0  0  0
  -19.9630    1.5970  -27.8220 H   0  0  0  0  0  0  0  0  0  0  0  0
  -18.8380    1.4730  -25.7600 H   0  0  0  0  0  0  0  0  0  0  0  0
  -16.6840    1.2490  -25.6850 H   0  0  0  0  0  0  0  0  0  0  0  0
  -16.5630    1.6340  -27.4080 H   0  0  0  0  0  0  0  0  0  0  0  0
  -15.2650    2.9990  -25.7730 H   0  0  0  0  0  0  0  0  0  0  0  0
  -15.2060    4.6050  -27.3730 H   0  0  0  0  0  0  0  0  0  0  0  0
  -16.5740    3.8500  -28.2090 H   0  0  0  0  0  0  0  0  0  0  0  0
  -19.5370    6.6920  -25.1010 H   0  0  0  0  0  0  0  0  0  0  0  0
  -18.9720    8.7730  -26.3430 H   0  0  0  0  0  0  0  0  0  0  0  0
  -17.1000    8.6590  -28.0020 H   0  0  0  0  0  0  0  0  0  0  0  0
  -18.9480    4.5290  -24.4440 H   0  0  0  0  0  0  0  0  0  0  0  0
  -20.0640    3.2530  -25.9480 H   0  0  0  0  0  0  0  0  0  0  0  0
  -19.1490    3.8630  -27.3350 H   0  0  0  0  0  0  0  0  0  0  0  0
  -17.0490    3.0360  -24.1050 H   0  0  0  0  0  0  0  0  0  0  0  0
  -16.3630    4.6880  -24.5330 H   0  0  0  0  0  0  0  0  0  0  0  0
  1  2  1  0  0  0  0
  2  3  1  0  0  0  0
  3  4  2  0  0  0  0
  3 10  1  0  0  0  0
  4  9  1  0  0  0  0
  5 29  1  0  0  0  0
  5  4  1  0  0  0  0
  6  5  2  0  0  0  0
  7  6  1  0  0  0  0
  7  2  2  0  0  0  0
  8 33  1  0  0  0  0
  8  6  1  0  0  0  0
 10 11  1  0  0  0  0
 11 12  1  0  0  0  0
 11 35  1  0  0  0  0
 12 14  1  0  0  0  0
 12 36  1  1  0  0  0
 13 37  1  0  0  0  0
 13 12  1  0  0  0  0
 14 15  1  0  0  0  0
 15 16  1  0  0  0  0
 15 27  1  0  0  0  0
 15 40  1  0  0  0  0
 16 17  1  0  0  0  0
 16 41  1  0  0  0  0
 17 43  1  1  0  0  0
 17 28  1  0  0  0  0
 18 19  1  0  0  0  0
 18 17  1  0  0  0  0
 19 20  1  0  0  0  0
 20 21  2  0  0  0  0
 20 26  1  0  0  0  0
 21 46  1  0  0  0  0
 22 47  1  0  0  0  0
 22 21  1  0  0  0  0
 23 22  2  0  0  0  0
 24 23  1  0  0  0  0
 24 19  1  0  0  0  0
 25 24  2  0  0  0  0
 26 28  1  0  0  0  0
 26 49  1  1  0  0  0
 27 50  1  0  0  0  0
 27 26  1  0  0  0  0
 28 53  1  0  0  0  0
 28 52  1  0  0  0  0
 30  7  1  0  0  0  0
 31  8  1  0  0  0  0
 32  8  1  0  0  0  0
 34 11  1  0  0  0  0
 38 14  1  0  0  0  0
 39 14  1  0  0  0  0
 42 16  1  0  0  0  0
 44 18  1  0  0  0  0
 45 18  1  0  0  0  0
 48 23  1  0  0  0  0
 51 27  1  0  0  0  0
M  END
>  <Pose>
1

>  <Score>
-5.77

$$$$
