
 OpenBabel03222201593D

 47 50  0  0  1  0  0  0  0  0999 V2000
  -24.8630    3.5620  -41.4520 Cl  0  0  0  0  0  0  0  0  0  0  0  0
  -23.5000    4.0200  -40.4660 C   0  0  0  0  0  0  0  0  0  0  0  0
  -22.6850    3.0740  -39.8960 C   0  0  0  0  0  0  0  0  0  0  0  0
  -21.5920    3.3990  -39.1110 C   0  0  0  0  0  0  0  0  0  0  0  0
  -21.3220    4.7170  -38.9030 C   0  0  0  0  0  0  0  0  0  0  0  0
  -22.1170    5.7160  -39.4570 C   0  0  0  0  0  0  0  0  0  0  0  0
  -23.1980    5.3500  -40.2330 C   0  0  0  0  0  0  0  0  0  0  0  0
  -20.7770    2.3920  -38.5220 N   0  0  0  0  0  0  0  0  0  0  0  0
  -20.1180    1.4860  -39.4060 C   0  0  0  0  0  0  0  0  0  0  0  0
  -20.2090    1.5450  -40.6570 O   0  0  0  0  0  0  0  0  0  0  0  0
  -19.3100    0.4580  -38.8380 N   0  0  0  0  0  0  0  0  0  0  0  0
  -19.1870    0.3670  -37.4100 C   0  0  0  0  0  0  0  0  0  0  0  0
  -18.2720   -0.4130  -36.9810 O   0  0  0  0  0  0  0  0  0  0  0  0
  -20.0560    1.1190  -36.4870 C   0  0  1  0  0  0  0  0  0  0  0  0
  -20.6640    2.3220  -37.1070 C   0  0  0  0  0  0  0  0  0  0  0  0
  -21.0630    3.2430  -36.3530 O   0  0  0  0  0  0  0  0  0  0  0  0
  -21.1380    0.2250  -35.9290 C   0  0  0  0  0  0  0  0  0  0  0  0
  -21.9150    0.5490  -34.9120 C   0  0  0  0  0  0  0  0  0  0  0  0
  -22.8070   -0.6150  -34.7180 C   0  0  1  0  0  0  0  0  0  0  0  0
  -22.8750   -1.1680  -36.0590 N   0  0  0  0  0  0  0  0  0  0  0  0
  -21.5060   -1.0670  -36.4120 N   0  0  0  0  0  0  0  0  0  0  0  0
  -22.1990   -1.5950  -33.7750 C   0  0  0  0  0  0  0  0  0  0  0  0
  -22.6670   -2.8570  -33.5440 C   0  0  0  0  0  0  0  0  0  0  0  0
  -22.0430   -3.7410  -32.6870 C   0  0  0  0  0  0  0  0  0  0  0  0
  -20.8920   -3.3680  -32.0170 C   0  0  0  0  0  0  0  0  0  0  0  0
  -20.4150   -2.0700  -32.2580 C   0  0  0  0  0  0  0  0  0  0  0  0
  -21.0510   -1.2020  -33.1140 C   0  0  0  0  0  0  0  0  0  0  0  0
  -20.2400   -4.2230  -31.1610 O   0  0  0  0  0  0  0  0  0  0  0  0
  -20.5480   -4.2760  -29.7830 C   0  0  0  0  0  0  0  0  0  0  0  0
  -22.5670   -5.0290  -32.4830 O   0  0  0  0  0  0  0  0  0  0  0  0
  -22.8780    2.0070  -40.0490 H   0  0  0  0  0  0  0  0  0  0  0  0
  -20.4690    5.0100  -38.2890 H   0  0  0  0  0  0  0  0  0  0  0  0
  -21.8480    6.7290  -39.2500 H   0  0  0  0  0  0  0  0  0  0  0  0
  -23.8000    6.1320  -40.6510 H   0  0  0  0  0  0  0  0  0  0  0  0
  -18.7960   -0.2440  -39.4310 H   0  0  0  0  0  0  0  0  0  0  0  0
  -19.3930    1.4970  -35.6740 H   0  0  0  0  0  0  0  0  0  0  0  0
  -21.8800    1.4750  -34.3650 H   0  0  0  0  0  0  0  0  0  0  0  0
  -23.8200   -0.3370  -34.3640 H   0  0  0  0  0  0  0  0  0  0  0  0
  -23.2530   -2.1160  -36.1230 H   0  0  0  0  0  0  0  0  0  0  0  0
  -20.8710   -1.7060  -36.8890 H   0  0  0  0  0  0  0  0  0  0  0  0
  -23.5470   -3.1830  -34.0390 H   0  0  0  0  0  0  0  0  0  0  0  0
  -19.5140   -1.8120  -31.7150 H   0  0  0  0  0  0  0  0  0  0  0  0
  -20.6080   -0.2080  -33.2420 H   0  0  0  0  0  0  0  0  0  0  0  0
  -20.5350   -3.2450  -29.3370 H   0  0  0  0  0  0  0  0  0  0  0  0
  -19.7470   -4.8270  -29.2130 H   0  0  0  0  0  0  0  0  0  0  0  0
  -21.5340   -4.7170  -29.5680 H   0  0  0  0  0  0  0  0  0  0  0  0
  -23.0940   -5.2000  -31.6330 H   0  0  0  0  0  0  0  0  0  0  0  0
  1  2  1  0  0  0  0
  2  7  2  0  0  0  0
  2  3  1  0  0  0  0
  3  4  2  0  0  0  0
  4  5  1  0  0  0  0
  4  8  1  0  0  0  0
  5 32  1  0  0  0  0
  6 33  1  0  0  0  0
  6  5  2  0  0  0  0
  7  6  1  0  0  0  0
  8 15  1  0  0  0  0
  9 11  1  0  0  0  0
  9  8  1  0  0  0  0
 10  9  2  0  0  0  0
 11 12  1  0  0  0  0
 12 13  2  0  0  0  0
 12 14  1  0  0  0  0
 14 17  1  0  0  0  0
 14 36  1  1  0  0  0
 15 14  1  0  0  0  0
 15 16  2  0  0  0  0
 17 18  2  0  0  0  0
 18 19  1  0  0  0  0
 18 37  1  0  0  0  0
 19 38  1  1  0  0  0
 19 22  1  0  0  0  0
 20 19  1  0  0  0  0
 21 20  1  0  0  0  0
 21 17  1  0  0  0  0
 22 23  2  0  0  0  0
 22 27  1  0  0  0  0
 23 24  1  0  0  0  0
 24 30  1  0  0  0  0
 24 25  2  0  0  0  0
 25 28  1  0  0  0  0
 26 25  1  0  0  0  0
 26 42  1  0  0  0  0
 27 26  2  0  0  0  0
 28 29  1  0  0  0  0
 29 46  1  0  0  0  0
 29 44  1  0  0  0  0
 29 45  1  0  0  0  0
 30 47  1  0  0  0  0
 31  3  1  0  0  0  0
 34  7  1  0  0  0  0
 35 11  1  0  0  0  0
 39 20  1  0  0  0  0
 40 21  1  0  0  0  0
 41 23  1  0  0  0  0
 43 27  1  0  0  0  0
M  END
>  <Pose>
1

>  <Score>
-6.23

$$$$
