
 OpenBabel03222201593D

 47 50  0  0  0  0  0  0  0  0999 V2000
  -19.2700   -0.5180  -29.0690 S   0  0  0  0  0  0  0  0  0  0  0  0
  -17.9490    0.1770  -29.0330 O   0  0  0  0  0  0  0  0  0  0  0  0
  -20.3510    0.5210  -29.1700 O   0  0  0  0  0  0  0  0  0  0  0  0
  -19.3590   -1.5220  -30.4250 N   0  0  0  0  0  0  0  0  0  0  0  0
  -18.6620   -1.0570  -31.5850 C   0  0  0  0  0  0  0  0  0  0  0  0
  -19.5050   -0.1280  -32.4380 C   0  0  0  0  0  0  0  0  0  0  0  0
  -20.7980   -0.7250  -32.6420 N   0  0  0  0  0  0  0  0  0  0  0  0
  -21.0140   -2.0710  -32.1510 C   0  0  0  0  0  0  0  0  0  0  0  0
  -20.6430   -2.0790  -30.6830 C   0  0  0  0  0  0  0  0  0  0  0  0
  -21.8650   -0.0500  -33.3020 C   0  0  0  0  0  0  0  0  0  0  0  0
  -22.5150    0.8610  -32.7390 O   0  0  0  0  0  0  0  0  0  0  0  0
  -22.2390   -0.4080  -34.6720 C   0  0  0  0  0  0  0  0  0  0  0  0
  -22.3860    0.4500  -35.7190 N   0  0  0  0  0  0  0  0  0  0  0  0
  -22.7340   -0.2490  -36.8100 C   0  0  0  0  0  0  0  0  0  0  0  0
  -22.8050   -1.5310  -36.4510 N   0  0  0  0  0  0  0  0  0  0  0  0
  -22.5070   -1.6550  -35.1510 C   0  0  0  0  0  0  0  0  0  0  0  0
  -23.1410   -2.4470  -37.3800 C   0  0  0  0  0  0  0  0  0  0  0  0
  -23.4180   -2.1470  -38.6850 C   0  0  0  0  0  0  0  0  0  0  0  0
  -23.3500   -0.8150  -39.0780 C   0  0  0  0  0  0  0  0  0  0  0  0
  -23.0060    0.1120  -38.1210 C   0  0  0  0  0  0  0  0  0  0  0  0
  -23.8540   -3.3710  -39.8720 Cl  0  0  0  0  0  0  0  0  0  0  0  0
  -19.4910   -1.3420  -27.5770 N   0  0  0  0  0  0  0  0  0  0  0  0
  -18.6320   -0.8250  -26.5280 C   0  0  0  0  0  0  0  0  0  0  0  0
  -18.4690   -1.9210  -25.5030 C   0  0  0  0  0  0  0  0  0  0  0  0
  -19.6180   -2.6970  -25.3920 O   0  0  0  0  0  0  0  0  0  0  0  0
  -19.8680   -3.4540  -26.5340 C   0  0  0  0  0  0  0  0  0  0  0  0
  -19.1870   -2.7570  -27.6950 C   0  0  0  0  0  0  0  0  0  0  0  0
  -18.4410   -1.9480  -32.2250 H   0  0  0  0  0  0  0  0  0  0  0  0
  -17.7030   -0.6260  -31.2920 H   0  0  0  0  0  0  0  0  0  0  0  0
  -19.5650    0.8700  -31.9240 H   0  0  0  0  0  0  0  0  0  0  0  0
  -19.0130    0.0670  -33.4130 H   0  0  0  0  0  0  0  0  0  0  0  0
  -20.3010   -2.7240  -32.7240 H   0  0  0  0  0  0  0  0  0  0  0  0
  -22.0450   -2.3970  -32.3000 H   0  0  0  0  0  0  0  0  0  0  0  0
  -20.6250   -3.1530  -30.3420 H   0  0  0  0  0  0  0  0  0  0  0  0
  -21.4270   -1.5520  -30.1320 H   0  0  0  0  0  0  0  0  0  0  0  0
  -22.4970   -2.6100  -34.6220 H   0  0  0  0  0  0  0  0  0  0  0  0
  -23.2030   -3.5080  -37.1040 H   0  0  0  0  0  0  0  0  0  0  0  0
  -23.5560   -0.4990  -40.0950 H   0  0  0  0  0  0  0  0  0  0  0  0
  -22.9400    1.1690  -38.3840 H   0  0  0  0  0  0  0  0  0  0  0  0
  -19.0450    0.0970  -26.0710 H   0  0  0  0  0  0  0  0  0  0  0  0
  -17.6440   -0.6150  -26.9910 H   0  0  0  0  0  0  0  0  0  0  0  0
  -18.3030   -1.4630  -24.5050 H   0  0  0  0  0  0  0  0  0  0  0  0
  -17.6310   -2.6030  -25.7170 H   0  0  0  0  0  0  0  0  0  0  0  0
  -20.9710   -3.3930  -26.7510 H   0  0  0  0  0  0  0  0  0  0  0  0
  -19.5470   -4.5050  -26.4310 H   0  0  0  0  0  0  0  0  0  0  0  0
  -18.0950   -2.9540  -27.6710 H   0  0  0  0  0  0  0  0  0  0  0  0
  -19.5470   -3.1280  -28.6730 H   0  0  0  0  0  0  0  0  0  0  0  0
  1  2  2  0  0  0  0
  1 22  1  0  0  0  0
  3  1  2  0  0  0  0
  4  1  1  0  0  0  0
  5 29  1  0  0  0  0
  5  4  1  0  0  0  0
  6 30  1  0  0  0  0
  6  5  1  0  0  0  0
  7  6  1  0  0  0  0
  7  8  1  0  0  0  0
  8  9  1  0  0  0  0
  9  4  1  0  0  0  0
  9 34  1  0  0  0  0
  9 35  1  0  0  0  0
 10 11  2  0  0  0  0
 10  7  1  0  0  0  0
 12 10  1  0  0  0  0
 13 12  1  0  0  0  0
 14 15  1  0  0  0  0
 14 13  2  0  0  0  0
 15 16  1  0  0  0  0
 16 12  2  0  0  0  0
 16 36  1  0  0  0  0
 17 37  1  0  0  0  0
 17 15  1  0  0  0  0
 18 17  2  0  0  0  0
 19 18  1  0  0  0  0
 19 20  2  0  0  0  0
 20 14  1  0  0  0  0
 21 18  1  0  0  0  0
 22 23  1  0  0  0  0
 23 40  1  0  0  0  0
 23 24  1  0  0  0  0
 24 25  1  0  0  0  0
 24 42  1  0  0  0  0
 26 45  1  0  0  0  0
 26 25  1  0  0  0  0
 27 46  1  0  0  0  0
 27 22  1  0  0  0  0
 27 26  1  0  0  0  0
 28  5  1  0  0  0  0
 31  6  1  0  0  0  0
 32  8  1  0  0  0  0
 33  8  1  0  0  0  0
 38 19  1  0  0  0  0
 39 20  1  0  0  0  0
 41 23  1  0  0  0  0
 43 24  1  0  0  0  0
 44 26  1  0  0  0  0
 47 27  1  0  0  0  0
M  END
>  <Pose>
1

>  <Score>
-6.21

$$$$
