
 OpenBabel03222201593D

 47 51  0  0  1  0  0  0  0  0999 V2000
  -15.5480    5.8960  -23.4600 I   0  0  0  0  0  0  0  0  0  0  0  0
  -16.3830    4.1080  -24.1930 C   0  0  0  0  0  0  0  0  0  0  0  0
  -17.1540    3.2880  -23.3960 C   0  0  0  0  0  0  0  0  0  0  0  0
  -17.7090    2.1010  -23.8790 C   0  0  0  0  0  0  0  0  0  0  0  0
  -17.4840    1.7440  -25.1700 C   0  0  0  0  0  0  0  0  0  0  0  0
  -16.7100    2.5750  -25.9600 C   0  0  0  0  0  0  0  0  0  0  0  0
  -16.1530    3.7500  -25.5020 C   0  0  0  0  0  0  0  0  0  0  0  0
  -18.0110    0.5420  -25.7640 N   0  0  0  0  0  0  0  0  0  0  0  0
  -17.9870   -0.6720  -25.2440 N   0  0  0  0  0  0  0  0  0  0  0  0
  -18.5660   -1.5770  -26.0580 C   0  0  0  0  0  0  0  0  0  0  0  0
  -18.7270   -2.8670  -25.8820 C   0  0  0  0  0  0  0  0  0  0  0  0
  -18.9860   -0.8830  -27.1760 C   0  0  2  0  0  0  0  0  0  0  0  0
  -19.6140   -1.4030  -28.2420 C   0  0  0  0  0  0  0  0  0  0  0  0
  -19.9540   -0.4940  -29.2800 N   0  0  0  0  0  4  0  0  0  0  0  0
  -19.6660   -0.8670  -30.6560 C   0  0  1  0  0  0  0  0  0  0  0  0
  -20.2160   -2.2560  -30.9420 C   0  0  0  0  0  0  0  0  0  0  0  0
  -19.9750   -2.5830  -32.3200 N   0  0  2  0  0  0  0  0  0  0  0  0
  -18.5300   -2.5680  -32.5250 C   0  0  0  0  0  0  0  0  0  0  0  0
  -17.9790   -1.2600  -32.3060 N   0  0  1  0  0  0  0  0  0  0  0  0
  -18.6360   -0.2840  -33.1470 C   0  0  0  0  0  0  0  0  0  0  0  0
  -20.0600   -0.2670  -32.9450 N   0  0  1  0  0  0  0  0  0  0  0  0
  -20.6280   -1.5960  -33.1490 C   0  0  0  0  0  0  0  0  0  0  0  0
  -20.3400    0.1210  -31.5820 C   0  0  0  0  0  0  0  0  0  0  0  0
  -18.1920   -0.8980  -30.9270 C   0  0  0  0  0  0  0  0  0  0  0  0
  -18.6230    0.4280  -26.9550 C   0  0  0  0  0  0  0  0  0  0  0  0
  -18.8310    1.3830  -27.7460 O   0  0  0  0  0  0  0  0  0  0  0  0
  -17.3070    3.6130  -22.3720 H   0  0  0  0  0  0  0  0  0  0  0  0
  -18.3100    1.4710  -23.2420 H   0  0  0  0  0  0  0  0  0  0  0  0
  -16.5360    2.2780  -26.9930 H   0  0  0  0  0  0  0  0  0  0  0  0
  -15.5430    4.3880  -26.1530 H   0  0  0  0  0  0  0  0  0  0  0  0
  -17.5750   -0.9240  -24.3140 H   0  0  0  0  0  0  0  0  0  0  0  0
  -19.2150   -3.4620  -26.6330 H   0  0  0  0  0  0  0  0  0  0  0  0
  -18.3800   -3.3580  -24.9890 H   0  0  0  0  0  0  0  0  0  0  0  0
  -19.8450   -2.4600  -28.2950 H   0  0  0  0  0  0  0  0  0  0  0  0
  -20.4000    0.4310  -29.1220 H   0  0  0  0  0  0  0  0  0  0  0  0
  -19.6900   -2.9460  -30.2420 H   0  0  0  0  0  0  0  0  0  0  0  0
  -21.2760   -2.2690  -30.6510 H   0  0  0  0  0  0  0  0  0  0  0  0
  -18.2430   -3.0130  -33.4980 H   0  0  0  0  0  0  0  0  0  0  0  0
  -18.1090   -3.2500  -31.7310 H   0  0  0  0  0  0  0  0  0  0  0  0
  -18.4540   -0.5280  -34.2250 H   0  0  0  0  0  0  0  0  0  0  0  0
  -18.2400    0.7240  -32.9180 H   0  0  0  0  0  0  0  0  0  0  0  0
  -21.6920   -1.5370  -32.8120 H   0  0  0  0  0  0  0  0  0  0  0  0
  -20.6360   -1.8860  -34.2200 H   0  0  0  0  0  0  0  0  0  0  0  0
  -19.8870    1.1250  -31.4210 H   0  0  0  0  0  0  0  0  0  0  0  0
  -21.4220    0.1150  -31.3560 H   0  0  0  0  0  0  0  0  0  0  0  0
  -17.7210   -1.6160  -30.2280 H   0  0  0  0  0  0  0  0  0  0  0  0
  -17.7160    0.0960  -30.7430 H   0  0  0  0  0  0  0  0  0  0  0  0
  2  1  1  0  0  0  0
  2  3  1  0  0  0  0
  3 27  1  0  0  0  0
  4  3  2  0  0  0  0
  4 28  1  0  0  0  0
  5  4  1  0  0  0  0
  6  7  1  0  0  0  0
  6  5  2  0  0  0  0
  7  2  2  0  0  0  0
  8  9  1  0  0  0  0
  8  5  1  0  0  0  0
  9 31  1  0  0  0  0
 10 11  2  0  0  0  0
 10  9  1  0  0  0  0
 11 33  1  0  0  0  0
 12 13  1  6  0  0  0
 12 25  1  0  0  0  0
 12 10  1  0  0  0  0
 14 35  1  0  0  0  0
 14 13  2  0  0  0  0
 15 14  1  1  0  0  0
 16 15  1  0  0  0  0
 16 37  1  0  0  0  0
 16 36  1  0  0  0  0
 17 22  1  6  0  0  0
 17 16  1  0  0  0  0
 18 17  1  0  0  0  0
 18 19  1  0  0  0  0
 18 39  1  0  0  0  0
 19 20  1  6  0  0  0
 19 24  1  0  0  0  0
 20 21  1  0  0  0  0
 20 41  1  0  0  0  0
 21 22  1  1  0  0  0
 21 23  1  0  0  0  0
 22 42  1  0  0  0  0
 23 44  1  0  0  0  0
 23 45  1  0  0  0  0
 23 15  1  0  0  0  0
 24 47  1  0  0  0  0
 24 15  1  0  0  0  0
 24 46  1  0  0  0  0
 25  8  1  0  0  0  0
 26 25  2  0  0  0  0
 29  6  1  0  0  0  0
 30  7  1  0  0  0  0
 32 11  1  0  0  0  0
 34 13  1  0  0  0  0
 38 18  1  0  0  0  0
 40 20  1  0  0  0  0
 43 22  1  0  0  0  0
M  END
>  <Pose>
1

>  <Score>
-6.01

$$$$
