
 OpenBabel03222201593D

 61 64  0  0  1  0  0  0  0  0999 V2000
  -19.2990   -0.4090  -28.9160 S   0  0  0  0  0  0  0  0  0  0  0  0
  -18.1390    0.5370  -28.6110 O   0  0  0  0  0  0  0  0  0  0  0  0
  -20.5350    0.4050  -28.5260 O   0  0  0  0  0  0  0  0  0  0  0  0
  -19.2650   -1.7850  -27.9890 N   0  0  0  0  0  0  0  0  0  0  0  0
  -19.8160   -1.9220  -26.7290 C   0  0  1  0  0  0  0  0  0  0  0  0
  -20.9980   -2.8860  -26.9000 C   0  0  0  0  0  0  0  0  0  0  0  0
  -20.4590   -3.8460  -27.9370 C   0  0  0  0  0  0  0  0  0  0  0  0
  -19.4870   -3.0160  -28.7420 C   0  0  0  0  0  0  0  0  0  0  0  0
  -18.7910   -2.5830  -25.8240 C   0  0  0  0  0  0  0  0  0  0  0  0
  -18.8090   -3.8210  -25.8060 O   0  0  0  0  0  0  0  0  0  0  0  0
  -17.9040   -1.7840  -25.0810 N   0  0  0  0  0  0  0  0  0  0  0  0
  -17.9940   -0.3460  -25.1460 C   0  0  0  0  0  0  0  0  0  0  0  0
  -17.4820    0.3860  -23.9650 C   0  0  0  0  0  0  0  0  0  0  0  0
  -17.7480    1.7800  -23.9170 N   0  0  0  0  0  0  0  0  0  0  0  0
  -17.1780    2.5560  -24.9700 C   0  0  0  0  0  0  0  0  0  0  0  0
  -18.1910    3.6100  -25.3700 C   0  0  0  0  0  0  0  0  0  0  0  0
  -18.6400    4.3520  -24.1270 C   0  0  0  0  0  0  0  0  0  0  0  0
  -17.4190    4.7140  -23.3250 C   0  0  0  0  0  0  0  0  0  0  0  0
  -16.8690    3.6080  -22.5040 C   0  0  0  0  0  0  0  0  0  0  0  0
  -17.5720    2.3070  -22.6040 C   0  0  0  0  0  0  0  0  0  0  0  0
  -19.3830   -0.6700  -30.6330 C   0  0  0  0  0  0  0  0  0  0  0  0
  -20.6360   -0.6090  -31.2660 C   0  0  0  0  0  0  0  0  0  0  0  0
  -20.8300   -0.8560  -32.5940 C   0  0  0  0  0  0  0  0  0  0  0  0
  -19.7140   -1.1840  -33.3440 C   0  0  0  0  0  0  0  0  0  0  0  0
  -18.4690   -1.2600  -32.7960 C   0  0  0  0  0  0  0  0  0  0  0  0
  -18.3290   -0.9980  -31.4390 C   0  0  0  0  0  0  0  0  0  0  0  0
  -16.6880   -1.0130  -30.8320 Cl  0  0  0  0  0  0  0  0  0  0  0  0
  -19.9030   -1.4410  -34.7440 N   0  0  0  0  0  0  0  0  0  0  0  0
  -21.2100   -1.3510  -35.3060 C   0  0  0  0  0  0  0  0  0  0  0  0
  -21.4870   -1.9750  -36.3450 O   0  0  0  0  0  0  0  0  0  0  0  0
  -22.1950   -0.4940  -34.6000 C   0  0  0  0  0  0  0  0  0  0  0  0
  -22.0690   -0.7940  -33.2130 O   0  0  0  0  0  0  0  0  0  0  0  0
  -20.2440   -1.0580  -26.2170 H   0  0  0  0  0  0  0  0  0  0  0  0
  -21.3150   -3.3450  -25.9700 H   0  0  0  0  0  0  0  0  0  0  0  0
  -21.8350   -2.3000  -27.3200 H   0  0  0  0  0  0  0  0  0  0  0  0
  -19.9510   -4.6640  -27.3700 H   0  0  0  0  0  0  0  0  0  0  0  0
  -21.2360   -4.2330  -28.6070 H   0  0  0  0  0  0  0  0  0  0  0  0
  -19.8820   -2.7900  -29.7580 H   0  0  0  0  0  0  0  0  0  0  0  0
  -18.5180   -3.5410  -28.8040 H   0  0  0  0  0  0  0  0  0  0  0  0
  -17.1600   -2.1840  -24.4740 H   0  0  0  0  0  0  0  0  0  0  0  0
  -17.3650   -0.0270  -26.0280 H   0  0  0  0  0  0  0  0  0  0  0  0
  -19.0150   -0.0040  -25.3780 H   0  0  0  0  0  0  0  0  0  0  0  0
  -16.3980    0.2300  -23.8870 H   0  0  0  0  0  0  0  0  0  0  0  0
  -17.9370   -0.0710  -23.0430 H   0  0  0  0  0  0  0  0  0  0  0  0
  -16.8410    1.9550  -25.8320 H   0  0  0  0  0  0  0  0  0  0  0  0
  -16.2850    3.0860  -24.5830 H   0  0  0  0  0  0  0  0  0  0  0  0
  -17.7230    4.3870  -26.0390 H   0  0  0  0  0  0  0  0  0  0  0  0
  -19.0380    3.1950  -25.9470 H   0  0  0  0  0  0  0  0  0  0  0  0
  -19.2460    5.2260  -24.3310 H   0  0  0  0  0  0  0  0  0  0  0  0
  -19.2410    3.6480  -23.5150 H   0  0  0  0  0  0  0  0  0  0  0  0
  -17.6860    5.6370  -22.7320 H   0  0  0  0  0  0  0  0  0  0  0  0
  -16.6190    5.0570  -24.0280 H   0  0  0  0  0  0  0  0  0  0  0  0
  -15.7560    3.4870  -22.6550 H   0  0  0  0  0  0  0  0  0  0  0  0
  -16.9400    3.9300  -21.4220 H   0  0  0  0  0  0  0  0  0  0  0  0
  -18.5620    2.3510  -22.1050 H   0  0  0  0  0  0  0  0  0  0  0  0
  -16.9810    1.5680  -22.0010 H   0  0  0  0  0  0  0  0  0  0  0  0
  -21.5050   -0.3490  -30.6560 H   0  0  0  0  0  0  0  0  0  0  0  0
  -17.6180   -1.5210  -33.4180 H   0  0  0  0  0  0  0  0  0  0  0  0
  -19.0650   -1.6910  -35.3260 H   0  0  0  0  0  0  0  0  0  0  0  0
  -23.2260   -0.6390  -34.9250 H   0  0  0  0  0  0  0  0  0  0  0  0
  -21.8760    0.5790  -34.7080 H   0  0  0  0  0  0  0  0  0  0  0  0
  1  2  2  0  0  0  0
  1  3  2  0  0  0  0
  1  4  1  0  0  0  0
  4  5  1  0  0  0  0
  5 33  1  1  0  0  0
  5  9  1  0  0  0  0
  6  5  1  0  0  0  0
  6 34  1  0  0  0  0
  7 36  1  0  0  0  0
  7  6  1  0  0  0  0
  8  4  1  0  0  0  0
  8  7  1  0  0  0  0
  9 10  2  0  0  0  0
  9 11  1  0  0  0  0
 11 40  1  0  0  0  0
 12 11  1  0  0  0  0
 12 13  1  0  0  0  0
 13 14  1  0  0  0  0
 13 43  1  0  0  0  0
 13 44  1  0  0  0  0
 14 20  1  0  0  0  0
 15 46  1  0  0  0  0
 15 14  1  0  0  0  0
 16 15  1  0  0  0  0
 16 17  1  0  0  0  0
 17 50  1  0  0  0  0
 17 18  1  0  0  0  0
 18 51  1  0  0  0  0
 18 19  1  0  0  0  0
 19 54  1  0  0  0  0
 20 19  1  0  0  0  0
 20 55  1  0  0  0  0
 20 56  1  0  0  0  0
 21  1  1  0  0  0  0
 22 57  1  0  0  0  0
 22 21  1  0  0  0  0
 23 22  2  0  0  0  0
 24 25  2  0  0  0  0
 24 23  1  0  0  0  0
 25 26  1  0  0  0  0
 26 27  1  0  0  0  0
 26 21  2  0  0  0  0
 28 24  1  0  0  0  0
 29 28  1  0  0  0  0
 29 31  1  0  0  0  0
 30 29  2  0  0  0  0
 31 32  1  0  0  0  0
 32 23  1  0  0  0  0
 35  6  1  0  0  0  0
 37  7  1  0  0  0  0
 38  8  1  0  0  0  0
 39  8  1  0  0  0  0
 41 12  1  0  0  0  0
 42 12  1  0  0  0  0
 45 15  1  0  0  0  0
 47 16  1  0  0  0  0
 48 16  1  0  0  0  0
 49 17  1  0  0  0  0
 52 18  1  0  0  0  0
 53 19  1  0  0  0  0
 58 25  1  0  0  0  0
 59 28  1  0  0  0  0
 60 31  1  0  0  0  0
 61 31  1  0  0  0  0
M  END
>  <Pose>
1

>  <Score>
-6.88

$$$$
