
 OpenBabel03222201593D

 39 42  0  0  0  0  0  0  0  0999 V2000
  -24.8010    0.3510  -38.1210 Cl  0  0  0  0  0  0  0  0  0  0  0  0
  -23.7230   -0.2080  -36.8340 C   0  0  0  0  0  0  0  0  0  0  0  0
  -23.0270    0.6850  -36.0580 C   0  0  0  0  0  0  0  0  0  0  0  0
  -22.1900    0.2470  -35.0590 C   0  0  0  0  0  0  0  0  0  0  0  0
  -21.9860   -1.1050  -34.7610 C   0  0  0  0  0  0  0  0  0  0  0  0
  -22.6960   -1.9780  -35.5540 C   0  0  0  0  0  0  0  0  0  0  0  0
  -23.5550   -1.5440  -36.5790 C   0  0  0  0  0  0  0  0  0  0  0  0
  -21.1260   -1.4700  -33.6710 C   0  0  0  0  0  0  0  0  0  0  0  0
  -21.3190   -2.6900  -33.2350 O   0  0  0  0  0  0  0  0  0  0  0  0
  -20.1350   -0.7650  -33.0050 N   0  0  0  0  0  0  0  0  0  0  0  0
  -18.7140   -0.8430  -33.0750 C   0  0  0  0  0  0  0  0  0  0  0  0
  -18.2990   -1.6630  -31.8360 C   0  0  0  0  0  0  0  0  0  0  0  0
  -19.1370   -1.2020  -30.7140 N   0  0  0  0  0  0  0  0  0  0  0  0
  -19.6700    0.1290  -30.7780 C   0  0  0  0  0  0  0  0  0  0  0  0
  -20.5920    0.2310  -31.9790 C   0  0  0  0  0  0  0  0  0  0  0  0
  -19.3830   -2.0790  -29.6180 C   0  0  0  0  0  0  0  0  0  0  0  0
  -18.8780   -1.8240  -28.3910 N   0  0  0  0  0  0  0  0  0  0  0  0
  -19.0830   -2.6150  -27.3530 N   0  0  0  0  0  0  0  0  0  0  0  0
  -19.8120   -3.7370  -27.4370 C   0  0  0  0  0  0  0  0  0  0  0  0
  -19.8620   -4.3560  -26.2320 N   0  0  0  0  0  0  0  0  0  0  0  0
  -19.1620   -3.6170  -25.3920 N   0  0  0  0  0  0  0  0  0  0  0  0
  -18.6770   -2.5510  -26.0530 C   0  0  0  0  0  0  0  0  0  0  0  0
  -20.3650   -4.0670  -28.6630 C   0  0  0  0  0  0  0  0  0  0  0  0
  -20.1360   -3.2270  -29.7270 C   0  0  0  0  0  0  0  0  0  0  0  0
  -23.1640    1.7390  -36.2640 H   0  0  0  0  0  0  0  0  0  0  0  0
  -21.6590    0.9770  -34.4730 H   0  0  0  0  0  0  0  0  0  0  0  0
  -22.6190   -3.0330  -35.3760 H   0  0  0  0  0  0  0  0  0  0  0  0
  -24.1000   -2.2630  -37.1860 H   0  0  0  0  0  0  0  0  0  0  0  0
  -18.2340   -1.1160  -33.9880 H   0  0  0  0  0  0  0  0  0  0  0  0
  -18.2980    0.2010  -32.7950 H   0  0  0  0  0  0  0  0  0  0  0  0
  -17.2280   -1.5180  -31.6020 H   0  0  0  0  0  0  0  0  0  0  0  0
  -18.5250   -2.7050  -32.0950 H   0  0  0  0  0  0  0  0  0  0  0  0
  -18.8820    0.9010  -30.9300 H   0  0  0  0  0  0  0  0  0  0  0  0
  -20.2940    0.3440  -29.8870 H   0  0  0  0  0  0  0  0  0  0  0  0
  -20.5710    1.2290  -32.4500 H   0  0  0  0  0  0  0  0  0  0  0  0
  -21.6360   -0.0040  -31.7170 H   0  0  0  0  0  0  0  0  0  0  0  0
  -18.0610   -1.7590  -25.6330 H   0  0  0  0  0  0  0  0  0  0  0  0
  -20.9630   -4.9680  -28.7770 H   0  0  0  0  0  0  0  0  0  0  0  0
  -20.5530   -3.4510  -30.7200 H   0  0  0  0  0  0  0  0  0  0  0  0
  1  2  1  0  0  0  0
  2  7  2  0  0  0  0
  2  3  1  0  0  0  0
  3  4  2  0  0  0  0
  4  5  1  0  0  0  0
  4 26  1  0  0  0  0
  5  8  1  0  0  0  0
  6 27  1  0  0  0  0
  6  5  2  0  0  0  0
  7  6  1  0  0  0  0
  8  9  2  0  0  0  0
  8 10  1  0  0  0  0
 10 15  1  0  0  0  0
 11 10  1  0  0  0  0
 11 30  1  0  0  0  0
 11 12  1  0  0  0  0
 12 31  1  0  0  0  0
 12 13  1  0  0  0  0
 13 16  1  0  0  0  0
 14 13  1  0  0  0  0
 14 34  1  0  0  0  0
 15 36  1  0  0  0  0
 15 14  1  0  0  0  0
 16 17  2  0  0  0  0
 17 18  1  0  0  0  0
 18 22  1  0  0  0  0
 19 18  1  0  0  0  0
 19 20  2  0  0  0  0
 20 21  1  0  0  0  0
 22 37  1  0  0  0  0
 22 21  2  0  0  0  0
 23 19  1  0  0  0  0
 24 16  1  0  0  0  0
 24 23  2  0  0  0  0
 25  3  1  0  0  0  0
 28  7  1  0  0  0  0
 29 11  1  0  0  0  0
 32 12  1  0  0  0  0
 33 14  1  0  0  0  0
 35 15  1  0  0  0  0
 38 23  1  0  0  0  0
 39 24  1  0  0  0  0
M  END
>  <Pose>
1

>  <Score>
-5.80

$$$$
