
 OpenBabel03222201593D

 42 45  0  0  0  0  0  0  0  0999 V2000
  -21.1980   -4.3800  -31.7420 Cl  0  0  0  0  0  0  0  0  0  0  0  0
  -20.5210   -3.6820  -30.2640 C   0  0  0  0  0  0  0  0  0  0  0  0
  -20.9420   -4.1380  -29.0320 C   0  0  0  0  0  0  0  0  0  0  0  0
  -20.4430   -3.6270  -27.8620 C   0  0  0  0  0  0  0  0  0  0  0  0
  -19.4890   -2.6210  -27.8760 C   0  0  0  0  0  0  0  0  0  0  0  0
  -19.0790   -2.1760  -29.1220 C   0  0  0  0  0  0  0  0  0  0  0  0
  -19.5780   -2.6890  -30.3010 C   0  0  0  0  0  0  0  0  0  0  0  0
  -18.9510   -2.0680  -26.6870 N   0  0  0  0  0  0  0  0  0  0  0  0
  -18.6540   -2.7380  -25.5910 N   0  0  0  0  0  0  0  0  0  0  0  0
  -18.1820   -1.8430  -24.7330 N   0  0  0  0  0  0  0  0  0  0  0  0
  -18.1720   -0.6090  -25.2640 C   0  0  0  0  0  0  0  0  0  0  0  0
  -18.6630   -0.7640  -26.5050 C   0  0  0  0  0  0  0  0  0  0  0  0
  -18.6510    0.5060  -27.0490 C   0  0  0  0  0  0  0  0  0  0  0  0
  -19.0520    0.7430  -28.2270 O   0  0  0  0  0  0  0  0  0  0  0  0
  -18.1740    1.4180  -26.1850 N   0  0  0  0  0  0  0  0  0  0  0  0
  -17.8760    0.7250  -25.0730 C   0  0  0  0  0  0  0  0  0  0  0  0
  -17.3940    1.2420  -24.0210 O   0  0  0  0  0  0  0  0  0  0  0  0
  -18.0370    2.8120  -26.4470 C   0  0  0  0  0  0  0  0  0  0  0  0
  -18.8550    3.7560  -25.8590 C   0  0  0  0  0  0  0  0  0  0  0  0
  -18.7420    5.1110  -26.0960 C   0  0  0  0  0  0  0  0  0  0  0  0
  -17.7620    5.5430  -26.9660 C   0  0  0  0  0  0  0  0  0  0  0  0
  -16.9160    4.6440  -27.5820 C   0  0  0  0  0  0  0  0  0  0  0  0
  -17.0700    3.2880  -27.3120 C   0  0  0  0  0  0  0  0  0  0  0  0
  -15.9420    5.1170  -28.4520 O   0  0  0  0  0  0  0  0  0  0  0  0
  -16.2680    5.7520  -29.6570 C   0  0  0  0  0  0  0  0  0  0  0  0
  -19.6020    6.0330  -25.4700 O   0  0  0  0  0  0  0  0  0  0  0  0
  -20.0740    5.7540  -24.1730 C   0  0  0  0  0  0  0  0  0  0  0  0
  -21.6980   -4.9340  -29.0230 H   0  0  0  0  0  0  0  0  0  0  0  0
  -20.7790   -3.9890  -26.9000 H   0  0  0  0  0  0  0  0  0  0  0  0
  -18.3210   -1.3780  -29.1320 H   0  0  0  0  0  0  0  0  0  0  0  0
  -19.2370   -2.3200  -31.2400 H   0  0  0  0  0  0  0  0  0  0  0  0
  -18.7760   -3.7690  -25.4500 H   0  0  0  0  0  0  0  0  0  0  0  0
  -17.8580   -2.0660  -23.7670 H   0  0  0  0  0  0  0  0  0  0  0  0
  -19.6180    3.3680  -25.1770 H   0  0  0  0  0  0  0  0  0  0  0  0
  -17.6710    6.6120  -27.1550 H   0  0  0  0  0  0  0  0  0  0  0  0
  -16.3940    2.5710  -27.8040 H   0  0  0  0  0  0  0  0  0  0  0  0
  -16.6260    4.9600  -30.3610 H   0  0  0  0  0  0  0  0  0  0  0  0
  -16.9990    6.5680  -29.5400 H   0  0  0  0  0  0  0  0  0  0  0  0
  -15.3180    6.2190  -30.0500 H   0  0  0  0  0  0  0  0  0  0  0  0
  -19.2790    5.4240  -23.4870 H   0  0  0  0  0  0  0  0  0  0  0  0
  -20.5510    6.6550  -23.7420 H   0  0  0  0  0  0  0  0  0  0  0  0
  -20.8480    4.9470  -24.1760 H   0  0  0  0  0  0  0  0  0  0  0  0
  1  2  1  0  0  0  0
  2  3  1  0  0  0  0
  3 28  1  0  0  0  0
  3  4  2  0  0  0  0
  4 29  1  0  0  0  0
  5  4  1  0  0  0  0
  5  8  1  0  0  0  0
  6  5  2  0  0  0  0
  7  2  2  0  0  0  0
  7  6  1  0  0  0  0
  8 12  1  0  0  0  0
  8  9  1  0  0  0  0
  9 32  1  0  0  0  0
  9 10  1  0  0  0  0
 10 33  1  0  0  0  0
 11 16  1  0  0  0  0
 11 10  1  0  0  0  0
 12 11  2  0  0  0  0
 13 12  1  0  0  0  0
 13 15  1  0  0  0  0
 14 13  2  0  0  0  0
 15 16  1  0  0  0  0
 16 17  2  0  0  0  0
 18 15  1  0  0  0  0
 18 19  1  0  0  0  0
 19 34  1  0  0  0  0
 20 19  2  0  0  0  0
 20 26  1  0  0  0  0
 21 20  1  0  0  0  0
 22 23  1  0  0  0  0
 22 21  2  0  0  0  0
 23 18  2  0  0  0  0
 24 22  1  0  0  0  0
 25 38  1  0  0  0  0
 25 24  1  0  0  0  0
 26 27  1  0  0  0  0
 27 41  1  0  0  0  0
 27 40  1  0  0  0  0
 30  6  1  0  0  0  0
 31  7  1  0  0  0  0
 35 21  1  0  0  0  0
 36 23  1  0  0  0  0
 37 25  1  0  0  0  0
 39 25  1  0  0  0  0
 42 27  1  0  0  0  0
M  END
>  <Pose>
1

>  <Score>
-7.51

$$$$
