
 OpenBabel03222201593D

 42 45  0  0  1  0  0  0  0  0999 V2000
  -17.4460    2.7270  -25.2820 Cl  0  0  0  0  0  0  0  0  0  0  0  0
  -17.9280    1.0720  -25.6540 C   0  0  0  0  0  0  0  0  0  0  0  0
  -18.4100    0.7500  -26.9110 C   0  0  0  0  0  0  0  0  0  0  0  0
  -18.7860   -0.5300  -27.2120 C   0  0  1  0  0  0  0  0  0  0  0  0
  -18.6630   -1.4670  -26.2150 C   0  0  0  0  0  0  0  0  0  0  0  0
  -18.1880   -1.1750  -24.9630 C   0  0  0  0  0  0  0  0  0  0  0  0
  -17.8100    0.1250  -24.6710 C   0  0  0  0  0  0  0  0  0  0  0  0
  -19.0600   -2.8590  -26.5050 C   0  0  0  0  0  0  0  0  0  0  0  0
  -19.0620   -3.9350  -25.8000 N   0  0  0  0  0  0  0  0  0  0  0  0
  -19.5490   -5.0660  -26.5360 C   0  0  0  0  0  0  0  0  0  0  0  0
  -19.8760   -4.5270  -27.8900 C   0  0  0  0  0  0  0  0  0  0  0  0
  -19.5460   -3.1240  -27.8100 N   0  0  0  0  0  0  0  0  0  0  0  0
  -19.6540   -2.1050  -28.8140 C   0  0  0  0  0  0  0  0  0  0  0  0
  -20.0760   -2.1240  -30.0870 N   0  0  0  0  0  0  0  0  0  0  0  0
  -19.9860   -0.9150  -30.6130 N   0  0  0  0  0  0  0  0  0  0  0  0
  -19.4960   -0.1320  -29.6380 C   0  0  0  0  0  0  0  0  0  0  0  0
  -19.2730    1.0960  -29.7710 O   0  0  0  0  0  0  0  0  0  0  0  0
  -19.2800   -0.8510  -28.5040 N   0  0  0  0  0  0  0  0  0  0  0  0
  -20.3380   -0.4920  -31.9650 C   0  0  0  0  0  0  0  0  0  0  0  0
  -19.1910   -0.7570  -32.8640 C   0  0  0  0  0  0  0  0  0  0  0  0
  -18.0380   -0.8680  -32.3610 O   0  0  0  0  0  0  0  0  0  0  0  0
  -19.3320   -0.8910  -34.2700 N   0  0  0  0  0  0  0  0  0  0  0  0
  -20.1130    0.0590  -35.0290 C   0  0  0  0  0  0  0  0  0  0  0  0
  -19.3860    0.4430  -36.3210 C   0  0  0  0  0  0  0  0  0  0  0  0
  -21.3780   -0.6670  -35.4670 C   0  0  0  0  0  0  0  0  0  0  0  0
  -18.4870    1.5150  -27.6520 H   0  0  0  0  0  0  0  0  0  0  0  0
  -18.0860   -1.9050  -24.1700 H   0  0  0  0  0  0  0  0  0  0  0  0
  -17.4280    0.3640  -23.6660 H   0  0  0  0  0  0  0  0  0  0  0  0
  -18.7070   -5.8010  -26.6090 H   0  0  0  0  0  0  0  0  0  0  0  0
  -20.4250   -5.5400  -26.0370 H   0  0  0  0  0  0  0  0  0  0  0  0
  -19.3300   -5.0390  -28.7090 H   0  0  0  0  0  0  0  0  0  0  0  0
  -20.9850   -4.5690  -28.0540 H   0  0  0  0  0  0  0  0  0  0  0  0
  -21.1650   -1.1460  -32.2970 H   0  0  0  0  0  0  0  0  0  0  0  0
  -20.6970    0.5470  -32.0030 H   0  0  0  0  0  0  0  0  0  0  0  0
  -18.8530   -1.6950  -34.7260 H   0  0  0  0  0  0  0  0  0  0  0  0
  -20.3870    0.9440  -34.4360 H   0  0  0  0  0  0  0  0  0  0  0  0
  -18.8140   -0.4640  -36.6230 H   0  0  0  0  0  0  0  0  0  0  0  0
  -20.1630    0.7110  -37.0500 H   0  0  0  0  0  0  0  0  0  0  0  0
  -18.6930    1.2970  -36.1240 H   0  0  0  0  0  0  0  0  0  0  0  0
  -21.1060   -1.2610  -36.3640 H   0  0  0  0  0  0  0  0  0  0  0  0
  -22.1760    0.0350  -35.7640 H   0  0  0  0  0  0  0  0  0  0  0  0
  -21.6750   -1.3600  -34.6680 H   0  0  0  0  0  0  0  0  0  0  0  0
  2  1  1  0  0  0  0
  2  7  1  0  0  0  0
  3  2  2  0  0  0  0
  4  3  1  1  0  0  0
  4  5  1  0  0  0  0
  5  6  1  0  0  0  0
  6  7  2  0  0  0  0
  6 27  1  0  0  0  0
  7 28  1  0  0  0  0
  8  5  2  0  0  0  0
  8  9  1  0  0  0  0
 10 30  1  0  0  0  0
 10  9  1  0  0  0  0
 11 12  1  0  0  0  0
 11 10  1  0  0  0  0
 12  8  1  0  0  0  0
 13 18  1  0  0  0  0
 13 12  1  0  0  0  0
 14 13  2  0  0  0  0
 15 14  1  0  0  0  0
 15 16  1  0  0  0  0
 16 18  1  0  0  0  0
 17 16  2  0  0  0  0
 18  4  1  0  0  0  0
 19 15  1  0  0  0  0
 20 21  2  0  0  0  0
 20 19  1  0  0  0  0
 22 20  1  0  0  0  0
 23 36  1  0  0  0  0
 23 22  1  0  0  0  0
 24 39  1  0  0  0  0
 24 23  1  0  0  0  0
 25 23  1  0  0  0  0
 25 42  1  0  0  0  0
 26  3  1  0  0  0  0
 29 10  1  0  0  0  0
 31 11  1  0  0  0  0
 32 11  1  0  0  0  0
 33 19  1  0  0  0  0
 34 19  1  0  0  0  0
 35 22  1  0  0  0  0
 37 24  1  0  0  0  0
 38 24  1  0  0  0  0
 40 25  1  0  0  0  0
 41 25  1  0  0  0  0
M  END
>  <Pose>
1

>  <Score>
-7.17

$$$$
