
 OpenBabel03222201593D

 43 46  0  0  1  0  0  0  0  0999 V2000
  -17.5190    1.7590  -25.2320 Cl  0  0  0  0  0  0  0  0  0  0  0  0
  -18.1600    0.2200  -25.8140 C   0  0  0  0  0  0  0  0  0  0  0  0
  -18.6340    0.1560  -27.1270 C   0  0  0  0  0  0  0  0  0  0  0  0
  -19.1400   -1.0170  -27.6490 C   0  0  2  0  0  0  0  0  0  0  0  0
  -19.1540   -2.1130  -26.8090 C   0  0  0  0  0  0  0  0  0  0  0  0
  -18.7040   -2.0940  -25.5300 C   0  0  0  0  0  0  0  0  0  0  0  0
  -18.1900   -0.8960  -25.0090 C   0  0  0  0  0  0  0  0  0  0  0  0
  -19.6980   -3.3670  -27.3890 C   0  0  0  0  0  0  0  0  0  0  0  0
  -19.8510   -4.5520  -26.8800 N   0  0  0  0  0  0  0  0  0  0  0  0
  -20.4310   -5.4500  -27.8520 C   0  0  0  0  0  0  0  0  0  0  0  0
  -20.6290   -4.6550  -29.1190 C   0  0  0  0  0  0  0  0  0  0  0  0
  -20.1500   -3.3420  -28.7180 N   0  0  0  0  0  0  0  0  0  0  0  0
  -20.1020   -2.1650  -29.5220 C   0  0  0  0  0  0  0  0  0  0  0  0
  -20.4680   -1.9300  -30.7990 N   0  0  0  0  0  0  0  0  0  0  0  0
  -20.2120   -0.6580  -31.0980 N   0  0  0  0  0  0  0  0  0  0  0  0
  -19.6900   -0.1340  -29.9910 C   0  0  0  0  0  0  0  0  0  0  0  0
  -19.3090    1.0630  -29.8670 O   0  0  0  0  0  0  0  0  0  0  0  0
  -19.6090   -1.0510  -28.9870 N   0  0  0  0  0  0  0  0  0  0  0  0
  -20.4480    0.0000  -32.3860 C   0  0  0  0  0  0  0  0  0  0  0  0
  -20.2100   -1.1550  -33.4070 C   0  0  0  0  0  0  0  0  0  0  0  0
  -18.9560   -1.4160  -33.4190 O   0  0  0  0  0  0  0  0  0  0  0  0
  -21.2320   -1.6870  -34.0920 N   0  0  0  0  0  0  0  0  0  0  0  0
  -22.2820   -2.2330  -34.7970 C   0  0  0  0  0  0  0  0  0  0  0  0
  -23.2580   -1.1700  -35.3140 C   0  0  0  0  0  0  0  0  0  0  0  0
  -24.0990   -0.7320  -34.3190 O   0  0  0  0  0  0  0  0  0  0  0  0
  -24.1850    0.6220  -34.1760 C   0  0  0  0  0  0  0  0  0  0  0  0
  -18.5830    1.0610  -27.7060 H   0  0  0  0  0  0  0  0  0  0  0  0
  -18.7380   -2.9580  -24.9010 H   0  0  0  0  0  0  0  0  0  0  0  0
  -17.8200   -0.8340  -24.0030 H   0  0  0  0  0  0  0  0  0  0  0  0
  -21.3980   -5.8190  -27.4440 H   0  0  0  0  0  0  0  0  0  0  0  0
  -19.7420   -6.3110  -28.0550 H   0  0  0  0  0  0  0  0  0  0  0  0
  -21.6840   -4.5870  -29.4030 H   0  0  0  0  0  0  0  0  0  0  0  0
  -20.0140   -5.0890  -29.9500 H   0  0  0  0  0  0  0  0  0  0  0  0
  -21.4640    0.3340  -32.4860 H   0  0  0  0  0  0  0  0  0  0  0  0
  -19.6900    0.7560  -32.5260 H   0  0  0  0  0  0  0  0  0  0  0  0
  -20.3550   -2.2970  -34.9300 H   0  0  0  0  0  0  0  0  0  0  0  0
  -22.0150   -2.9450  -35.6070 H   0  0  0  0  0  0  0  0  0  0  0  0
  -22.9380   -2.9050  -34.1150 H   0  0  0  0  0  0  0  0  0  0  0  0
  -22.7500   -0.3440  -35.8380 H   0  0  0  0  0  0  0  0  0  0  0  0
  -23.8810   -1.7120  -36.0670 H   0  0  0  0  0  0  0  0  0  0  0  0
  -24.6210    1.1030  -35.1070 H   0  0  0  0  0  0  0  0  0  0  0  0
  -23.1710    1.1020  -34.1350 H   0  0  0  0  0  0  0  0  0  0  0  0
  -24.8030    0.9140  -33.3110 H   0  0  0  0  0  0  0  0  0  0  0  0
  2  1  1  0  0  0  0
  2  7  1  0  0  0  0
  3  2  2  0  0  0  0
  4  3  1  6  0  0  0
  4  5  1  0  0  0  0
  5  6  1  0  0  0  0
  6  7  2  0  0  0  0
  6 28  1  0  0  0  0
  7 29  1  0  0  0  0
  8  9  1  0  0  0  0
  8  5  2  0  0  0  0
 10 30  1  0  0  0  0
 10  9  1  0  0  0  0
 11 12  1  0  0  0  0
 11 10  1  0  0  0  0
 12  8  1  0  0  0  0
 13 18  1  0  0  0  0
 13 12  1  0  0  0  0
 14 13  2  0  0  0  0
 15 14  1  0  0  0  0
 15 16  1  0  0  0  0
 16 17  2  0  0  0  0
 16 18  1  0  0  0  0
 18  4  1  0  0  0  0
 19 15  1  0  0  0  0
 20 19  1  0  0  0  0
 21 20  2  0  0  0  0
 22 20  1  0  0  0  0
 23 38  1  0  0  0  0
 23 22  1  0  0  0  0
 24 23  1  0  0  0  0
 24 25  1  0  0  0  0
 25 26  1  0  0  0  0
 26 42  1  0  0  0  0
 26 43  1  0  0  0  0
 27  3  1  0  0  0  0
 31 10  1  0  0  0  0
 32 11  1  0  0  0  0
 33 11  1  0  0  0  0
 34 19  1  0  0  0  0
 35 19  1  0  0  0  0
 36 22  1  0  0  0  0
 37 23  1  0  0  0  0
 39 24  1  0  0  0  0
 40 24  1  0  0  0  0
 41 26  1  0  0  0  0
M  END
>  <Pose>
1

>  <Score>
-6.93

$$$$
