
 OpenBabel03222201593D

 43 47  0  0  1  0  0  0  0  0999 V2000
  -17.3460    2.2210  -26.8910 Cl  0  0  0  0  0  0  0  0  0  0  0  0
  -17.9860    0.6000  -27.0560 C   0  0  0  0  0  0  0  0  0  0  0  0
  -18.4300    0.0840  -28.2620 C   0  0  0  0  0  0  0  0  0  0  0  0
  -18.9300   -1.1910  -28.3790 C   0  0  1  0  0  0  0  0  0  0  0  0
  -18.9720   -1.9440  -27.2300 C   0  0  0  0  0  0  0  0  0  0  0  0
  -18.5460   -1.4840  -26.0070 C   0  0  0  0  0  0  0  0  0  0  0  0
  -18.0430   -0.1830  -25.9220 C   0  0  0  0  0  0  0  0  0  0  0  0
  -19.5040   -3.3180  -27.3160 C   0  0  0  0  0  0  0  0  0  0  0  0
  -19.6590   -4.2280  -26.4250 N   0  0  0  0  0  0  0  0  0  0  0  0
  -20.2230   -5.4320  -26.9740 C   0  0  0  0  0  0  0  0  0  0  0  0
  -20.4110   -5.1270  -28.4260 C   0  0  0  0  0  0  0  0  0  0  0  0
  -19.9390   -3.7760  -28.5800 N   0  0  0  0  0  0  0  0  0  0  0  0
  -19.8700   -2.9400  -29.7530 C   0  0  0  0  0  0  0  0  0  0  0  0
  -20.2170   -3.1530  -31.0370 N   0  0  0  0  0  0  0  0  0  0  0  0
  -19.9590   -2.0670  -31.7470 N   0  0  0  0  0  0  0  0  0  0  0  0
  -19.4470   -1.1820  -30.8760 C   0  0  0  0  0  0  0  0  0  0  0  0
  -19.0840   -0.0200  -31.2170 O   0  0  0  0  0  0  0  0  0  0  0  0
  -19.3800   -1.6950  -29.6290 N   0  0  0  0  0  0  0  0  0  0  0  0
  -20.1820   -1.8600  -33.1850 C   0  0  0  0  0  0  0  0  0  0  0  0
  -21.6420   -1.9650  -33.4460 C   0  0  0  0  0  0  0  0  0  0  0  0
  -22.1150   -3.1250  -33.5500 O   0  0  0  0  0  0  0  0  0  0  0  0
  -22.4690   -0.8160  -33.5730 N   0  0  0  0  0  0  0  0  0  0  0  0
  -23.7810   -0.8120  -34.1900 C   0  0  0  0  0  0  0  0  0  0  0  0
  -24.2030    0.6300  -34.2820 C   0  0  0  0  0  0  0  0  0  0  0  0
  -22.8730    1.3510  -34.2030 C   0  0  0  0  0  0  0  0  0  0  0  0
  -22.1680    0.5230  -33.1240 C   0  0  0  0  0  0  0  0  0  0  0  0
  -18.3770    0.7050  -29.1230 H   0  0  0  0  0  0  0  0  0  0  0  0
  -18.5910   -2.0910  -25.1310 H   0  0  0  0  0  0  0  0  0  0  0  0
  -17.7150    0.1540  -24.9540 H   0  0  0  0  0  0  0  0  0  0  0  0
  -21.2270   -5.6570  -26.5300 H   0  0  0  0  0  0  0  0  0  0  0  0
  -19.5410   -6.3060  -26.8360 H   0  0  0  0  0  0  0  0  0  0  0  0
  -21.4690   -5.2450  -28.7450 H   0  0  0  0  0  0  0  0  0  0  0  0
  -19.7300   -5.7800  -29.0230 H   0  0  0  0  0  0  0  0  0  0  0  0
  -19.6230   -2.6300  -33.7560 H   0  0  0  0  0  0  0  0  0  0  0  0
  -19.8250   -0.8470  -33.4190 H   0  0  0  0  0  0  0  0  0  0  0  0
  -24.4460   -1.3930  -33.5220 H   0  0  0  0  0  0  0  0  0  0  0  0
  -23.6900   -1.2740  -35.1980 H   0  0  0  0  0  0  0  0  0  0  0  0
  -24.7760    0.9190  -33.3710 H   0  0  0  0  0  0  0  0  0  0  0  0
  -24.7520    0.8710  -35.2140 H   0  0  0  0  0  0  0  0  0  0  0  0
  -22.9930    2.3970  -33.9140 H   0  0  0  0  0  0  0  0  0  0  0  0
  -22.3300    1.2300  -35.1790 H   0  0  0  0  0  0  0  0  0  0  0  0
  -21.1080    0.7520  -33.0410 H   0  0  0  0  0  0  0  0  0  0  0  0
  -22.7410    0.6810  -32.1870 H   0  0  0  0  0  0  0  0  0  0  0  0
  2  1  1  0  0  0  0
  2  7  1  0  0  0  0
  3  2  2  0  0  0  0
  4  3  1  1  0  0  0
  4  5  1  0  0  0  0
  5  6  1  0  0  0  0
  6  7  2  0  0  0  0
  6 28  1  0  0  0  0
  7 29  1  0  0  0  0
  8  5  2  0  0  0  0
  8  9  1  0  0  0  0
 10 31  1  0  0  0  0
 10 30  1  0  0  0  0
 10  9  1  0  0  0  0
 11 10  1  0  0  0  0
 12 11  1  0  0  0  0
 12  8  1  0  0  0  0
 13 18  1  0  0  0  0
 13 12  1  0  0  0  0
 14 13  2  0  0  0  0
 15 14  1  0  0  0  0
 15 16  1  0  0  0  0
 16 18  1  0  0  0  0
 17 16  2  0  0  0  0
 18  4  1  0  0  0  0
 19 15  1  0  0  0  0
 20 19  1  0  0  0  0
 21 20  2  0  0  0  0
 22 20  1  0  0  0  0
 22 26  1  0  0  0  0
 23 22  1  0  0  0  0
 23 36  1  0  0  0  0
 24 25  1  0  0  0  0
 24 23  1  0  0  0  0
 24 38  1  0  0  0  0
 25 40  1  0  0  0  0
 25 26  1  0  0  0  0
 26 42  1  0  0  0  0
 26 43  1  0  0  0  0
 27  3  1  0  0  0  0
 32 11  1  0  0  0  0
 33 11  1  0  0  0  0
 34 19  1  0  0  0  0
 35 19  1  0  0  0  0
 37 23  1  0  0  0  0
 39 24  1  0  0  0  0
 41 25  1  0  0  0  0
M  END
>  <Pose>
1

>  <Score>
-6.71

$$$$
