
 OpenBabel03222201593D

 47 50  0  0  0  0  0  0  0  0999 V2000
  -16.8100    3.2070  -22.5270 Cl  0  0  0  0  0  0  0  0  0  0  0  0
  -17.2410    2.3510  -24.0070 C   0  0  0  0  0  0  0  0  0  0  0  0
  -17.5450    1.0240  -24.0250 C   0  0  0  0  0  0  0  0  0  0  0  0
  -17.8770    0.3950  -25.2090 C   0  0  0  0  0  0  0  0  0  0  0  0
  -17.9070    1.0960  -26.3870 C   0  0  0  0  0  0  0  0  0  0  0  0
  -17.6000    2.4320  -26.3670 C   0  0  0  0  0  0  0  0  0  0  0  0
  -17.2670    3.0650  -25.1830 C   0  0  0  0  0  0  0  0  0  0  0  0
  -18.2480    0.4710  -27.6450 N   0  0  0  0  0  0  0  0  0  0  0  0
  -18.5710   -0.9040  -27.7130 C   0  0  0  0  0  0  0  0  0  0  0  0
  -18.8870   -1.5080  -28.8350 C   0  0  0  0  0  0  0  0  0  0  0  0
  -18.9610   -0.9220  -30.1280 N   0  0  0  0  0  0  0  0  0  0  0  0
  -17.9440   -1.1030  -31.1430 C   0  0  0  0  0  0  0  0  0  0  0  0
  -18.6700   -1.4070  -32.4640 C   0  0  0  0  0  0  0  0  0  0  0  0
  -20.0680   -1.5910  -32.2750 N   0  0  0  0  0  0  0  0  0  0  0  0
  -20.7680   -0.4160  -31.7570 C   0  0  0  0  0  0  0  0  0  0  0  0
  -20.0900   -0.0730  -30.4520 C   0  0  0  0  0  0  0  0  0  0  0  0
  -20.8580   -2.7460  -32.5000 C   0  0  0  0  0  0  0  0  0  0  0  0
  -20.6830   -3.8290  -31.6560 N   0  0  0  0  0  0  0  0  0  0  0  0
  -21.3520   -4.9750  -31.7690 C   0  0  0  0  0  0  0  0  0  0  0  0
  -22.2660   -5.0920  -32.7790 C   0  0  0  0  0  0  0  0  0  0  0  0
  -22.4660   -4.0430  -33.6310 C   0  0  0  0  0  0  0  0  0  0  0  0
  -21.7630   -2.8270  -33.5160 C   0  0  0  0  0  0  0  0  0  0  0  0
  -22.0210   -1.7380  -34.4080 C   0  0  0  0  0  0  0  0  0  0  0  0
  -23.0710   -1.1040  -34.4830 O   0  0  0  0  0  0  0  0  0  0  0  0
  -20.9870   -1.3320  -35.2970 N   0  0  0  0  0  0  0  0  0  0  0  0
  -18.5460   -1.6620  -26.4820 N   0  0  0  0  0  0  0  0  0  0  0  0
  -18.2060   -1.0220  -25.2650 C   0  0  0  0  0  0  0  0  0  0  0  0
  -18.1770   -1.6710  -24.1640 O   0  0  0  0  0  0  0  0  0  0  0  0
  -17.5310    0.4460  -23.1300 H   0  0  0  0  0  0  0  0  0  0  0  0
  -17.6280    2.9710  -27.3070 H   0  0  0  0  0  0  0  0  0  0  0  0
  -17.0300    4.1070  -25.1730 H   0  0  0  0  0  0  0  0  0  0  0  0
  -18.2550    1.0490  -28.5030 H   0  0  0  0  0  0  0  0  0  0  0  0
  -19.1180   -2.5830  -28.7600 H   0  0  0  0  0  0  0  0  0  0  0  0
  -17.2500   -1.9190  -30.9480 H   0  0  0  0  0  0  0  0  0  0  0  0
  -17.3650   -0.1380  -31.2280 H   0  0  0  0  0  0  0  0  0  0  0  0
  -18.2060   -2.2990  -32.8670 H   0  0  0  0  0  0  0  0  0  0  0  0
  -18.4780   -0.4770  -33.0560 H   0  0  0  0  0  0  0  0  0  0  0  0
  -21.8240   -0.6020  -31.5550 H   0  0  0  0  0  0  0  0  0  0  0  0
  -20.6690    0.4450  -32.4480 H   0  0  0  0  0  0  0  0  0  0  0  0
  -19.6810    0.9670  -30.4720 H   0  0  0  0  0  0  0  0  0  0  0  0
  -20.8280   -0.0960  -29.6140 H   0  0  0  0  0  0  0  0  0  0  0  0
  -21.1550   -5.7850  -31.0620 H   0  0  0  0  0  0  0  0  0  0  0  0
  -22.8150   -6.0010  -32.8910 H   0  0  0  0  0  0  0  0  0  0  0  0
  -23.1920   -4.0880  -34.4600 H   0  0  0  0  0  0  0  0  0  0  0  0
  -20.7600   -1.8980  -36.1450 H   0  0  0  0  0  0  0  0  0  0  0  0
  -20.4120   -0.4720  -35.1590 H   0  0  0  0  0  0  0  0  0  0  0  0
  -18.7770   -2.6750  -26.4940 H   0  0  0  0  0  0  0  0  0  0  0  0
  2  1  1  0  0  0  0
  3  2  1  0  0  0  0
  3 29  1  0  0  0  0
  4  3  2  0  0  0  0
  5  6  2  0  0  0  0
  5  4  1  0  0  0  0
  6  7  1  0  0  0  0
  7 31  1  0  0  0  0
  7  2  2  0  0  0  0
  8  5  1  0  0  0  0
  9  8  1  0  0  0  0
  9 26  1  0  0  0  0
 10 33  1  0  0  0  0
 10  9  2  0  0  0  0
 11 10  1  0  0  0  0
 12 34  1  0  0  0  0
 12 11  1  0  0  0  0
 13 14  1  0  0  0  0
 13 12  1  0  0  0  0
 14 15  1  0  0  0  0
 15 38  1  0  0  0  0
 15 16  1  0  0  0  0
 16 11  1  0  0  0  0
 16 41  1  0  0  0  0
 17 14  1  0  0  0  0
 17 18  1  0  0  0  0
 19 18  2  0  0  0  0
 19 42  1  0  0  0  0
 20 19  1  0  0  0  0
 21 22  1  0  0  0  0
 21 20  2  0  0  0  0
 22 17  2  0  0  0  0
 23 22  1  0  0  0  0
 24 23  2  0  0  0  0
 25 46  1  0  0  0  0
 25 23  1  0  0  0  0
 26 27  1  0  0  0  0
 27  4  1  0  0  0  0
 27 28  2  0  0  0  0
 30  6  1  0  0  0  0
 32  8  1  0  0  0  0
 35 12  1  0  0  0  0
 36 13  1  0  0  0  0
 37 13  1  0  0  0  0
 39 15  1  0  0  0  0
 40 16  1  0  0  0  0
 43 20  1  0  0  0  0
 44 21  1  0  0  0  0
 45 25  1  0  0  0  0
 47 26  1  0  0  0  0
M  END
>  <Pose>
1

>  <Score>
-7.06

$$$$
