
 OpenBabel03222201593D

 38 42  0  0  1  0  0  0  0  0999 V2000
  -19.4670   -2.9030  -26.1140 B   0  0  0  0  0  0  0  0  0  0  0  0
  -19.6730   -2.6600  -27.9840 C   0  0  0  0  0  0  0  0  0  0  0  0
  -19.2190   -1.5030  -28.5700 C   0  0  0  0  0  0  0  0  0  0  0  0
  -19.3800   -1.3540  -29.9300 C   0  0  0  0  0  0  0  0  0  0  0  0
  -19.9780   -2.3200  -30.7090 C   0  0  0  0  0  0  0  0  0  0  0  0
  -20.4370   -3.4890  -30.1180 C   0  0  0  0  0  0  0  0  0  0  0  0
  -20.2710   -3.6370  -28.7390 C   0  0  0  0  0  0  0  0  0  0  0  0
  -20.1380   -2.1530  -32.1230 N   0  0  0  0  0  0  0  0  0  0  0  0
  -19.1430   -1.5630  -32.9450 C   0  0  0  0  0  0  0  0  0  0  0  0
  -17.9360   -1.4490  -32.6200 O   0  0  0  0  0  0  0  0  0  0  0  0
  -19.7660   -1.1190  -34.2210 C   0  0  2  0  0  0  0  0  0  0  0  0
  -20.1750    0.3210  -34.1800 C   0  0  1  0  0  0  0  0  0  0  0  0
  -21.3010    0.2910  -35.0320 O   0  0  0  0  0  0  0  0  0  0  0  0
  -22.0600   -0.6390  -34.2780 C   0  0  1  0  0  0  0  0  0  0  0  0
  -21.1330   -1.8040  -34.2420 C   0  0  2  0  0  0  0  0  0  0  0  0
  -21.2490   -2.5170  -32.9410 C   0  0  0  0  0  0  0  0  0  0  0  0
  -22.1630   -3.2900  -32.6410 O   0  0  0  0  0  0  0  0  0  0  0  0
  -22.0220    0.0360  -32.9540 C   0  0  0  0  0  0  0  0  0  0  0  0
  -20.8110    0.5800  -32.8790 C   0  0  0  0  0  0  0  0  0  0  0  0
  -19.1540    1.2830  -34.6130 C   0  0  0  0  0  0  0  0  0  0  0  0
  -18.3730    1.7620  -33.5980 O   0  0  0  0  0  0  0  0  0  0  0  0
  -18.6750    3.0850  -33.3930 C   0  0  0  0  0  0  0  0  0  0  0  0
  -19.7340    3.4350  -34.3870 C   0  0  0  0  0  0  0  0  0  0  0  0
  -19.7120    2.3640  -35.2730 O   0  0  0  0  0  0  0  0  0  0  0  0
  -18.7380   -0.7050  -27.9980 H   0  0  0  0  0  0  0  0  0  0  0  0
  -19.0280   -0.4390  -30.4310 H   0  0  0  0  0  0  0  0  0  0  0  0
  -20.9010   -4.2360  -30.7390 H   0  0  0  0  0  0  0  0  0  0  0  0
  -20.6280   -4.5470  -28.2800 H   0  0  0  0  0  0  0  0  0  0  0  0
  -19.1380   -1.3850  -35.0710 H   0  0  0  0  0  0  0  0  0  0  0  0
  -23.0440   -0.8130  -34.6780 H   0  0  0  0  0  0  0  0  0  0  0  0
  -21.2200   -2.4890  -35.0850 H   0  0  0  0  0  0  0  0  0  0  0  0
  -22.8490    0.0360  -32.2570 H   0  0  0  0  0  0  0  0  0  0  0  0
  -20.4660    1.0870  -31.9830 H   0  0  0  0  0  0  0  0  0  0  0  0
  -18.4900    0.7650  -35.3550 H   0  0  0  0  0  0  0  0  0  0  0  0
  -17.8060    3.7610  -33.5130 H   0  0  0  0  0  0  0  0  0  0  0  0
  -19.1170    3.1780  -32.3670 H   0  0  0  0  0  0  0  0  0  0  0  0
  -19.4790    4.3980  -34.9180 H   0  0  0  0  0  0  0  0  0  0  0  0
  -20.7560    3.5120  -33.9370 H   0  0  0  0  0  0  0  0  0  0  0  0
  2  1  1  0  0  0  0
  3 25  1  0  0  0  0
  3  2  1  0  0  0  0
  4  3  2  0  0  0  0
  5  6  2  0  0  0  0
  5  4  1  0  0  0  0
  6  7  1  0  0  0  0
  7 28  1  0  0  0  0
  7  2  2  0  0  0  0
  8  5  1  0  0  0  0
  9 10  2  0  0  0  0
  9  8  1  0  0  0  0
 11 29  1  6  0  0  0
 11 12  1  0  0  0  0
 11  9  1  0  0  0  0
 12 20  1  6  0  0  0
 12 19  1  0  0  0  0
 13 14  1  0  0  0  0
 13 12  1  0  0  0  0
 14 30  1  6  0  0  0
 14 15  1  0  0  0  0
 14 18  1  0  0  0  0
 15 31  1  6  0  0  0
 15 11  1  0  0  0  0
 15 16  1  0  0  0  0
 16 17  2  0  0  0  0
 16  8  1  0  0  0  0
 18 19  2  0  0  0  0
 18 32  1  0  0  0  0
 19 33  1  0  0  0  0
 20 21  1  0  0  0  0
 21 22  1  0  0  0  0
 22 36  1  0  0  0  0
 23 38  1  0  0  0  0
 23 22  1  0  0  0  0
 24 20  1  0  0  0  0
 24 23  1  0  0  0  0
 26  4  1  0  0  0  0
 27  6  1  0  0  0  0
 34 20  1  0  0  0  0
 35 22  1  0  0  0  0
 37 23  1  0  0  0  0
M  END
>  <Pose>
1

>  <Score>
-4.69

$$$$
