
 OpenBabel03162216093D

 38 42  0  0  1  0  0  0  0  0999 V2000
  -19.2620   -2.7080  -25.9010 B   0  0  0  0  0  0  0  0  0  0  0  0
  -19.4700   -2.5190  -27.7760 C   0  0  0  0  0  0  0  0  0  0  0  0
  -18.9400   -1.4210  -28.4090 C   0  0  0  0  0  0  0  0  0  0  0  0
  -19.1050   -1.3100  -29.7720 C   0  0  0  0  0  0  0  0  0  0  0  0
  -19.7820   -2.2570  -30.5090 C   0  0  0  0  0  0  0  0  0  0  0  0
  -20.3180   -3.3670  -29.8710 C   0  0  0  0  0  0  0  0  0  0  0  0
  -20.1470   -3.4770  -28.4890 C   0  0  0  0  0  0  0  0  0  0  0  0
  -19.9450   -2.1310  -31.9270 N   0  0  0  0  0  0  0  0  0  0  0  0
  -18.9550   -1.5570  -32.7670 C   0  0  0  0  0  0  0  0  0  0  0  0
  -17.7490   -1.4260  -32.4470 O   0  0  0  0  0  0  0  0  0  0  0  0
  -19.5840   -1.1530  -34.0540 C   0  0  2  0  0  0  0  0  0  0  0  0
  -20.0030    0.2840  -34.0520 C   0  0  1  0  0  0  0  0  0  0  0  0
  -21.1300    0.2230  -34.9010 O   0  0  0  0  0  0  0  0  0  0  0  0
  -21.8820   -0.6900  -34.1190 C   0  0  1  0  0  0  0  0  0  0  0  0
  -20.9460   -1.8480  -34.0530 C   0  0  2  0  0  0  0  0  0  0  0  0
  -21.0550   -2.5250  -32.7330 C   0  0  0  0  0  0  0  0  0  0  0  0
  -21.9630   -3.2960  -32.4100 O   0  0  0  0  0  0  0  0  0  0  0  0
  -21.8450    0.0210  -32.8150 C   0  0  0  0  0  0  0  0  0  0  0  0
  -20.6380    0.5750  -32.7570 C   0  0  0  0  0  0  0  0  0  0  0  0
  -18.9900    1.2420  -34.5140 C   0  0  0  0  0  0  0  0  0  0  0  0
  -18.2580    1.8090  -33.5070 O   0  0  0  0  0  0  0  0  0  0  0  0
  -18.6000    3.1340  -33.4050 C   0  0  0  0  0  0  0  0  0  0  0  0
  -19.6280    3.3870  -34.4580 C   0  0  0  0  0  0  0  0  0  0  0  0
  -19.5470    2.2590  -35.2670 O   0  0  0  0  0  0  0  0  0  0  0  0
  -18.3950   -0.6400  -27.8720 H   0  0  0  0  0  0  0  0  0  0  0  0
  -18.6930   -0.4430  -30.3100 H   0  0  0  0  0  0  0  0  0  0  0  0
  -20.8430   -4.1000  -30.4590 H   0  0  0  0  0  0  0  0  0  0  0  0
  -20.5650   -4.3410  -27.9930 H   0  0  0  0  0  0  0  0  0  0  0  0
  -18.9560   -1.4380  -34.8970 H   0  0  0  0  0  0  0  0  0  0  0  0
  -22.8650   -0.8820  -34.5130 H   0  0  0  0  0  0  0  0  0  0  0  0
  -21.0300   -2.5570  -34.8770 H   0  0  0  0  0  0  0  0  0  0  0  0
  -22.6710    0.0350  -32.1170 H   0  0  0  0  0  0  0  0  0  0  0  0
  -20.2950    1.1090  -31.8770 H   0  0  0  0  0  0  0  0  0  0  0  0
  -18.2860    0.6910  -35.1940 H   0  0  0  0  0  0  0  0  0  0  0  0
  -17.7430    3.8230  -33.5400 H   0  0  0  0  0  0  0  0  0  0  0  0
  -19.0820    3.2860  -32.4050 H   0  0  0  0  0  0  0  0  0  0  0  0
  -19.3760    4.3190  -35.0450 H   0  0  0  0  0  0  0  0  0  0  0  0
  -20.6680    3.4690  -34.0520 H   0  0  0  0  0  0  0  0  0  0  0  0
  2  1  1  0  0  0  0
  3 25  1  0  0  0  0
  3  2  1  0  0  0  0
  4  3  2  0  0  0  0
  5  6  2  0  0  0  0
  5  4  1  0  0  0  0
  6  7  1  0  0  0  0
  7 28  1  0  0  0  0
  7  2  2  0  0  0  0
  8  5  1  0  0  0  0
  9 10  2  0  0  0  0
  9  8  1  0  0  0  0
 11 29  1  6  0  0  0
 11 15  1  0  0  0  0
 11 12  1  0  0  0  0
 11  9  1  0  0  0  0
 12 20  1  6  0  0  0
 12 19  1  0  0  0  0
 13 14  1  0  0  0  0
 13 12  1  0  0  0  0
 14 30  1  6  0  0  0
 14 15  1  0  0  0  0
 14 18  1  0  0  0  0
 15 31  1  6  0  0  0
 15 16  1  0  0  0  0
 16 17  2  0  0  0  0
 16  8  1  0  0  0  0
 18 19  2  0  0  0  0
 18 32  1  0  0  0  0
 19 33  1  0  0  0  0
 20 21  1  0  0  0  0
 21 22  1  0  0  0  0
 22 36  1  0  0  0  0
 23 38  1  0  0  0  0
 23 22  1  0  0  0  0
 24 20  1  0  0  0  0
 24 23  1  0  0  0  0
 26  4  1  0  0  0  0
 27  6  1  0  0  0  0
 34 20  1  0  0  0  0
 35 22  1  0  0  0  0
 37 23  1  0  0  0  0
M  END
>  <Pose>
1

>  <Score>
-4.73

$$$$
