
 OpenBabel03222201593D

 35 38  0  0  1  0  0  0  0  0999 V2000
  -20.3260   -5.2410  -27.5460 Cl  0  0  0  0  0  0  0  0  0  0  0  0
  -19.8750   -3.5430  -27.6530 C   0  0  0  0  0  0  0  0  0  0  0  0
  -20.1190   -2.8730  -28.8310 C   0  0  0  0  0  0  0  0  0  0  0  0
  -19.7720   -1.5780  -28.9020 N   0  0  0  0  0  0  0  0  0  0  0  0
  -19.1970   -0.9150  -27.8650 C   0  0  0  0  0  0  0  0  0  0  0  0
  -18.9550   -1.5580  -26.7100 N   0  0  0  0  0  0  0  0  0  0  0  0
  -18.3930   -0.7070  -25.8570 N   0  0  0  0  0  0  0  0  0  0  0  0
  -18.2570    0.5050  -26.4320 C   0  0  0  0  0  0  0  0  0  0  0  0
  -18.7650    0.3450  -27.6800 N   0  0  0  0  0  0  0  0  0  0  0  0
  -17.7030    1.6870  -25.8620 N   0  0  0  0  0  0  0  0  0  0  0  0
  -17.2760    2.8370  -26.5790 C   0  0  0  0  0  0  0  0  0  0  0  0
  -17.5900    3.1890  -27.7450 O   0  0  0  0  0  0  0  0  0  0  0  0
  -16.3400    3.6350  -25.7150 C   0  0  2  0  0  0  0  0  0  0  0  0
  -16.4740    3.0660  -24.3480 C   0  0  1  0  0  0  0  0  0  0  0  0
  -17.0480    4.0260  -23.3210 C   0  0  0  0  0  0  0  0  0  0  0  0
  -18.2840    4.6120  -23.9330 C   0  0  0  0  0  0  0  0  0  0  0  0
  -18.1260    5.1330  -25.1360 C   0  0  0  0  0  0  0  0  0  0  0  0
  -16.7720    5.0850  -25.7390 C   0  0  0  0  0  0  0  0  0  0  0  0
  -17.4590    1.9780  -24.4940 C   0  0  0  0  0  0  0  0  0  0  0  0
  -18.0260    1.3670  -23.5300 O   0  0  0  0  0  0  0  0  0  0  0  0
  -19.2920   -2.8670  -26.6040 C   0  0  0  0  0  0  0  0  0  0  0  0
  -19.0650   -3.4770  -25.5120 O   0  0  0  0  0  0  0  0  0  0  0  0
  -20.7540   -3.5920  -29.9870 C   0  0  0  0  0  0  0  0  0  0  0  0
  -19.9540   -1.0640  -29.7960 H   0  0  0  0  0  0  0  0  0  0  0  0
  -15.3100    3.5460  -26.1290 H   0  0  0  0  0  0  0  0  0  0  0  0
  -15.4770    2.6910  -24.0300 H   0  0  0  0  0  0  0  0  0  0  0  0
  -17.3240    3.4580  -22.4150 H   0  0  0  0  0  0  0  0  0  0  0  0
  -16.3160    4.8270  -23.1230 H   0  0  0  0  0  0  0  0  0  0  0  0
  -19.2190    4.5860  -23.3930 H   0  0  0  0  0  0  0  0  0  0  0  0
  -18.9470    5.5770  -25.6610 H   0  0  0  0  0  0  0  0  0  0  0  0
  -16.8060    5.4740  -26.7840 H   0  0  0  0  0  0  0  0  0  0  0  0
  -16.0560    5.6800  -25.1230 H   0  0  0  0  0  0  0  0  0  0  0  0
  -20.1320   -4.4300  -30.3240 H   0  0  0  0  0  0  0  0  0  0  0  0
  -21.7750   -3.9530  -29.7000 H   0  0  0  0  0  0  0  0  0  0  0  0
  -20.8780   -2.9100  -30.8530 H   0  0  0  0  0  0  0  0  0  0  0  0
  2  1  1  0  0  0  0
  2 21  1  0  0  0  0
  3  2  2  0  0  0  0
  4  3  1  0  0  0  0
  4  5  1  0  0  0  0
  5  9  2  0  0  0  0
  5  6  1  0  0  0  0
  6 21  1  0  0  0  0
  6  7  1  0  0  0  0
  8 10  1  0  0  0  0
  8  7  2  0  0  0  0
  9  8  1  0  0  0  0
 10 19  1  0  0  0  0
 11 10  1  0  0  0  0
 11 13  1  0  0  0  0
 12 11  2  0  0  0  0
 13 25  1  6  0  0  0
 13 14  1  0  0  0  0
 14 26  1  1  0  0  0
 14 15  1  0  0  0  0
 15 28  1  0  0  0  0
 15 27  1  0  0  0  0
 16 29  1  0  0  0  0
 16 15  1  0  0  0  0
 17 16  2  0  0  0  0
 18 13  1  0  0  0  0
 18 17  1  0  0  0  0
 18 32  1  0  0  0  0
 19 14  1  0  0  0  0
 19 20  2  0  0  0  0
 21 22  2  0  0  0  0
 23 34  1  0  0  0  0
 23  3  1  0  0  0  0
 24  4  1  0  0  0  0
 30 17  1  0  0  0  0
 31 18  1  0  0  0  0
 33 23  1  0  0  0  0
 35 23  1  0  0  0  0
M  END
>  <Pose>
1

>  <Score>
-6.30

$$$$
