
 OpenBabel03222201593D

 51 54  0  0  1  0  0  0  0  0999 V2000
  -18.2690    3.6200  -33.5530 Cl  0  0  0  0  0  0  0  0  0  0  0  0
  -19.2450    2.3740  -34.3010 C   0  0  0  0  0  0  0  0  0  0  0  0
  -18.9930    1.0360  -34.1000 C   0  0  0  0  0  0  0  0  0  0  0  0
  -19.7850    0.0410  -34.7120 C   0  0  0  0  0  0  0  0  0  0  0  0
  -20.8030    0.4890  -35.5030 C   0  0  0  0  0  0  0  0  0  0  0  0
  -21.0640    1.8580  -35.7120 C   0  0  0  0  0  0  0  0  0  0  0  0
  -20.2770    2.8020  -35.1050 C   0  0  0  0  0  0  0  0  0  0  0  0
  -19.4730   -1.3090  -34.4570 N   0  0  0  0  0  0  0  0  0  0  0  0
  -19.6500   -1.9770  -33.2560 C   0  0  0  0  0  0  0  0  0  0  0  0
  -18.8730   -2.8420  -32.8380 O   0  0  0  0  0  0  0  0  0  0  0  0
  -20.8340   -1.6930  -32.3550 C   0  0  0  0  0  0  0  0  0  0  0  0
  -20.4460   -2.0040  -30.9710 N   0  0  0  0  0  0  0  0  0  0  0  0
  -20.5600   -3.2350  -30.3870 C   0  0  1  0  0  0  0  0  0  0  0  0
  -20.0950   -3.1690  -29.1290 N   0  0  0  0  0  0  0  0  0  0  0  0
  -19.6750   -1.9290  -28.8510 C   0  0  0  0  0  0  0  0  0  0  0  0
  -19.9110   -1.2170  -30.0360 C   0  0  0  0  0  0  0  0  0  0  0  0
  -19.0890   -1.3360  -27.6600 C   0  0  0  0  0  0  0  0  0  0  0  0
  -18.9510   -2.0210  -26.4840 C   0  0  0  0  0  0  0  0  0  0  0  0
  -18.3790   -1.4770  -25.3490 C   0  0  0  0  0  0  0  0  0  0  0  0
  -17.9070   -0.1730  -25.3490 C   0  0  0  0  0  0  0  0  0  0  0  0
  -18.0450    0.5170  -26.5290 C   0  0  0  0  0  0  0  0  0  0  0  0
  -18.6160   -0.0270  -27.6630 C   0  0  0  0  0  0  0  0  0  0  0  0
  -17.3290    0.4050  -24.2320 O   0  0  0  0  0  0  0  0  0  0  0  0
  -17.6230    1.7250  -23.8120 C   0  0  0  0  0  0  0  0  0  0  0  0
  -20.2130   -4.4930  -28.5180 C   0  0  0  0  0  0  0  0  0  0  0  0
  -20.4230   -5.4480  -29.6770 C   0  0  0  0  0  0  0  0  0  0  0  0
  -21.0520   -4.5950  -30.7210 C   0  0  0  0  0  0  0  0  0  0  0  0
  -17.8760    0.6410  -33.2250 C   0  0  0  0  0  0  0  0  0  0  0  0
  -21.4510   -0.2090  -36.0060 H   0  0  0  0  0  0  0  0  0  0  0  0
  -21.8770    2.1930  -36.3420 H   0  0  0  0  0  0  0  0  0  0  0  0
  -20.4790    3.8710  -35.2630 H   0  0  0  0  0  0  0  0  0  0  0  0
  -19.0580   -1.8760  -35.2570 H   0  0  0  0  0  0  0  0  0  0  0  0
  -21.0100   -0.6080  -32.4130 H   0  0  0  0  0  0  0  0  0  0  0  0
  -21.6920   -2.3190  -32.6170 H   0  0  0  0  0  0  0  0  0  0  0  0
  -19.6950   -0.1560  -30.1850 H   0  0  0  0  0  0  0  0  0  0  0  0
  -19.3320   -3.0560  -26.4810 H   0  0  0  0  0  0  0  0  0  0  0  0
  -18.3040   -2.0830  -24.4490 H   0  0  0  0  0  0  0  0  0  0  0  0
  -17.6760    1.5490  -26.5430 H   0  0  0  0  0  0  0  0  0  0  0  0
  -18.7170    0.5470  -28.5850 H   0  0  0  0  0  0  0  0  0  0  0  0
  -17.0630    2.4760  -24.4170 H   0  0  0  0  0  0  0  0  0  0  0  0
  -18.6950    1.9690  -23.8330 H   0  0  0  0  0  0  0  0  0  0  0  0
  -17.2840    1.8310  -22.7610 H   0  0  0  0  0  0  0  0  0  0  0  0
  -20.9960   -4.5460  -27.7610 H   0  0  0  0  0  0  0  0  0  0  0  0
  -19.2540   -4.8270  -28.0590 H   0  0  0  0  0  0  0  0  0  0  0  0
  -21.0040   -6.3310  -29.3800 H   0  0  0  0  0  0  0  0  0  0  0  0
  -19.4130   -5.7500  -30.0890 H   0  0  0  0  0  0  0  0  0  0  0  0
  -20.7660   -4.8730  -31.7580 H   0  0  0  0  0  0  0  0  0  0  0  0
  -22.1720   -4.6260  -30.6050 H   0  0  0  0  0  0  0  0  0  0  0  0
  -17.3250    1.5420  -32.9000 H   0  0  0  0  0  0  0  0  0  0  0  0
  -18.2580    0.1660  -32.2740 H   0  0  0  0  0  0  0  0  0  0  0  0
  -17.1750   -0.0820  -33.6780 H   0  0  0  0  0  0  0  0  0  0  0  0
  2  3  1  0  0  0  0
  2  1  1  0  0  0  0
  3 28  1  0  0  0  0
  4  8  1  0  0  0  0
  4  3  2  0  0  0  0
  5  4  1  0  0  0  0
  6  5  2  0  0  0  0
  6  7  1  0  0  0  0
  7  2  2  0  0  0  0
  8  9  1  0  0  0  0
  9 10  2  0  0  0  0
  9 11  1  0  0  0  0
 11 12  1  0  0  0  0
 12 16  1  0  0  0  0
 13 12  1  1  0  0  0
 13 14  1  0  0  0  0
 14 15  1  0  0  0  0
 14 25  1  0  0  0  0
 15 17  1  0  0  0  0
 16 15  2  0  0  0  0
 17 18  1  0  0  0  0
 18 36  1  0  0  0  0
 18 19  2  0  0  0  0
 19 37  1  0  0  0  0
 20 19  1  0  0  0  0
 20 23  1  0  0  0  0
 21 20  2  0  0  0  0
 22 17  2  0  0  0  0
 22 21  1  0  0  0  0
 23 24  1  0  0  0  0
 24 42  1  0  0  0  0
 25 44  1  0  0  0  0
 25 43  1  0  0  0  0
 26 45  1  0  0  0  0
 26 25  1  0  0  0  0
 27 48  1  0  0  0  0
 27 13  1  0  0  0  0
 27 26  1  0  0  0  0
 28 49  1  0  0  0  0
 28 50  1  0  0  0  0
 29  5  1  0  0  0  0
 30  6  1  0  0  0  0
 31  7  1  0  0  0  0
 32  8  1  0  0  0  0
 33 11  1  0  0  0  0
 34 11  1  0  0  0  0
 35 16  1  0  0  0  0
 38 21  1  0  0  0  0
 39 22  1  0  0  0  0
 40 24  1  0  0  0  0
 41 24  1  0  0  0  0
 46 26  1  0  0  0  0
 47 27  1  0  0  0  0
 51 28  1  0  0  0  0
M  END
>  <Pose>
1

>  <Score>
-6.27

$$$$
