
 OpenBabel03222201593D

 49 52  0  0  1  0  0  0  0  0999 V2000
  -21.0800    4.8310  -36.6790 Cl  0  0  0  0  0  0  0  0  0  0  0  0
  -21.2700    3.0930  -36.5710 C   0  0  0  0  0  0  0  0  0  0  0  0
  -20.6490    2.2410  -37.4730 C   0  0  0  0  0  0  0  0  0  0  0  0
  -20.8150    0.8840  -37.3660 C   0  0  0  0  0  0  0  0  0  0  0  0
  -21.6010    0.2930  -36.3660 C   0  0  0  0  0  0  0  0  0  0  0  0
  -22.2030    1.1540  -35.4900 C   0  0  0  0  0  0  0  0  0  0  0  0
  -22.0430    2.5300  -35.5860 C   0  0  0  0  0  0  0  0  0  0  0  0
  -21.7450   -1.1090  -36.3090 N   0  0  0  0  0  0  0  0  0  0  0  0
  -22.7090   -1.8540  -35.6220 C   0  0  0  0  0  0  0  0  0  0  0  0
  -23.2390   -2.8520  -36.1730 O   0  0  0  0  0  0  0  0  0  0  0  0
  -23.1470   -1.4960  -34.2210 C   0  0  0  0  0  0  0  0  0  0  0  0
  -22.0940   -1.9560  -33.3340 N   0  0  0  0  0  0  0  0  0  0  0  0
  -22.0380   -3.4330  -33.3140 C   0  0  0  0  0  0  0  0  0  0  0  0
  -21.3800   -3.7150  -31.9480 C   0  0  0  0  0  0  0  0  0  0  0  0
  -20.4160   -2.6130  -31.8120 N   0  0  0  0  0  0  0  0  0  0  0  0
  -19.7420   -2.2510  -33.0190 C   0  0  0  0  0  0  0  0  0  0  0  0
  -20.7860   -1.5340  -33.8900 C   0  0  0  0  0  0  0  0  0  0  0  0
  -20.2510   -2.0130  -30.5560 C   0  0  2  0  0  0  0  0  0  0  0  0
  -20.2750   -0.6500  -30.4330 N   0  0  0  0  0  0  0  0  0  0  0  0
  -20.1120   -0.0060  -29.2780 C   0  0  0  0  0  0  0  0  0  0  0  0
  -19.9110   -0.7060  -28.1570 N   0  0  0  0  0  0  0  0  0  0  0  0
  -19.8690   -2.0350  -28.1480 C   0  0  0  0  0  0  0  0  0  0  0  0
  -19.6820   -2.9620  -27.1880 N   0  0  0  0  0  0  0  0  0  0  0  0
  -19.7380   -4.1280  -27.7790 N   0  0  0  0  0  0  0  0  0  0  0  0
  -19.9510   -3.9820  -29.0780 N   0  0  0  0  0  0  0  0  0  0  0  0
  -20.0400   -2.6980  -29.3670 C   0  0  0  0  0  0  0  0  0  0  0  0
  -19.4590   -2.7620  -25.7680 C   0  0  0  0  0  0  0  0  0  0  0  0
  -18.4220   -1.6880  -25.5200 C   0  0  0  0  0  0  0  0  0  0  0  0
  -20.0430    2.6930  -38.2420 H   0  0  0  0  0  0  0  0  0  0  0  0
  -20.3250    0.2380  -38.0760 H   0  0  0  0  0  0  0  0  0  0  0  0
  -22.8340    0.8160  -34.6890 H   0  0  0  0  0  0  0  0  0  0  0  0
  -22.5500    3.1660  -34.8560 H   0  0  0  0  0  0  0  0  0  0  0  0
  -21.0080   -1.6710  -36.8380 H   0  0  0  0  0  0  0  0  0  0  0  0
  -23.3230   -0.4190  -34.1980 H   0  0  0  0  0  0  0  0  0  0  0  0
  -24.0990   -2.0470  -34.0840 H   0  0  0  0  0  0  0  0  0  0  0  0
  -21.3560   -3.8370  -34.0710 H   0  0  0  0  0  0  0  0  0  0  0  0
  -23.0170   -3.8790  -33.4190 H   0  0  0  0  0  0  0  0  0  0  0  0
  -22.2060   -3.6410  -31.2200 H   0  0  0  0  0  0  0  0  0  0  0  0
  -20.8940   -4.6870  -31.9290 H   0  0  0  0  0  0  0  0  0  0  0  0
  -19.3810   -3.1630  -33.5630 H   0  0  0  0  0  0  0  0  0  0  0  0
  -18.9220   -1.5400  -32.8820 H   0  0  0  0  0  0  0  0  0  0  0  0
  -20.6490   -0.4640  -33.8600 H   0  0  0  0  0  0  0  0  0  0  0  0
  -20.6640   -1.8860  -34.9380 H   0  0  0  0  0  0  0  0  0  0  0  0
  -20.1460    1.0940  -29.2680 H   0  0  0  0  0  0  0  0  0  0  0  0
  -20.4220   -2.4670  -25.3040 H   0  0  0  0  0  0  0  0  0  0  0  0
  -19.1190   -3.6780  -25.2470 H   0  0  0  0  0  0  0  0  0  0  0  0
  -18.9650   -0.7180  -25.4810 H   0  0  0  0  0  0  0  0  0  0  0  0
  -17.9210   -1.9290  -24.5630 H   0  0  0  0  0  0  0  0  0  0  0  0
  -17.6390   -1.6970  -26.3170 H   0  0  0  0  0  0  0  0  0  0  0  0
  1  2  1  0  0  0  0
  2  7  1  0  0  0  0
  3  4  1  0  0  0  0
  3  2  2  0  0  0  0
  4  5  2  0  0  0  0
  5  8  1  0  0  0  0
  5  6  1  0  0  0  0
  6 31  1  0  0  0  0
  7  6  2  0  0  0  0
  7 32  1  0  0  0  0
  8  9  1  0  0  0  0
  9 11  1  0  0  0  0
 10  9  2  0  0  0  0
 11 34  1  0  0  0  0
 11 35  1  0  0  0  0
 11 12  1  0  0  0  0
 12 13  1  0  0  0  0
 13 14  1  0  0  0  0
 14 39  1  0  0  0  0
 14 15  1  0  0  0  0
 14 38  1  0  0  0  0
 16 41  1  0  0  0  0
 16 15  1  0  0  0  0
 17 42  1  0  0  0  0
 17 12  1  0  0  0  0
 17 16  1  0  0  0  0
 18 15  1  6  0  0  0
 18 19  1  0  0  0  0
 18 26  1  0  0  0  0
 19 20  2  0  0  0  0
 20 44  1  0  0  0  0
 20 21  1  0  0  0  0
 21 22  1  0  0  0  0
 22 23  1  0  0  0  0
 23 27  1  0  0  0  0
 24 23  1  0  0  0  0
 25 24  2  0  0  0  0
 26 25  1  0  0  0  0
 26 22  2  0  0  0  0
 27 28  1  0  0  0  0
 27 45  1  0  0  0  0
 27 46  1  0  0  0  0
 28 47  1  0  0  0  0
 28 48  1  0  0  0  0
 29  3  1  0  0  0  0
 30  4  1  0  0  0  0
 33  8  1  0  0  0  0
 36 13  1  0  0  0  0
 37 13  1  0  0  0  0
 40 16  1  0  0  0  0
 43 17  1  0  0  0  0
 49 28  1  0  0  0  0
M  END
>  <Pose>
1

>  <Score>
-6.44

$$$$
