
 OpenBabel03222201593D

 46 49  0  0  0  0  0  0  0  0999 V2000
  -19.4440   -4.4090  -26.2930 Cl  0  0  0  0  0  0  0  0  0  0  0  0
  -19.9680   -4.0410  -27.9250 C   0  0  0  0  0  0  0  0  0  0  0  0
  -19.9630   -2.7630  -28.4430 C   0  0  0  0  0  0  0  0  0  0  0  0
  -20.3730   -2.4690  -29.7230 C   0  0  0  0  0  0  0  0  0  0  0  0
  -20.8140   -3.4820  -30.5430 C   0  0  0  0  0  0  0  0  0  0  0  0
  -20.8270   -4.7710  -30.0400 C   0  0  0  0  0  0  0  0  0  0  0  0
  -20.4130   -5.0510  -28.7540 C   0  0  0  0  0  0  0  0  0  0  0  0
  -20.3510   -1.0850  -30.2410 C   0  0  0  0  0  0  0  0  0  0  0  0
  -19.6250   -0.9630  -31.4840 N   0  0  0  0  0  0  0  0  0  0  0  0
  -18.2300   -0.6850  -31.6730 C   0  0  0  0  0  0  0  0  0  0  0  0
  -17.3920   -0.4960  -30.7300 O   0  0  0  0  0  0  0  0  0  0  0  0
  -17.9460   -0.6570  -33.0690 N   0  0  0  0  0  0  0  0  0  0  0  0
  -19.2150   -0.4160  -33.7190 C   0  0  0  0  0  0  0  0  0  0  0  0
  -19.4950    1.0710  -33.6030 C   0  0  0  0  0  0  0  0  0  0  0  0
  -20.9850    1.2430  -33.8770 C   0  0  0  0  0  0  0  0  0  0  0  0
  -21.3560    0.5170  -35.0770 N   0  0  0  0  0  0  0  0  0  0  0  0
  -20.3360   -0.1040  -35.8790 C   0  0  0  0  0  0  0  0  0  0  0  0
  -19.2920   -0.8550  -35.1180 C   0  0  0  0  0  0  0  0  0  0  0  0
  -22.7210    0.4310  -35.4550 C   0  0  0  0  0  0  0  0  0  0  0  0
  -23.5650    1.2320  -34.9400 O   0  0  0  0  0  0  0  0  0  0  0  0
  -23.2290   -0.5360  -36.4120 C   0  0  0  0  0  0  0  0  0  0  0  0
  -22.8330   -1.8240  -36.4250 N   0  0  0  0  0  0  0  0  0  0  0  0
  -23.3440   -2.6660  -37.3400 C   0  0  0  0  0  0  0  0  0  0  0  0
  -24.2690   -2.2630  -38.2800 C   0  0  0  0  0  0  0  0  0  0  0  0
  -24.6650   -0.9820  -38.2710 N   0  0  0  0  0  0  0  0  0  0  0  0
  -24.1510   -0.1260  -37.3470 C   0  0  0  0  0  0  0  0  0  0  0  0
  -20.1570   -1.0990  -32.7990 C   0  0  0  0  0  0  0  0  0  0  0  0
  -21.2360   -1.7030  -33.0490 O   0  0  0  0  0  0  0  0  0  0  0  0
  -19.6110   -1.9810  -27.7810 H   0  0  0  0  0  0  0  0  0  0  0  0
  -21.1530   -3.3160  -31.5700 H   0  0  0  0  0  0  0  0  0  0  0  0
  -21.1790   -5.5690  -30.6990 H   0  0  0  0  0  0  0  0  0  0  0  0
  -20.4230   -6.0610  -28.3600 H   0  0  0  0  0  0  0  0  0  0  0  0
  -21.3910   -0.7330  -30.3070 H   0  0  0  0  0  0  0  0  0  0  0  0
  -19.8450   -0.4020  -29.5010 H   0  0  0  0  0  0  0  0  0  0  0  0
  -17.0240   -0.7830  -33.5280 H   0  0  0  0  0  0  0  0  0  0  0  0
  -19.2630    1.3480  -32.5540 H   0  0  0  0  0  0  0  0  0  0  0  0
  -18.8830    1.6440  -34.3250 H   0  0  0  0  0  0  0  0  0  0  0  0
  -21.2540    2.2880  -33.9960 H   0  0  0  0  0  0  0  0  0  0  0  0
  -21.5030    0.8400  -32.9840 H   0  0  0  0  0  0  0  0  0  0  0  0
  -19.9110    0.6970  -36.5230 H   0  0  0  0  0  0  0  0  0  0  0  0
  -20.7920   -0.8430  -36.5990 H   0  0  0  0  0  0  0  0  0  0  0  0
  -18.3050   -0.5900  -35.6060 H   0  0  0  0  0  0  0  0  0  0  0  0
  -19.3600   -1.9550  -35.2590 H   0  0  0  0  0  0  0  0  0  0  0  0
  -23.0300   -3.7130  -37.3590 H   0  0  0  0  0  0  0  0  0  0  0  0
  -24.6430   -2.9850  -38.9900 H   0  0  0  0  0  0  0  0  0  0  0  0
  -24.5030    0.9160  -37.3740 H   0  0  0  0  0  0  0  0  0  0  0  0
  2  1  1  0  0  0  0
  3  2  1  0  0  0  0
  3 29  1  0  0  0  0
  4  3  2  0  0  0  0
  5  6  2  0  0  0  0
  5  4  1  0  0  0  0
  6  7  1  0  0  0  0
  7 32  1  0  0  0  0
  7  2  2  0  0  0  0
  8  4  1  0  0  0  0
  8 34  1  0  0  0  0
  9  8  1  0  0  0  0
 10  9  1  0  0  0  0
 10 11  2  0  0  0  0
 12 10  1  0  0  0  0
 13 14  1  0  0  0  0
 13 12  1  0  0  0  0
 13 27  1  0  0  0  0
 14 36  1  0  0  0  0
 15 14  1  0  0  0  0
 15 39  1  0  0  0  0
 16 15  1  0  0  0  0
 17 18  1  0  0  0  0
 17 16  1  0  0  0  0
 18 13  1  0  0  0  0
 19 16  1  0  0  0  0
 19 20  2  0  0  0  0
 21 19  1  0  0  0  0
 22 21  1  0  0  0  0
 23 22  2  0  0  0  0
 24 25  2  0  0  0  0
 24 23  1  0  0  0  0
 25 26  1  0  0  0  0
 26 21  2  0  0  0  0
 27  9  1  0  0  0  0
 28 27  2  0  0  0  0
 30  5  1  0  0  0  0
 31  6  1  0  0  0  0
 33  8  1  0  0  0  0
 35 12  1  0  0  0  0
 37 14  1  0  0  0  0
 38 15  1  0  0  0  0
 40 17  1  0  0  0  0
 41 17  1  0  0  0  0
 42 18  1  0  0  0  0
 43 18  1  0  0  0  0
 44 23  1  0  0  0  0
 45 24  1  0  0  0  0
 46 26  1  0  0  0  0
M  END
>  <Pose>
1

>  <Score>
-6.47

$$$$
