
 OpenBabel03222201593D

 41 44  0  0  0  0  0  0  0  0999 V2000
  -21.0720   -4.5360  -31.1280 Cl  0  0  0  0  0  0  0  0  0  0  0  0
  -20.3690   -3.4960  -29.8840 C   0  0  0  0  0  0  0  0  0  0  0  0
  -19.3910   -2.5760  -30.2010 C   0  0  0  0  0  0  0  0  0  0  0  0
  -18.8780   -1.7900  -29.1850 C   0  0  0  0  0  0  0  0  0  0  0  0
  -19.3040   -1.8890  -27.8770 C   0  0  0  0  0  0  0  0  0  0  0  0
  -20.2850   -2.8200  -27.6000 C   0  0  0  0  0  0  0  0  0  0  0  0
  -20.8290   -3.6330  -28.5910 C   0  0  0  0  0  0  0  0  0  0  0  0
  -18.7660   -1.0740  -26.8580 N   0  0  0  0  0  0  0  0  0  0  0  0
  -18.4970    0.2510  -26.9330 C   0  0  0  0  0  0  0  0  0  0  0  0
  -18.7000    0.9520  -27.9590 O   0  0  0  0  0  0  0  0  0  0  0  0
  -17.9740    0.7190  -25.7400 C   0  0  0  0  0  0  0  0  0  0  0  0
  -17.9220   -0.3260  -24.9300 C   0  0  0  0  0  0  0  0  0  0  0  0
  -17.4120    0.1340  -23.7680 N   0  0  0  0  0  0  0  0  0  0  0  0
  -17.1640    1.4440  -23.8930 N   0  0  0  0  0  0  0  0  0  0  0  0
  -17.5100    1.8160  -25.1150 N   0  0  0  0  0  0  0  0  0  0  0  0
  -17.4130    3.1460  -25.6780 C   0  0  0  0  0  0  0  0  0  0  0  0
  -18.2240    4.1490  -24.9430 C   0  0  0  0  0  0  0  0  0  0  0  0
  -19.2350    4.8910  -25.5100 C   0  0  0  0  0  0  0  0  0  0  0  0
  -19.9870    5.8220  -24.8220 C   0  0  0  0  0  0  0  0  0  0  0  0
  -19.7230    6.0320  -23.4910 C   0  0  0  0  0  0  0  0  0  0  0  0
  -18.7220    5.3120  -22.8830 C   0  0  0  0  0  0  0  0  0  0  0  0
  -17.9820    4.3840  -23.5970 C   0  0  0  0  0  0  0  0  0  0  0  0
  -20.9940    6.5250  -25.4970 O   0  0  0  0  0  0  0  0  0  0  0  0
  -21.3600    7.8360  -25.1170 C   0  0  0  0  0  0  0  0  0  0  0  0
  -18.4060   -1.4240  -25.6110 C   0  0  0  0  0  0  0  0  0  0  0  0
  -18.4860   -2.5680  -25.1130 O   0  0  0  0  0  0  0  0  0  0  0  0
  -19.0600   -2.5030  -31.2240 H   0  0  0  0  0  0  0  0  0  0  0  0
  -18.1150   -1.0670  -29.4140 H   0  0  0  0  0  0  0  0  0  0  0  0
  -20.6050   -2.8820  -26.5670 H   0  0  0  0  0  0  0  0  0  0  0  0
  -21.6030   -4.3550  -28.3190 H   0  0  0  0  0  0  0  0  0  0  0  0
  -17.2420   -0.4410  -22.9210 H   0  0  0  0  0  0  0  0  0  0  0  0
  -16.7690    2.0960  -23.1830 H   0  0  0  0  0  0  0  0  0  0  0  0
  -16.3560    3.4770  -25.6960 H   0  0  0  0  0  0  0  0  0  0  0  0
  -17.8320    3.0870  -26.7250 H   0  0  0  0  0  0  0  0  0  0  0  0
  -19.4640    4.7410  -26.5790 H   0  0  0  0  0  0  0  0  0  0  0  0
  -20.3070    6.7670  -22.9190 H   0  0  0  0  0  0  0  0  0  0  0  0
  -18.5180    5.4800  -21.8350 H   0  0  0  0  0  0  0  0  0  0  0  0
  -17.1970    3.8220  -23.1110 H   0  0  0  0  0  0  0  0  0  0  0  0
  -21.9660    7.8460  -24.1820 H   0  0  0  0  0  0  0  0  0  0  0  0
  -21.9830    8.2880  -25.9060 H   0  0  0  0  0  0  0  0  0  0  0  0
  -20.4430    8.4420  -24.9100 H   0  0  0  0  0  0  0  0  0  0  0  0
  1  2  1  0  0  0  0
  2  7  1  0  0  0  0
  3  2  2  0  0  0  0
  3  4  1  0  0  0  0
  4  5  2  0  0  0  0
  5  6  1  0  0  0  0
  5  8  1  0  0  0  0
  6 29  1  0  0  0  0
  7 30  1  0  0  0  0
  7  6  2  0  0  0  0
  8 25  1  0  0  0  0
  9  8  1  0  0  0  0
  9 11  1  0  0  0  0
 10  9  2  0  0  0  0
 11 15  1  0  0  0  0
 11 12  2  0  0  0  0
 12 13  1  0  0  0  0
 13 31  1  0  0  0  0
 14 13  1  0  0  0  0
 14 32  1  0  0  0  0
 15 14  1  0  0  0  0
 16 15  1  0  0  0  0
 16 17  1  0  0  0  0
 17 22  1  0  0  0  0
 18 17  2  0  0  0  0
 18 19  1  0  0  0  0
 19 20  2  0  0  0  0
 20 36  1  0  0  0  0
 20 21  1  0  0  0  0
 21 37  1  0  0  0  0
 22 38  1  0  0  0  0
 22 21  2  0  0  0  0
 23 24  1  0  0  0  0
 23 19  1  0  0  0  0
 24 41  1  0  0  0  0
 24 39  1  0  0  0  0
 25 26  2  0  0  0  0
 25 12  1  0  0  0  0
 27  3  1  0  0  0  0
 28  4  1  0  0  0  0
 33 16  1  0  0  0  0
 34 16  1  0  0  0  0
 35 18  1  0  0  0  0
 40 24  1  0  0  0  0
M  END
>  <Pose>
1

>  <Score>
-7.35

$$$$
