
 OpenBabel03222201593D

 56 59  0  0  1  0  0  0  0  0999 V2000
  -21.2890   -4.0780  -31.4940 S   0  0  0  0  0  0  0  0  0  0  0  0
  -22.7570   -3.9120  -31.5210 O   0  0  0  0  0  0  0  0  0  0  0  0
  -20.9590   -5.5120  -31.8330 O   0  0  0  0  0  0  0  0  0  0  0  0
  -20.4420   -3.0690  -32.5800 N   0  0  0  0  0  0  0  0  0  0  0  0
  -19.6950   -2.0390  -31.9710 C   0  0  0  0  0  0  0  0  0  0  0  0
  -18.8200   -1.3960  -33.0680 C   0  0  0  0  0  0  0  0  0  0  0  0
  -19.7800   -0.7180  -33.9010 N   0  0  0  0  0  0  0  0  0  0  0  0
  -20.6740   -1.6610  -34.6080 C   0  0  0  0  0  0  0  0  0  0  0  0
  -21.0870   -2.8220  -33.8000 C   0  0  0  0  0  0  0  0  0  0  0  0
  -19.9600    0.6480  -34.1140 C   0  0  0  0  0  0  0  0  0  0  0  0
  -20.5980    1.2420  -33.1230 O   0  0  0  0  0  0  0  0  0  0  0  0
  -19.6080    1.5650  -35.1670 C   0  0  0  0  0  0  0  0  0  0  0  0
  -19.8520    1.1730  -36.5220 N   0  0  0  0  0  0  0  0  0  0  0  0
  -19.0140    0.3220  -37.3060 C   0  0  0  0  0  0  0  0  0  0  0  0
  -17.9190   -0.1800  -36.8780 O   0  0  0  0  0  0  0  0  0  0  0  0
  -19.6120    0.1610  -38.5740 N   0  0  0  0  0  0  0  0  0  0  0  0
  -21.0050    0.5710  -38.4740 C   0  0  1  0  0  0  0  0  0  0  0  0
  -21.5240    1.2710  -39.6810 C   0  0  1  0  0  0  0  0  0  0  0  0
  -23.0070    0.9110  -39.8210 C   0  0  0  0  0  0  0  0  0  0  0  0
  -23.0440   -0.5270  -40.3020 C   0  0  0  0  0  0  0  0  0  0  0  0
  -22.1230   -1.3600  -39.4450 C   0  0  0  0  0  0  0  0  0  0  0  0
  -21.8020   -0.6670  -38.1290 C   0  0  0  0  0  0  0  0  0  0  0  0
  -21.4660    2.7790  -39.5930 C   0  0  0  0  0  0  0  0  0  0  0  0
  -20.9740    1.5320  -37.3320 C   0  0  0  0  0  0  0  0  0  0  0  0
  -21.7700    2.4670  -37.1190 O   0  0  0  0  0  0  0  0  0  0  0  0
  -20.6740   -3.7340  -29.8680 C   0  0  0  0  0  0  0  0  0  0  0  0
  -20.4650   -4.7750  -28.5370 S   0  0  0  0  0  0  0  0  0  0  0  0
  -19.8440   -3.6590  -27.4110 C   0  0  0  0  0  0  0  0  0  0  0  0
  -19.8160   -2.4850  -28.1170 C   0  0  0  0  0  0  0  0  0  0  0  0
  -20.2480   -2.5300  -29.3890 C   0  0  0  0  0  0  0  0  0  0  0  0
  -19.3530   -3.9460  -25.7340 Cl  0  0  0  0  0  0  0  0  0  0  0  0
  -20.3370   -1.2590  -31.5110 H   0  0  0  0  0  0  0  0  0  0  0  0
  -19.0690   -2.4520  -31.1660 H   0  0  0  0  0  0  0  0  0  0  0  0
  -18.0140   -0.8280  -32.6530 H   0  0  0  0  0  0  0  0  0  0  0  0
  -18.4480   -2.3090  -33.6410 H   0  0  0  0  0  0  0  0  0  0  0  0
  -20.0800   -2.0060  -35.4870 H   0  0  0  0  0  0  0  0  0  0  0  0
  -21.5430   -1.1190  -35.0290 H   0  0  0  0  0  0  0  0  0  0  0  0
  -22.1970   -2.7290  -33.5960 H   0  0  0  0  0  0  0  0  0  0  0  0
  -21.0250   -3.7620  -34.4250 H   0  0  0  0  0  0  0  0  0  0  0  0
  -20.0760    2.6010  -34.9970 H   0  0  0  0  0  0  0  0  0  0  0  0
  -18.4990    1.8490  -35.1070 H   0  0  0  0  0  0  0  0  0  0  0  0
  -19.1630   -0.1840  -39.4360 H   0  0  0  0  0  0  0  0  0  0  0  0
  -20.9940    0.9300  -40.6000 H   0  0  0  0  0  0  0  0  0  0  0  0
  -23.4490    0.9650  -38.8200 H   0  0  0  0  0  0  0  0  0  0  0  0
  -23.5230    1.5860  -40.5290 H   0  0  0  0  0  0  0  0  0  0  0  0
  -22.6990   -0.5060  -41.3730 H   0  0  0  0  0  0  0  0  0  0  0  0
  -24.0560   -0.9540  -40.2840 H   0  0  0  0  0  0  0  0  0  0  0  0
  -21.1760   -1.5160  -40.0050 H   0  0  0  0  0  0  0  0  0  0  0  0
  -22.5650   -2.3710  -39.2720 H   0  0  0  0  0  0  0  0  0  0  0  0
  -21.1330   -1.3880  -37.5760 H   0  0  0  0  0  0  0  0  0  0  0  0
  -22.7140   -0.4600  -37.5600 H   0  0  0  0  0  0  0  0  0  0  0  0
  -20.6150    3.1630  -39.0230 H   0  0  0  0  0  0  0  0  0  0  0  0
  -21.3830    3.1790  -40.6460 H   0  0  0  0  0  0  0  0  0  0  0  0
  -22.4390    3.2160  -39.2250 H   0  0  0  0  0  0  0  0  0  0  0  0
  -19.4420   -1.5640  -27.6060 H   0  0  0  0  0  0  0  0  0  0  0  0
  -20.2630   -1.6320  -30.0400 H   0  0  0  0  0  0  0  0  0  0  0  0
  1 26  1  0  0  0  0
  2  1  2  0  0  0  0
  3  1  2  0  0  0  0
  4  5  1  0  0  0  0
  4  1  1  0  0  0  0
  5 32  1  0  0  0  0
  5 33  1  0  0  0  0
  6 34  1  0  0  0  0
  6  5  1  0  0  0  0
  7  6  1  0  0  0  0
  8  7  1  0  0  0  0
  8  9  1  0  0  0  0
  9 38  1  0  0  0  0
  9  4  1  0  0  0  0
 10  7  1  0  0  0  0
 10 11  2  0  0  0  0
 12 41  1  0  0  0  0
 12 40  1  0  0  0  0
 12 10  1  0  0  0  0
 13 12  1  0  0  0  0
 14 15  2  0  0  0  0
 14 13  1  0  0  0  0
 16 17  1  0  0  0  0
 16 14  1  0  0  0  0
 17 22  1  0  0  0  0
 17 24  1  1  0  0  0
 18 43  1  6  0  0  0
 18 23  1  0  0  0  0
 18 17  1  0  0  0  0
 19 18  1  0  0  0  0
 19 44  1  0  0  0  0
 20 47  1  0  0  0  0
 20 19  1  0  0  0  0
 20 21  1  0  0  0  0
 21 49  1  0  0  0  0
 21 22  1  0  0  0  0
 22 50  1  0  0  0  0
 22 51  1  0  0  0  0
 23 54  1  0  0  0  0
 23 52  1  0  0  0  0
 24 25  2  0  0  0  0
 24 13  1  0  0  0  0
 26 30  2  0  0  0  0
 26 27  1  0  0  0  0
 27 28  1  0  0  0  0
 28 31  1  0  0  0  0
 29 55  1  0  0  0  0
 29 28  2  0  0  0  0
 30 29  1  0  0  0  0
 35  6  1  0  0  0  0
 36  8  1  0  0  0  0
 37  8  1  0  0  0  0
 39  9  1  0  0  0  0
 42 16  1  0  0  0  0
 45 19  1  0  0  0  0
 46 20  1  0  0  0  0
 48 21  1  0  0  0  0
 53 23  1  0  0  0  0
 56 30  1  0  0  0  0
M  END
>  <Pose>
1

>  <Score>
-7.70

$$$$
