
 OpenBabel03222201593D

 51 54  0  0  1  0  0  0  0  0999 V2000
  -17.0240    2.5750  -26.4090 Cl  0  0  0  0  0  0  0  0  0  0  0  0
  -17.6830    1.0030  -26.7250 C   0  0  0  0  0  0  0  0  0  0  0  0
  -17.8770    0.1470  -25.7190 N   0  0  0  0  0  4  0  0  0  0  0  0
  -18.3810   -1.0760  -25.9070 C   0  0  0  0  0  0  0  0  0  0  0  0
  -18.6630   -2.0720  -25.0760 N   0  0  0  0  0  0  0  0  0  0  0  0
  -19.1570   -3.0490  -25.8460 C   0  0  0  0  0  0  0  0  0  0  0  0
  -19.1980   -2.6970  -27.1380 N   0  0  0  0  0  0  0  0  0  0  0  0
  -18.7110   -1.4480  -27.2180 C   0  0  0  0  0  0  0  0  0  0  0  0
  -18.5170   -0.5790  -28.2580 C   0  0  0  0  0  0  0  0  0  0  0  0
  -17.9960    0.6510  -27.9750 N   0  0  0  0  0  0  0  0  0  0  0  0
  -18.8270   -0.9590  -29.5800 N   0  0  0  0  0  0  0  0  0  0  0  0
  -20.2220   -1.0570  -29.9450 C   0  0  0  0  0  0  0  0  0  0  0  0
  -20.4400   -1.5880  -31.3360 C   0  0  0  0  0  0  0  0  0  0  0  0
  -19.5040   -0.9140  -32.2780 C   0  0  2  0  0  0  0  0  0  0  0  0
  -18.0980   -1.2580  -31.9270 C   0  0  0  0  0  0  0  0  0  0  0  0
  -17.7510   -1.2250  -30.4840 C   0  0  0  0  0  0  0  0  0  0  0  0
  -19.7730    0.5190  -32.4170 C   0  0  0  0  0  0  0  0  0  0  0  0
  -19.3080    1.3010  -31.5530 O   0  0  0  0  0  0  0  0  0  0  0  0
  -20.5310    1.0630  -33.4740 N   0  0  0  0  0  0  0  0  0  0  0  0
  -21.9150    0.7310  -33.7250 C   0  0  0  0  0  0  0  0  0  0  0  0
  -22.0970   -0.5100  -34.5510 C   0  0  0  0  0  0  0  0  0  0  0  0
  -23.2180   -0.3700  -35.4630 N   0  0  0  0  0  0  0  0  0  0  0  0
  -23.6450   -1.6100  -36.0180 C   0  0  0  0  0  0  0  0  0  0  0  0
  -23.2820   -1.6860  -37.4870 C   0  0  0  0  0  0  0  0  0  0  0  0
  -23.9770   -0.7000  -38.1420 O   0  0  0  0  0  0  0  0  0  0  0  0
  -23.8270    0.5720  -37.6550 C   0  0  0  0  0  0  0  0  0  0  0  0
  -23.0680    0.7020  -36.3800 C   0  0  0  0  0  0  0  0  0  0  0  0
  -19.4860   -4.0060  -25.4760 H   0  0  0  0  0  0  0  0  0  0  0  0
  -19.5380   -3.2510  -27.9590 H   0  0  0  0  0  0  0  0  0  0  0  0
  -20.8080   -0.1490  -29.7470 H   0  0  0  0  0  0  0  0  0  0  0  0
  -20.6930   -1.8350  -29.2630 H   0  0  0  0  0  0  0  0  0  0  0  0
  -20.2840   -2.6780  -31.3740 H   0  0  0  0  0  0  0  0  0  0  0  0
  -21.4920   -1.3680  -31.6060 H   0  0  0  0  0  0  0  0  0  0  0  0
  -19.7040   -1.3640  -33.2950 H   0  0  0  0  0  0  0  0  0  0  0  0
  -17.9230   -2.3160  -32.2850 H   0  0  0  0  0  0  0  0  0  0  0  0
  -17.4210   -0.6410  -32.5560 H   0  0  0  0  0  0  0  0  0  0  0  0
  -16.9380   -0.4540  -30.3550 H   0  0  0  0  0  0  0  0  0  0  0  0
  -17.2620   -2.1800  -30.1320 H   0  0  0  0  0  0  0  0  0  0  0  0
  -20.0620    1.7580  -34.1250 H   0  0  0  0  0  0  0  0  0  0  0  0
  -22.4980    0.7170  -32.8080 H   0  0  0  0  0  0  0  0  0  0  0  0
  -22.3250    1.5810  -34.3420 H   0  0  0  0  0  0  0  0  0  0  0  0
  -21.1910   -0.6080  -35.1870 H   0  0  0  0  0  0  0  0  0  0  0  0
  -22.2040   -1.4230  -33.9520 H   0  0  0  0  0  0  0  0  0  0  0  0
  -24.7400   -1.7910  -35.9140 H   0  0  0  0  0  0  0  0  0  0  0  0
  -23.1430   -2.4360  -35.4730 H   0  0  0  0  0  0  0  0  0  0  0  0
  -22.1850   -1.5950  -37.6050 H   0  0  0  0  0  0  0  0  0  0  0  0
  -23.6330   -2.6650  -37.8680 H   0  0  0  0  0  0  0  0  0  0  0  0
  -23.4290    1.2690  -38.4470 H   0  0  0  0  0  0  0  0  0  0  0  0
  -24.8670    0.9670  -37.4580 H   0  0  0  0  0  0  0  0  0  0  0  0
  -23.2960    1.6490  -35.8620 H   0  0  0  0  0  0  0  0  0  0  0  0
  -21.9740    0.7650  -36.6540 H   0  0  0  0  0  0  0  0  0  0  0  0
  2  1  1  0  0  0  0
  2  3  2  0  0  0  0
  4  3  2  0  0  0  0
  4  5  1  0  0  0  0
  6 28  1  0  0  0  0
  6  5  2  0  0  0  0
  7  6  1  0  0  0  0
  8  7  1  0  0  0  0
  8  4  1  0  0  0  0
  9 10  1  0  0  0  0
  9  8  2  0  0  0  0
 10  2  1  0  0  0  0
 11  9  1  0  0  0  0
 12 30  1  0  0  0  0
 12 11  1  0  0  0  0
 12 31  1  0  0  0  0
 13 12  1  0  0  0  0
 14 34  1  6  0  0  0
 14 15  1  0  0  0  0
 14 13  1  0  0  0  0
 15 16  1  0  0  0  0
 16 37  1  0  0  0  0
 16 38  1  0  0  0  0
 16 11  1  0  0  0  0
 17 14  1  0  0  0  0
 17 18  2  0  0  0  0
 19 17  1  0  0  0  0
 20 19  1  0  0  0  0
 20 40  1  0  0  0  0
 21 43  1  0  0  0  0
 21 20  1  0  0  0  0
 22 21  1  0  0  0  0
 23 44  1  0  0  0  0
 23 45  1  0  0  0  0
 23 22  1  0  0  0  0
 24 23  1  0  0  0  0
 25 26  1  0  0  0  0
 25 24  1  0  0  0  0
 26 49  1  0  0  0  0
 26 27  1  0  0  0  0
 27 50  1  0  0  0  0
 27 22  1  0  0  0  0
 29  7  1  0  0  0  0
 32 13  1  0  0  0  0
 33 13  1  0  0  0  0
 35 15  1  0  0  0  0
 36 15  1  0  0  0  0
 39 19  1  0  0  0  0
 41 20  1  0  0  0  0
 42 21  1  0  0  0  0
 46 24  1  0  0  0  0
 47 24  1  0  0  0  0
 48 26  1  0  0  0  0
 51 27  1  0  0  0  0
M  END
>  <Pose>
1

>  <Score>
-6.34

$$$$
