
 OpenBabel03222201593D

 55 58  0  0  1  0  0  0  0  0999 V2000
  -20.4880   -5.4610  -27.7390 Cl  0  0  0  0  0  0  0  0  0  0  0  0
  -19.9010   -3.7860  -27.5730 C   0  0  0  0  0  0  0  0  0  0  0  0
  -19.4290   -3.3170  -26.3700 C   0  0  0  0  0  0  0  0  0  0  0  0
  -18.9620   -2.0090  -26.2450 C   0  0  0  0  0  0  0  0  0  0  0  0
  -18.9500   -1.1170  -27.3260 C   0  0  0  0  0  0  0  0  0  0  0  0
  -19.4290   -1.6210  -28.5120 C   0  0  0  0  0  0  0  0  0  0  0  0
  -19.8940   -2.9150  -28.6500 C   0  0  0  0  0  0  0  0  0  0  0  0
  -18.4080    0.2100  -27.0940 C   0  0  2  0  0  0  0  0  0  0  0  0
  -18.3600    0.5110  -25.5980 C   0  0  0  0  0  0  0  0  0  0  0  0
  -17.5040    1.7570  -25.5080 C   0  0  0  0  0  0  0  0  0  0  0  0
  -18.1840    2.8650  -26.0790 N   0  0  0  0  0  0  0  0  0  0  0  0
  -18.5980    2.7090  -27.4980 C   0  0  0  0  0  0  0  0  0  0  0  0
  -19.0230    1.3250  -27.8540 C   0  0  0  0  0  0  0  0  0  0  0  0
  -18.5040    4.0540  -25.4370 C   0  0  0  0  0  0  0  0  0  0  0  0
  -19.1800    3.9380  -24.3230 O   0  0  0  0  0  0  0  0  0  0  0  0
  -18.2250    5.4540  -25.7900 C   0  0  0  0  0  0  0  0  0  0  0  0
  -19.1710    6.1370  -26.5580 N   0  0  0  0  0  0  0  0  0  0  0  0
  -18.9930    7.4440  -27.1080 C   0  0  0  0  0  0  0  0  0  0  0  0
  -18.1370    8.1560  -26.5200 O   0  0  0  0  0  0  0  0  0  0  0  0
  -19.7470    7.8790  -28.2520 C   0  0  0  0  0  0  0  0  0  0  0  0
  -21.0060    7.7850  -28.5270 C   0  0  0  0  0  0  0  0  0  0  0  0
  -21.9540    7.1600  -27.6590 N   0  0  0  0  0  0  0  0  0  0  0  0
  -23.3280    7.0910  -27.9740 N   0  0  0  0  0  0  0  0  0  0  0  0
  -23.8260    7.6420  -29.1710 C   0  0  0  0  0  0  0  0  0  0  0  0
  -25.0660    7.5610  -29.4140 O   0  0  0  0  0  0  0  0  0  0  0  0
  -22.8990    8.2860  -30.0810 C   0  0  0  0  0  0  0  0  0  0  0  0
  -21.5580    8.3580  -29.7800 C   0  0  0  0  0  0  0  0  0  0  0  0
  -20.7530    9.0040  -30.6750 C   0  0  0  0  0  0  0  0  0  0  0  0
  -21.2380    9.5820  -31.8540 C   0  0  0  0  0  0  0  0  0  0  0  0
  -22.5790    9.4840  -32.1070 C   0  0  0  0  0  0  0  0  0  0  0  0
  -23.4400    8.8340  -31.2260 C   0  0  0  0  0  0  0  0  0  0  0  0
  -17.0260    0.1740  -27.4630 O   0  0  0  0  0  0  0  0  0  0  0  0
  -19.4300   -4.0010  -25.5210 H   0  0  0  0  0  0  0  0  0  0  0  0
  -18.6100   -1.7060  -25.2780 H   0  0  0  0  0  0  0  0  0  0  0  0
  -19.4210   -0.9410  -29.3570 H   0  0  0  0  0  0  0  0  0  0  0  0
  -20.2640   -3.2750  -29.6130 H   0  0  0  0  0  0  0  0  0  0  0  0
  -19.3470    0.6260  -25.1590 H   0  0  0  0  0  0  0  0  0  0  0  0
  -17.8640   -0.3220  -25.0930 H   0  0  0  0  0  0  0  0  0  0  0  0
  -16.6530    1.5420  -26.2750 H   0  0  0  0  0  0  0  0  0  0  0  0
  -17.0070    1.8290  -24.5670 H   0  0  0  0  0  0  0  0  0  0  0  0
  -19.3740    3.4770  -27.7590 H   0  0  0  0  0  0  0  0  0  0  0  0
  -17.6980    2.9800  -28.0880 H   0  0  0  0  0  0  0  0  0  0  0  0
  -20.1400    1.3110  -27.8760 H   0  0  0  0  0  0  0  0  0  0  0  0
  -18.7660    1.1980  -28.9590 H   0  0  0  0  0  0  0  0  0  0  0  0
  -18.0210    5.9690  -24.7870 H   0  0  0  0  0  0  0  0  0  0  0  0
  -17.1890    5.5290  -26.2870 H   0  0  0  0  0  0  0  0  0  0  0  0
  -20.0780    5.6810  -26.8450 H   0  0  0  0  0  0  0  0  0  0  0  0
  -19.1150    8.3820  -29.0240 H   0  0  0  0  0  0  0  0  0  0  0  0
  -21.6520    6.7290  -26.7520 H   0  0  0  0  0  0  0  0  0  0  0  0
  -23.9980    6.6310  -27.3150 H   0  0  0  0  0  0  0  0  0  0  0  0
  -19.7130    9.1020  -30.5120 H   0  0  0  0  0  0  0  0  0  0  0  0
  -20.5490   10.0830  -32.5270 H   0  0  0  0  0  0  0  0  0  0  0  0
  -22.9420    9.9480  -33.0280 H   0  0  0  0  0  0  0  0  0  0  0  0
  -24.4910    8.7890  -31.4810 H   0  0  0  0  0  0  0  0  0  0  0  0
  -16.6580   -0.6600  -27.0790 H   0  0  0  0  0  0  0  0  0  0  0  0
  1  2  1  0  0  0  0
  2  3  1  0  0  0  0
  3  4  2  0  0  0  0
  3 33  1  0  0  0  0
  4 34  1  0  0  0  0
  5  8  1  0  0  0  0
  5  4  1  0  0  0  0
  6  5  2  0  0  0  0
  7  6  1  0  0  0  0
  7  2  2  0  0  0  0
  8 32  1  6  0  0  0
  8  9  1  0  0  0  0
  9 10  1  0  0  0  0
  9 37  1  0  0  0  0
  9 38  1  0  0  0  0
 10 40  1  0  0  0  0
 11 10  1  0  0  0  0
 11 14  1  0  0  0  0
 12 11  1  0  0  0  0
 13 12  1  0  0  0  0
 13  8  1  0  0  0  0
 14 15  2  0  0  0  0
 16 14  1  0  0  0  0
 16 45  1  0  0  0  0
 17 16  1  0  0  0  0
 18 17  1  0  0  0  0
 18 19  2  0  0  0  0
 20 18  1  0  0  0  0
 21 20  2  0  0  0  0
 21 22  1  0  0  0  0
 22 49  1  0  0  0  0
 23 22  1  0  0  0  0
 23 50  1  0  0  0  0
 24 23  1  0  0  0  0
 25 24  2  0  0  0  0
 26 27  1  0  0  0  0
 26 24  1  0  0  0  0
 27 21  1  0  0  0  0
 28 51  1  0  0  0  0
 28 27  2  0  0  0  0
 29 28  1  0  0  0  0
 30 29  2  0  0  0  0
 30 31  1  0  0  0  0
 31 26  2  0  0  0  0
 32 55  1  0  0  0  0
 35  6  1  0  0  0  0
 36  7  1  0  0  0  0
 39 10  1  0  0  0  0
 41 12  1  0  0  0  0
 42 12  1  0  0  0  0
 43 13  1  0  0  0  0
 44 13  1  0  0  0  0
 46 16  1  0  0  0  0
 47 17  1  0  0  0  0
 48 20  1  0  0  0  0
 52 29  1  0  0  0  0
 53 30  1  0  0  0  0
 54 31  1  0  0  0  0
M  END
>  <Pose>
1

>  <Score>
-7.29

$$$$
