
 OpenBabel03222201593D

 39 42  0  0  0  0  0  0  0  0999 V2000
  -20.2650    0.8200  -38.9800 Cl  0  0  0  0  0  0  0  0  0  0  0  0
  -19.8320    0.5230  -37.3050 C   0  0  0  0  0  0  0  0  0  0  0  0
  -18.6830    1.0630  -36.7550 C   0  0  0  0  0  0  0  0  0  0  0  0
  -18.3590    0.8170  -35.4350 C   0  0  0  0  0  0  0  0  0  0  0  0
  -19.1470    0.0400  -34.6190 C   0  0  0  0  0  0  0  0  0  0  0  0
  -20.2940   -0.5020  -35.1620 C   0  0  0  0  0  0  0  0  0  0  0  0
  -20.6290   -0.2630  -36.4850 C   0  0  0  0  0  0  0  0  0  0  0  0
  -18.7950   -0.2130  -33.2280 C   0  0  0  0  0  0  0  0  0  0  0  0
  -17.7320   -0.9130  -32.8070 N   0  0  0  0  0  0  0  0  0  0  0  0
  -17.7050   -0.9510  -31.5080 O   0  0  0  0  0  0  0  0  0  0  0  0
  -18.7350   -0.2880  -31.0420 C   0  0  0  0  0  0  0  0  0  0  0  0
  -19.4280    0.1810  -32.1140 N   0  0  0  0  0  0  0  0  0  0  0  0
  -19.0380   -0.1150  -29.6080 C   0  0  0  0  0  0  0  0  0  0  0  0
  -19.3240   -1.4150  -28.9990 N   0  0  0  0  0  0  0  0  0  0  0  0
  -19.0640   -1.5810  -27.6860 C   0  0  0  0  0  0  0  0  0  0  0  0
  -19.3140   -2.7790  -27.0650 C   0  0  0  0  0  0  0  0  0  0  0  0
  -19.8710   -3.8880  -27.8480 C   0  0  0  0  0  0  0  0  0  0  0  0
  -20.0120   -4.9260  -26.9950 N   0  0  0  0  0  0  0  0  0  0  0  0
  -19.6040   -4.5640  -25.7950 N   0  0  0  0  0  0  0  0  0  0  0  0
  -19.1760   -3.2930  -25.7770 C   0  0  0  0  0  0  0  0  0  0  0  0
  -18.7270   -2.6460  -24.8010 O   0  0  0  0  0  0  0  0  0  0  0  0
  -20.1200   -3.6710  -29.1860 C   0  0  0  0  0  0  0  0  0  0  0  0
  -19.8300   -2.4340  -29.6910 C   0  0  0  0  0  0  0  0  0  0  0  0
  -20.6750   -4.7530  -29.9980 C   0  0  0  0  0  0  0  0  0  0  0  0
  -20.2690   -5.9160  -29.8680 O   0  0  0  0  0  0  0  0  0  0  0  0
  -21.6670   -4.5080  -30.9330 O   0  0  0  0  0  0  0  0  0  0  0  0
  -21.4230   -4.3720  -32.3130 C   0  0  0  0  0  0  0  0  0  0  0  0
  -18.0440    1.6820  -37.3850 H   0  0  0  0  0  0  0  0  0  0  0  0
  -17.4600    1.2420  -35.0080 H   0  0  0  0  0  0  0  0  0  0  0  0
  -20.9200   -1.1170  -34.5230 H   0  0  0  0  0  0  0  0  0  0  0  0
  -21.5240   -0.6830  -36.9150 H   0  0  0  0  0  0  0  0  0  0  0  0
  -18.1390    0.2830  -29.1090 H   0  0  0  0  0  0  0  0  0  0  0  0
  -19.9300    0.5390  -29.4530 H   0  0  0  0  0  0  0  0  0  0  0  0
  -18.6560   -0.7690  -27.1050 H   0  0  0  0  0  0  0  0  0  0  0  0
  -19.6130   -5.1880  -24.9680 H   0  0  0  0  0  0  0  0  0  0  0  0
  -20.0320   -2.2790  -30.7520 H   0  0  0  0  0  0  0  0  0  0  0  0
  -20.3550   -4.3820  -32.5680 H   0  0  0  0  0  0  0  0  0  0  0  0
  -21.9030   -5.2100  -32.8980 H   0  0  0  0  0  0  0  0  0  0  0  0
  -21.9550   -3.4570  -32.6470 H   0  0  0  0  0  0  0  0  0  0  0  0
  1  2  1  0  0  0  0
  2  3  2  0  0  0  0
  2  7  1  0  0  0  0
  3  4  1  0  0  0  0
  4 29  1  0  0  0  0
  4  5  2  0  0  0  0
  5  8  1  0  0  0  0
  6  5  1  0  0  0  0
  6 30  1  0  0  0  0
  7  6  2  0  0  0  0
  8  9  2  0  0  0  0
  8 12  1  0  0  0  0
  9 10  1  0  0  0  0
 10 11  1  0  0  0  0
 11 13  1  0  0  0  0
 12 11  2  0  0  0  0
 13 33  1  0  0  0  0
 13 32  1  0  0  0  0
 13 14  1  0  0  0  0
 14 15  1  0  0  0  0
 15 34  1  0  0  0  0
 15 16  1  0  0  0  0
 16 20  1  0  0  0  0
 17 16  2  0  0  0  0
 17 18  1  0  0  0  0
 18 19  1  0  0  0  0
 19 20  1  0  0  0  0
 19 35  1  0  0  0  0
 20 21  2  0  0  0  0
 22 17  1  0  0  0  0
 23 22  2  0  0  0  0
 23 14  1  0  0  0  0
 24 25  2  0  0  0  0
 24 22  1  0  0  0  0
 26 24  1  0  0  0  0
 27 26  1  0  0  0  0
 28  3  1  0  0  0  0
 31  7  1  0  0  0  0
 36 23  1  0  0  0  0
 37 27  1  0  0  0  0
 38 27  1  0  0  0  0
 39 27  1  0  0  0  0
M  END
>  <Pose>
1

>  <Score>
-7.65

$$$$
