
 OpenBabel03222201593D

 58 61  0  0  1  0  0  0  0  0999 V2000
  -17.4790    1.7290  -24.2920 Cl  0  0  0  0  0  0  0  0  0  0  0  0
  -18.0690    0.4060  -25.2870 C   0  0  0  0  0  0  0  0  0  0  0  0
  -18.4200    0.5610  -26.6040 C   0  0  0  0  0  0  0  0  0  0  0  0
  -18.8840   -0.4880  -27.3820 C   0  0  0  0  0  0  0  0  0  0  0  0
  -19.2910   -0.6340  -28.6540 N   0  0  0  0  0  0  0  0  0  0  0  0
  -19.6500   -1.9050  -28.9030 C   0  0  0  0  0  0  0  0  0  0  0  0
  -19.4540   -2.5640  -27.7250 N   0  0  0  0  0  0  0  0  0  0  0  0
  -18.9900   -1.7280  -26.7890 C   0  0  0  0  0  0  0  0  0  0  0  0
  -18.6480   -1.9290  -25.4680 C   0  0  0  0  0  0  0  0  0  0  0  0
  -18.1870   -0.8470  -24.7250 C   0  0  0  0  0  0  0  0  0  0  0  0
  -19.7340   -3.9920  -27.5830 C   0  0  0  0  0  0  0  0  0  0  0  0
  -20.1550   -2.5070  -30.1620 C   0  0  0  0  0  0  0  0  0  0  0  0
  -20.6640   -1.5090  -31.1490 C   0  0  0  0  0  0  0  0  0  0  0  0
  -20.1110   -1.6870  -32.5130 C   0  0  0  0  0  0  0  0  0  0  0  0
  -20.0160   -2.8500  -32.9840 O   0  0  0  0  0  0  0  0  0  0  0  0
  -19.6920   -0.5880  -33.2850 N   0  0  0  0  0  0  0  0  0  0  0  0
  -20.6340    0.2850  -33.9870 C   0  0  0  0  0  0  0  0  0  0  0  0
  -20.3440    0.0860  -35.4610 C   0  0  2  0  0  0  0  0  0  0  0  0
  -18.8900    0.3580  -35.7670 C   0  0  1  0  0  0  0  0  0  0  0  0
  -18.1620    0.8460  -34.5100 C   0  0  0  0  0  0  0  0  0  0  0  0
  -18.2930   -0.2320  -33.4470 C   0  0  0  0  0  0  0  0  0  0  0  0
  -18.1950   -0.8210  -36.1340 O   0  0  0  0  0  0  0  0  0  0  0  0
  -18.6800    1.3290  -36.8890 C   0  0  0  0  0  0  0  0  0  0  0  0
  -21.2650    0.7240  -36.3350 N   0  0  0  0  0  0  0  0  0  0  0  0
  -21.8720    0.0460  -37.3530 C   0  0  0  0  0  0  0  0  0  0  0  0
  -22.7640    0.6650  -38.2030 C   0  0  0  0  0  0  0  0  0  0  0  0
  -23.0560    1.9990  -38.0260 C   0  0  0  0  0  0  0  0  0  0  0  0
  -23.8780    2.6080  -38.7920 O   0  0  0  0  0  0  0  0  0  0  0  0
  -22.4550    2.6590  -37.0220 N   0  0  0  0  0  0  0  0  0  0  0  0
  -21.5780    2.0040  -36.2060 C   0  0  0  0  0  0  0  0  0  0  0  0
  -21.0480    2.6700  -35.2880 O   0  0  0  0  0  0  0  0  0  0  0  0
  -23.4410   -0.0420  -39.3190 C   0  0  0  0  0  0  0  0  0  0  0  0
  -18.3310    1.5420  -27.0570 H   0  0  0  0  0  0  0  0  0  0  0  0
  -18.7320   -2.9010  -25.0060 H   0  0  0  0  0  0  0  0  0  0  0  0
  -17.9180   -0.9950  -23.6920 H   0  0  0  0  0  0  0  0  0  0  0  0
  -18.9750   -4.6060  -28.1460 H   0  0  0  0  0  0  0  0  0  0  0  0
  -20.7170   -4.2550  -28.0330 H   0  0  0  0  0  0  0  0  0  0  0  0
  -19.6880   -4.2600  -26.5010 H   0  0  0  0  0  0  0  0  0  0  0  0
  -20.9120   -3.3070  -29.9570 H   0  0  0  0  0  0  0  0  0  0  0  0
  -19.2980   -3.0340  -30.6330 H   0  0  0  0  0  0  0  0  0  0  0  0
  -21.7860   -1.6140  -31.1970 H   0  0  0  0  0  0  0  0  0  0  0  0
  -20.4450   -0.4970  -30.7470 H   0  0  0  0  0  0  0  0  0  0  0  0
  -20.3940    1.3050  -33.6210 H   0  0  0  0  0  0  0  0  0  0  0  0
  -21.6820   -0.0020  -33.7930 H   0  0  0  0  0  0  0  0  0  0  0  0
  -20.4740   -1.0320  -35.6010 H   0  0  0  0  0  0  0  0  0  0  0  0
  -17.0850    0.9210  -34.7590 H   0  0  0  0  0  0  0  0  0  0  0  0
  -18.5040    1.8270  -34.1820 H   0  0  0  0  0  0  0  0  0  0  0  0
  -17.9490    0.1850  -32.4780 H   0  0  0  0  0  0  0  0  0  0  0  0
  -17.6660   -1.0930  -33.7210 H   0  0  0  0  0  0  0  0  0  0  0  0
  -18.8920   -1.4860  -36.3550 H   0  0  0  0  0  0  0  0  0  0  0  0
  -17.7860    1.0490  -37.5210 H   0  0  0  0  0  0  0  0  0  0  0  0
  -18.4360    2.3660  -36.5260 H   0  0  0  0  0  0  0  0  0  0  0  0
  -19.5320    1.3790  -37.5770 H   0  0  0  0  0  0  0  0  0  0  0  0
  -21.6370   -1.0190  -37.4930 H   0  0  0  0  0  0  0  0  0  0  0  0
  -22.6720    3.6630  -36.8850 H   0  0  0  0  0  0  0  0  0  0  0  0
  -24.3980   -0.4420  -38.8970 H   0  0  0  0  0  0  0  0  0  0  0  0
  -23.7290    0.6630  -40.1260 H   0  0  0  0  0  0  0  0  0  0  0  0
  -22.7960   -0.8580  -39.7060 H   0  0  0  0  0  0  0  0  0  0  0  0
  2 10  1  0  0  0  0
  2  1  1  0  0  0  0
  3  2  2  0  0  0  0
  4  8  2  0  0  0  0
  4  3  1  0  0  0  0
  5  4  1  0  0  0  0
  6  5  2  0  0  0  0
  6  7  1  0  0  0  0
  7 11  1  0  0  0  0
  7  8  1  0  0  0  0
  8  9  1  0  0  0  0
  9 34  1  0  0  0  0
  9 10  2  0  0  0  0
 10 35  1  0  0  0  0
 11 38  1  0  0  0  0
 12 39  1  0  0  0  0
 12  6  1  0  0  0  0
 13 42  1  0  0  0  0
 13 12  1  0  0  0  0
 14 13  1  0  0  0  0
 15 14  2  0  0  0  0
 16 14  1  0  0  0  0
 17 44  1  0  0  0  0
 17 43  1  0  0  0  0
 17 16  1  0  0  0  0
 18 45  1  6  0  0  0
 18 17  1  0  0  0  0
 19 22  1  6  0  0  0
 19 18  1  0  0  0  0
 19 20  1  0  0  0  0
 20 47  1  0  0  0  0
 20 21  1  0  0  0  0
 21 16  1  0  0  0  0
 21 48  1  0  0  0  0
 23 52  1  0  0  0  0
 23 19  1  0  0  0  0
 24 30  1  0  0  0  0
 24 18  1  0  0  0  0
 25 24  1  0  0  0  0
 26 27  1  0  0  0  0
 26 25  2  0  0  0  0
 27 29  1  0  0  0  0
 28 27  2  0  0  0  0
 29 55  1  0  0  0  0
 29 30  1  0  0  0  0
 30 31  2  0  0  0  0
 32 56  1  0  0  0  0
 32 26  1  0  0  0  0
 33  3  1  0  0  0  0
 36 11  1  0  0  0  0
 37 11  1  0  0  0  0
 40 12  1  0  0  0  0
 41 13  1  0  0  0  0
 46 20  1  0  0  0  0
 49 21  1  0  0  0  0
 50 22  1  0  0  0  0
 51 23  1  0  0  0  0
 53 23  1  0  0  0  0
 54 25  1  0  0  0  0
 57 32  1  0  0  0  0
 58 32  1  0  0  0  0
M  END
>  <Pose>
1

>  <Score>
-6.32

$$$$
