
 OpenBabel03222201593D

 54 57  0  0  1  0  0  0  0  0999 V2000
  -23.9880   -2.1720  -37.3400 Cl  0  0  0  0  0  0  0  0  0  0  0  0
  -22.6320   -1.3080  -38.0230 C   0  0  0  0  0  0  0  0  0  0  0  0
  -21.7650   -0.6520  -37.1560 C   0  0  0  0  0  0  0  0  0  0  0  0
  -20.6850   -0.0320  -37.7270 C   0  0  0  0  0  0  0  0  0  0  0  0
  -20.4840   -0.0540  -39.1020 C   0  0  0  0  0  0  0  0  0  0  0  0
  -21.3610   -0.7190  -39.9830 C   0  0  0  0  0  0  0  0  0  0  0  0
  -22.4260   -1.3410  -39.3630 C   0  0  0  0  0  0  0  0  0  0  0  0
  -22.1650   -0.5230  -35.7310 C   0  0  0  0  0  0  0  0  0  0  0  0
  -21.3610   -1.2970  -34.8560 N   0  0  0  0  0  0  0  0  0  0  0  0
  -21.7890   -2.2400  -33.9190 C   0  0  0  0  0  0  0  0  0  0  0  0
  -21.8840   -3.4130  -34.1690 O   0  0  0  0  0  0  0  0  0  0  0  0
  -22.1290   -1.7350  -32.5130 C   0  0  0  0  0  0  0  0  0  0  0  0
  -20.9060   -1.7840  -31.7480 N   0  0  0  0  0  0  0  0  0  0  0  0
  -20.6280   -2.7840  -30.8250 C   0  0  0  0  0  0  0  0  0  0  0  0
  -19.0910   -2.6590  -30.4490 C   0  0  0  0  0  0  0  0  0  0  0  0
  -18.8880   -1.2460  -30.6310 N   0  0  0  0  0  0  0  0  0  0  0  0
  -18.6590   -0.9280  -32.0710 C   0  0  0  0  0  0  0  0  0  0  0  0
  -19.7830   -1.6670  -32.7430 C   0  0  0  0  0  0  0  0  0  0  0  0
  -18.8180   -0.3210  -29.6330 C   0  0  0  0  0  0  0  0  0  0  0  0
  -17.7780   -0.3290  -28.8900 O   0  0  0  0  0  0  0  0  0  0  0  0
  -19.8340    0.7150  -29.2650 C   0  0  1  0  0  0  0  0  0  0  0  0
  -20.7480    0.0090  -28.3630 O   0  0  0  0  0  0  0  0  0  0  0  0
  -20.0250   -0.9110  -27.5490 C   0  0  0  0  0  0  0  0  0  0  0  0
  -18.7630   -0.5490  -27.1600 C   0  0  0  0  0  0  0  0  0  0  0  0
  -17.9780   -1.3840  -26.3720 C   0  0  0  0  0  0  0  0  0  0  0  0
  -18.5460   -2.5980  -26.0030 C   0  0  0  0  0  0  0  0  0  0  0  0
  -19.8150   -2.9880  -26.3700 C   0  0  0  0  0  0  0  0  0  0  0  0
  -20.5640   -2.1290  -27.1500 C   0  0  0  0  0  0  0  0  0  0  0  0
  -18.2520    0.6890  -27.5660 O   0  0  0  0  0  0  0  0  0  0  0  0
  -19.0810    1.6440  -28.2750 C   0  0  0  0  0  0  0  0  0  0  0  0
  -19.9520    0.5110  -37.1510 H   0  0  0  0  0  0  0  0  0  0  0  0
  -19.6530    0.4360  -39.6010 H   0  0  0  0  0  0  0  0  0  0  0  0
  -21.1780   -0.7210  -41.0460 H   0  0  0  0  0  0  0  0  0  0  0  0
  -23.0870   -1.8820  -40.0110 H   0  0  0  0  0  0  0  0  0  0  0  0
  -21.9540    0.5870  -35.5080 H   0  0  0  0  0  0  0  0  0  0  0  0
  -23.2300   -0.7540  -35.6350 H   0  0  0  0  0  0  0  0  0  0  0  0
  -20.2980   -1.0970  -34.8360 H   0  0  0  0  0  0  0  0  0  0  0  0
  -22.4960   -0.7010  -32.5460 H   0  0  0  0  0  0  0  0  0  0  0  0
  -22.8720   -2.4190  -32.0890 H   0  0  0  0  0  0  0  0  0  0  0  0
  -20.7840   -3.8190  -31.0600 H   0  0  0  0  0  0  0  0  0  0  0  0
  -21.0870   -2.4880  -29.8290 H   0  0  0  0  0  0  0  0  0  0  0  0
  -18.5370   -3.2450  -31.1940 H   0  0  0  0  0  0  0  0  0  0  0  0
  -18.9270   -2.9670  -29.4230 H   0  0  0  0  0  0  0  0  0  0  0  0
  -17.7300   -1.4680  -32.3280 H   0  0  0  0  0  0  0  0  0  0  0  0
  -18.5770    0.1200  -32.2650 H   0  0  0  0  0  0  0  0  0  0  0  0
  -19.5060   -2.7170  -32.9420 H   0  0  0  0  0  0  0  0  0  0  0  0
  -20.2040   -1.2220  -33.6340 H   0  0  0  0  0  0  0  0  0  0  0  0
  -20.3150    1.2150  -30.0670 H   0  0  0  0  0  0  0  0  0  0  0  0
  -16.9630   -1.0770  -26.0870 H   0  0  0  0  0  0  0  0  0  0  0  0
  -17.9280   -3.2550  -25.4040 H   0  0  0  0  0  0  0  0  0  0  0  0
  -20.2200   -3.9710  -26.0620 H   0  0  0  0  0  0  0  0  0  0  0  0
  -21.5660   -2.3810  -27.4700 H   0  0  0  0  0  0  0  0  0  0  0  0
  -18.3630    2.2050  -28.9310 H   0  0  0  0  0  0  0  0  0  0  0  0
  -19.7270    2.2270  -27.6590 H   0  0  0  0  0  0  0  0  0  0  0  0
  2  1  1  0  0  0  0
  2  3  1  0  0  0  0
  3  8  1  0  0  0  0
  4  3  2  0  0  0  0
  4 31  1  0  0  0  0
  5  4  1  0  0  0  0
  6  7  1  0  0  0  0
  6  5  2  0  0  0  0
  7  2  2  0  0  0  0
  8 36  1  0  0  0  0
  8 35  1  0  0  0  0
  8  9  1  0  0  0  0
  9 37  1  0  0  0  0
  9 10  1  0  0  0  0
 10 12  1  0  0  0  0
 11 10  2  0  0  0  0
 12 39  1  0  0  0  0
 12 13  1  0  0  0  0
 13 14  1  0  0  0  0
 14 15  1  0  0  0  0
 14 41  1  0  0  0  0
 15 43  1  0  0  0  0
 16 15  1  0  0  0  0
 16 19  1  0  0  0  0
 17 16  1  0  0  0  0
 18 17  1  0  0  0  0
 18 13  1  0  0  0  0
 19 21  1  0  0  0  0
 19 20  2  0  0  0  0
 21 48  1  6  0  0  0
 21 22  1  0  0  0  0
 21 30  1  0  0  0  0
 22 23  1  0  0  0  0
 23 24  2  0  0  0  0
 23 28  1  0  0  0  0
 24 25  1  0  0  0  0
 25 49  1  0  0  0  0
 25 26  2  0  0  0  0
 26 50  1  0  0  0  0
 27 51  1  0  0  0  0
 27 26  1  0  0  0  0
 28 27  2  0  0  0  0
 29 24  1  0  0  0  0
 30 54  1  0  0  0  0
 30 29  1  0  0  0  0
 32  5  1  0  0  0  0
 33  6  1  0  0  0  0
 34  7  1  0  0  0  0
 38 12  1  0  0  0  0
 40 14  1  0  0  0  0
 42 15  1  0  0  0  0
 44 17  1  0  0  0  0
 45 17  1  0  0  0  0
 46 18  1  0  0  0  0
 47 18  1  0  0  0  0
 52 28  1  0  0  0  0
 53 30  1  0  0  0  0
M  END
>  <Pose>
1

>  <Score>
-4.49

$$$$
