
 OpenBabel03222201593D

 34 37  0  0  1  0  0  0  0  0999 V2000
  -19.9580   -4.9670  -27.1760 Cl  0  0  0  0  0  0  0  0  0  0  0  0
  -20.2850   -4.1390  -28.6940 C   0  0  0  0  0  0  0  0  0  0  0  0
  -20.6600   -4.8320  -29.8190 C   0  0  0  0  0  0  0  0  0  0  0  0
  -20.9140   -4.1770  -31.0030 C   0  0  0  0  0  0  0  0  0  0  0  0
  -20.8060   -2.8040  -31.1240 C   0  0  0  0  0  0  0  0  0  0  0  0
  -20.4290   -2.1270  -29.9850 C   0  0  0  0  0  0  0  0  0  0  0  0
  -20.1710   -2.7620  -28.7930 C   0  0  0  0  0  0  0  0  0  0  0  0
  -21.0770   -2.1750  -32.3710 N   0  0  0  0  0  0  0  0  0  0  0  0
  -20.4790   -0.9850  -32.9050 C   0  0  0  0  0  0  0  0  0  0  0  0
  -19.9680   -0.0880  -32.1480 O   0  0  0  0  0  0  0  0  0  0  0  0
  -20.5670   -1.0080  -34.3740 C   0  0  1  0  0  0  0  0  0  0  0  0
  -21.6740   -2.0020  -34.6310 C   0  0  2  0  0  0  0  0  0  0  0  0
  -22.8280   -1.2900  -35.3030 C   0  0  2  0  0  0  0  0  0  0  0  0
  -22.3080   -0.8940  -36.6930 C   0  0  0  0  0  0  0  0  0  0  0  0
  -21.2020    0.0870  -36.4360 C   0  0  0  0  0  0  0  0  0  0  0  0
  -20.6530    0.6410  -37.3500 O   0  0  0  0  0  0  0  0  0  0  0  0
  -20.8390    0.3200  -34.9950 C   0  0  1  0  0  0  0  0  0  0  0  0
  -22.0770    0.9630  -34.3610 C   0  0  0  0  0  0  0  0  0  0  0  0
  -23.1950   -0.0180  -34.5900 C   0  0  0  0  0  0  0  0  0  0  0  0
  -24.3050    0.2380  -34.2120 O   0  0  0  0  0  0  0  0  0  0  0  0
  -22.0100   -2.6160  -33.3480 C   0  0  0  0  0  0  0  0  0  0  0  0
  -22.9620   -3.4010  -33.1430 O   0  0  0  0  0  0  0  0  0  0  0  0
  -20.7500   -5.9000  -29.7500 H   0  0  0  0  0  0  0  0  0  0  0  0
  -21.2140   -4.7230  -31.9070 H   0  0  0  0  0  0  0  0  0  0  0  0
  -20.3280   -1.0540  -30.0190 H   0  0  0  0  0  0  0  0  0  0  0  0
  -19.8710   -2.2200  -27.8870 H   0  0  0  0  0  0  0  0  0  0  0  0
  -19.5880   -1.3740  -34.7910 H   0  0  0  0  0  0  0  0  0  0  0  0
  -21.2950   -2.7550  -35.3570 H   0  0  0  0  0  0  0  0  0  0  0  0
  -23.7200   -1.9360  -35.3710 H   0  0  0  0  0  0  0  0  0  0  0  0
  -21.8010   -1.8150  -37.0890 H   0  0  0  0  0  0  0  0  0  0  0  0
  -23.0920   -0.5000  -37.3340 H   0  0  0  0  0  0  0  0  0  0  0  0
  -19.9580    0.9580  -34.9440 H   0  0  0  0  0  0  0  0  0  0  0  0
  -22.2450    1.9130  -34.9360 H   0  0  0  0  0  0  0  0  0  0  0  0
  -21.9320    1.1710  -33.2970 H   0  0  0  0  0  0  0  0  0  0  0  0
  2  1  1  0  0  0  0
  3 23  1  0  0  0  0
  3  2  2  0  0  0  0
  4  3  1  0  0  0  0
  5  4  2  0  0  0  0
  5  6  1  0  0  0  0
  6  7  2  0  0  0  0
  7  2  1  0  0  0  0
  7 26  1  0  0  0  0
  8  5  1  0  0  0  0
  9  8  1  0  0  0  0
  9 10  2  0  0  0  0
 11 27  1  6  0  0  0
 11  9  1  0  0  0  0
 12 28  1  6  0  0  0
 12 11  1  0  0  0  0
 12 21  1  0  0  0  0
 13 29  1  6  0  0  0
 13 12  1  0  0  0  0
 13 19  1  0  0  0  0
 14 15  1  0  0  0  0
 14 13  1  0  0  0  0
 15 17  1  0  0  0  0
 16 15  2  0  0  0  0
 17 32  1  1  0  0  0
 17 11  1  0  0  0  0
 17 18  1  0  0  0  0
 18 34  1  0  0  0  0
 19 18  1  0  0  0  0
 19 20  2  0  0  0  0
 21 22  2  0  0  0  0
 21  8  1  0  0  0  0
 24  4  1  0  0  0  0
 25  6  1  0  0  0  0
 30 14  1  0  0  0  0
 31 14  1  0  0  0  0
 33 18  1  0  0  0  0
M  END
>  <Pose>
1

>  <Score>
-4.84

$$$$
