
 OpenBabel03222201593D

 40 43  0  0  0  0  0  0  0  0999 V2000
  -17.9410    3.2700  -27.6180 Cl  0  0  0  0  0  0  0  0  0  0  0  0
  -18.2830    1.5640  -27.4040 C   0  0  0  0  0  0  0  0  0  0  0  0
  -18.7340    0.7790  -28.4400 C   0  0  0  0  0  0  0  0  0  0  0  0
  -19.0040   -0.5800  -28.2560 C   0  0  0  0  0  0  0  0  0  0  0  0
  -18.8040   -1.1230  -26.9950 C   0  0  0  0  0  0  0  0  0  0  0  0
  -18.3540   -0.3510  -25.9500 C   0  0  0  0  0  0  0  0  0  0  0  0
  -18.0940    0.9810  -26.1440 C   0  0  0  0  0  0  0  0  0  0  0  0
  -19.0740   -2.5520  -26.7530 C   0  0  0  0  0  0  0  0  0  0  0  0
  -18.9750   -3.2940  -25.7040 N   0  0  0  0  0  0  0  0  0  0  0  0
  -19.3570   -4.6570  -25.9560 C   0  0  0  0  0  0  0  0  0  0  0  0
  -19.7340   -4.6720  -27.4050 C   0  0  0  0  0  0  0  0  0  0  0  0
  -19.5350   -3.3180  -27.8490 N   0  0  0  0  0  0  0  0  0  0  0  0
  -19.7290   -2.7320  -29.1300 C   0  0  0  0  0  0  0  0  0  0  0  0
  -20.1390   -3.3990  -30.1220 O   0  0  0  0  0  0  0  0  0  0  0  0
  -19.4660   -1.3370  -29.3680 N   0  0  0  0  0  0  0  0  0  0  0  0
  -19.6720   -0.7590  -30.6890 C   0  0  0  0  0  0  0  0  0  0  0  0
  -18.4580   -0.8910  -31.5260 C   0  0  0  0  0  0  0  0  0  0  0  0
  -17.3390   -0.8360  -30.9590 O   0  0  0  0  0  0  0  0  0  0  0  0
  -18.5010   -1.0760  -32.9280 N   0  0  0  0  0  0  0  0  0  0  0  0
  -19.4400   -0.3690  -33.7660 C   0  0  0  0  0  0  0  0  0  0  0  0
  -20.3400   -1.3480  -34.4710 C   0  0  0  0  0  0  0  0  0  0  0  0
  -21.8050   -1.0920  -34.5160 C   0  0  0  0  0  0  0  0  0  0  0  0
  -21.2800   -2.1460  -33.6180 C   0  0  0  0  0  0  0  0  0  0  0  0
  -18.8890    1.2060  -29.4300 H   0  0  0  0  0  0  0  0  0  0  0  0
  -18.2040   -0.7800  -24.9830 H   0  0  0  0  0  0  0  0  0  0  0  0
  -17.7350    1.6460  -25.3530 H   0  0  0  0  0  0  0  0  0  0  0  0
  -20.1860   -4.9990  -25.3000 H   0  0  0  0  0  0  0  0  0  0  0  0
  -18.4720   -5.3410  -25.8320 H   0  0  0  0  0  0  0  0  0  0  0  0
  -19.1210   -5.4000  -27.9960 H   0  0  0  0  0  0  0  0  0  0  0  0
  -20.8140   -4.9470  -27.4610 H   0  0  0  0  0  0  0  0  0  0  0  0
  -20.1090    0.2430  -30.6720 H   0  0  0  0  0  0  0  0  0  0  0  0
  -20.4490   -1.4200  -31.1790 H   0  0  0  0  0  0  0  0  0  0  0  0
  -17.8260   -1.7460  -33.3490 H   0  0  0  0  0  0  0  0  0  0  0  0
  -18.8770    0.2700  -34.5020 H   0  0  0  0  0  0  0  0  0  0  0  0
  -20.0340    0.3100  -33.1320 H   0  0  0  0  0  0  0  0  0  0  0  0
  -19.8350   -1.9420  -35.2600 H   0  0  0  0  0  0  0  0  0  0  0  0
  -22.1810   -0.1320  -34.0950 H   0  0  0  0  0  0  0  0  0  0  0  0
  -22.3290   -1.3700  -35.4600 H   0  0  0  0  0  0  0  0  0  0  0  0
  -21.2730   -1.9010  -32.5310 H   0  0  0  0  0  0  0  0  0  0  0  0
  -21.4770   -3.2080  -33.8880 H   0  0  0  0  0  0  0  0  0  0  0  0
  1  2  1  0  0  0  0
  2  7  1  0  0  0  0
  3  4  1  0  0  0  0
  3  2  2  0  0  0  0
  4  5  2  0  0  0  0
  5  8  1  0  0  0  0
  5  6  1  0  0  0  0
  6 25  1  0  0  0  0
  7  6  2  0  0  0  0
  7 26  1  0  0  0  0
  8  9  2  0  0  0  0
 10 28  1  0  0  0  0
 10  9  1  0  0  0  0
 10 27  1  0  0  0  0
 11 10  1  0  0  0  0
 12 11  1  0  0  0  0
 12  8  1  0  0  0  0
 13 12  1  0  0  0  0
 14 13  2  0  0  0  0
 15 13  1  0  0  0  0
 15  4  1  0  0  0  0
 16 31  1  0  0  0  0
 16 15  1  0  0  0  0
 17 18  2  0  0  0  0
 17 16  1  0  0  0  0
 19 17  1  0  0  0  0
 20 35  1  0  0  0  0
 20 19  1  0  0  0  0
 21 20  1  0  0  0  0
 21 23  1  0  0  0  0
 22 21  1  0  0  0  0
 22 37  1  0  0  0  0
 22 23  1  0  0  0  0
 23 39  1  0  0  0  0
 24  3  1  0  0  0  0
 29 11  1  0  0  0  0
 30 11  1  0  0  0  0
 32 16  1  0  0  0  0
 33 19  1  0  0  0  0
 34 20  1  0  0  0  0
 36 21  1  0  0  0  0
 38 22  1  0  0  0  0
 40 23  1  0  0  0  0
M  END
>  <Pose>
1

>  <Score>
-6.71

$$$$
