
 OpenBabel03222201593D

 63 66  0  0  1  0  0  0  0  0999 V2000
  -18.6120    7.5470  -33.2610 Cl  0  0  0  0  0  0  0  0  0  0  0  0
  -18.8380    5.8300  -33.5070 C   0  0  0  0  0  0  0  0  0  0  0  0
  -19.0140    4.9430  -32.4720 C   0  0  0  0  0  0  0  0  0  0  0  0
  -19.1880    3.5980  -32.7200 C   0  0  0  0  0  0  0  0  0  0  0  0
  -19.1960    3.0650  -34.0170 C   0  0  0  0  0  0  0  0  0  0  0  0
  -19.0200    3.9760  -35.0320 C   0  0  0  0  0  0  0  0  0  0  0  0
  -18.8420    5.3430  -34.7830 C   0  0  0  0  0  0  0  0  0  0  0  0
  -19.4280    1.6500  -34.2050 C   0  0  0  0  0  0  0  0  0  0  0  0
  -20.6390    1.1200  -34.2570 C   0  0  0  0  0  0  0  0  0  0  0  0
  -20.9420   -0.3460  -34.4440 C   0  0  2  0  0  0  0  0  0  0  0  0
  -22.3410   -0.4100  -34.7570 N   0  0  0  0  0  0  0  0  0  0  0  0
  -22.9680    0.8400  -34.5130 C   0  0  0  0  0  0  0  0  0  0  0  0
  -24.1820    1.0860  -34.5530 O   0  0  0  0  0  0  0  0  0  0  0  0
  -21.8900    1.8060  -34.1990 C   0  0  0  0  0  0  0  0  0  0  0  0
  -22.0810    3.0170  -33.9350 O   0  0  0  0  0  0  0  0  0  0  0  0
  -23.0340   -1.5870  -35.2710 C   0  0  0  0  0  0  0  0  0  0  0  0
  -23.6200   -1.2830  -36.6060 C   0  0  0  0  0  0  0  0  0  0  0  0
  -22.8580   -1.9280  -37.6890 N   0  0  0  0  0  4  0  0  0  0  0  0
  -22.3220   -0.8990  -38.5250 C   0  0  0  0  0  0  0  0  0  0  0  0
  -21.8590   -1.4440  -39.8740 C   0  0  0  0  0  0  0  0  0  0  0  0
  -22.9850   -2.0570  -40.4540 O   0  0  0  0  0  0  0  0  0  0  0  0
  -23.2450   -3.2010  -39.7290 C   0  0  0  0  0  0  0  0  0  0  0  0
  -23.7820   -2.8110  -38.3670 C   0  0  0  0  0  0  0  0  0  0  0  0
  -20.5830   -1.0170  -33.1660 C   0  0  0  0  0  0  0  0  0  0  0  0
  -20.5260   -2.3790  -33.1010 C   0  0  0  0  0  0  0  0  0  0  0  0
  -20.1830   -2.9860  -31.9270 C   0  0  0  0  0  0  0  0  0  0  0  0
  -19.8890   -2.2610  -30.7930 C   0  0  0  0  0  0  0  0  0  0  0  0
  -19.9460   -0.8810  -30.8560 C   0  0  0  0  0  0  0  0  0  0  0  0
  -20.2950   -0.2690  -32.0510 C   0  0  0  0  0  0  0  0  0  0  0  0
  -19.5410   -2.8870  -29.6010 O   0  0  0  0  0  0  0  0  0  0  0  0
  -19.2020   -2.0610  -28.4770 C   0  0  0  0  0  0  0  0  0  0  0  0
  -20.0560   -2.4840  -27.2840 C   0  0  0  0  0  0  0  0  0  0  0  0
  -20.0960   -4.0060  -27.2860 C   0  0  0  0  0  0  0  0  0  0  0  0
  -18.3490    0.7460  -34.3450 O   0  0  0  0  0  0  0  0  0  0  0  0
  -19.0090    5.3400  -31.4680 H   0  0  0  0  0  0  0  0  0  0  0  0
  -19.3250    2.9130  -31.8930 H   0  0  0  0  0  0  0  0  0  0  0  0
  -19.0460    3.6310  -36.0570 H   0  0  0  0  0  0  0  0  0  0  0  0
  -18.7050    6.0250  -35.6220 H   0  0  0  0  0  0  0  0  0  0  0  0
  -20.3100   -0.7460  -35.2650 H   0  0  0  0  0  0  0  0  0  0  0  0
  -23.8500   -1.8410  -34.5580 H   0  0  0  0  0  0  0  0  0  0  0  0
  -22.3200   -2.4250  -35.3170 H   0  0  0  0  0  0  0  0  0  0  0  0
  -23.6100   -0.2030  -36.8270 H   0  0  0  0  0  0  0  0  0  0  0  0
  -24.6600   -1.6940  -36.6690 H   0  0  0  0  0  0  0  0  0  0  0  0
  -22.0670   -2.4990  -37.2910 H   0  0  0  0  0  0  0  0  0  0  0  0
  -21.4130   -0.4930  -38.0010 H   0  0  0  0  0  0  0  0  0  0  0  0
  -23.0600   -0.0990  -38.7370 H   0  0  0  0  0  0  0  0  0  0  0  0
  -21.0640   -2.1770  -39.6520 H   0  0  0  0  0  0  0  0  0  0  0  0
  -21.5360   -0.6060  -40.4920 H   0  0  0  0  0  0  0  0  0  0  0  0
  -24.0330   -3.7950  -40.2230 H   0  0  0  0  0  0  0  0  0  0  0  0
  -22.3530   -3.8200  -39.5650 H   0  0  0  0  0  0  0  0  0  0  0  0
  -23.8700   -3.7290  -37.7490 H   0  0  0  0  0  0  0  0  0  0  0  0
  -24.7580   -2.2930  -38.4420 H   0  0  0  0  0  0  0  0  0  0  0  0
  -20.7470   -2.9950  -33.9630 H   0  0  0  0  0  0  0  0  0  0  0  0
  -20.1340   -4.0680  -31.8610 H   0  0  0  0  0  0  0  0  0  0  0  0
  -19.7120   -0.3290  -29.9570 H   0  0  0  0  0  0  0  0  0  0  0  0
  -20.3240    0.8230  -32.0380 H   0  0  0  0  0  0  0  0  0  0  0  0
  -18.1440   -2.2060  -28.2090 H   0  0  0  0  0  0  0  0  0  0  0  0
  -19.3710   -0.9980  -28.7270 H   0  0  0  0  0  0  0  0  0  0  0  0
  -19.5300   -2.1580  -26.3640 H   0  0  0  0  0  0  0  0  0  0  0  0
  -21.0700   -2.0480  -27.3550 H   0  0  0  0  0  0  0  0  0  0  0  0
  -20.1300   -4.3870  -26.2590 H   0  0  0  0  0  0  0  0  0  0  0  0
  -19.1840   -4.4390  -27.7640 H   0  0  0  0  0  0  0  0  0  0  0  0
  -21.0050   -4.3160  -27.8380 H   0  0  0  0  0  0  0  0  0  0  0  0
  2  1  1  0  0  0  0
  2  3  1  0  0  0  0
  3 35  1  0  0  0  0
  4  3  2  0  0  0  0
  4 36  1  0  0  0  0
  5  4  1  0  0  0  0
  6  7  1  0  0  0  0
  6  5  2  0  0  0  0
  7  2  2  0  0  0  0
  8  5  1  0  0  0  0
  9  8  2  0  0  0  0
  9 14  1  0  0  0  0
 10 39  1  6  0  0  0
 10  9  1  0  0  0  0
 10 24  1  0  0  0  0
 11 12  1  0  0  0  0
 11 10  1  0  0  0  0
 12 14  1  0  0  0  0
 13 12  2  0  0  0  0
 14 15  2  0  0  0  0
 16 11  1  0  0  0  0
 16 40  1  0  0  0  0
 17 16  1  0  0  0  0
 18 44  1  0  0  0  0
 18 17  1  0  0  0  0
 19 45  1  0  0  0  0
 19 18  1  0  0  0  0
 20 47  1  0  0  0  0
 20 19  1  0  0  0  0
 21 20  1  0  0  0  0
 21 22  1  0  0  0  0
 22 50  1  0  0  0  0
 22 23  1  0  0  0  0
 23 51  1  0  0  0  0
 23 18  1  0  0  0  0
 24 25  2  0  0  0  0
 24 29  1  0  0  0  0
 25 26  1  0  0  0  0
 26 54  1  0  0  0  0
 26 27  2  0  0  0  0
 27 30  1  0  0  0  0
 28 27  1  0  0  0  0
 28 55  1  0  0  0  0
 29 56  1  0  0  0  0
 29 28  2  0  0  0  0
 30 31  1  0  0  0  0
 31 57  1  0  0  0  0
 31 32  1  0  0  0  0
 32 59  1  0  0  0  0
 33 32  1  0  0  0  0
 33 61  1  0  0  0  0
 34  8  1  0  0  0  0
 37  6  1  0  0  0  0
 38  7  1  0  0  0  0
 41 16  1  0  0  0  0
 42 17  1  0  0  0  0
 43 17  1  0  0  0  0
 46 19  1  0  0  0  0
 48 20  1  0  0  0  0
 49 22  1  0  0  0  0
 52 23  1  0  0  0  0
 53 25  1  0  0  0  0
 58 31  1  0  0  0  0
 60 32  1  0  0  0  0
 62 33  1  0  0  0  0
 63 33  1  0  0  0  0
M  END
>  <Pose>
1

>  <Score>
-6.08

$$$$
