
 OpenBabel03222201593D

 35 37  0  0  1  0  0  0  0  0999 V2000
  -21.6360   -0.8410  -41.2030 B   0  0  0  0  0  0  0  0  0  0  0  0
  -21.9350   -0.9300  -39.3260 C   0  0  0  0  0  0  0  0  0  0  0  0
  -21.3260   -0.0040  -38.4770 C   0  0  0  0  0  0  0  0  0  0  0  0
  -21.5360   -0.0420  -37.0920 C   0  0  0  0  0  0  0  0  0  0  0  0
  -22.3720   -1.0450  -36.6350 C   0  0  0  0  0  0  0  0  0  0  0  0
  -22.9670   -1.9530  -37.4940 C   0  0  0  0  0  0  0  0  0  0  0  0
  -22.7500   -1.9030  -38.8420 C   0  0  0  0  0  0  0  0  0  0  0  0
  -22.5580   -1.0750  -35.2820 O   0  0  0  0  0  0  0  0  0  0  0  0
  -23.6790   -0.4520  -34.7160 C   0  0  0  0  0  0  0  0  0  0  0  0
  -20.9320    1.0280  -36.3060 C   0  0  2  0  0  0  0  0  0  0  0  0
  -19.5640    1.2400  -37.0110 C   0  0  2  0  0  0  0  0  0  0  0  0
  -19.1310   -0.2380  -37.0650 C   0  0  0  0  0  0  0  0  0  0  0  0
  -18.7030   -0.7830  -38.0660 O   0  0  0  0  0  0  0  0  0  0  0  0
  -19.3050   -0.8660  -35.7740 N   0  0  0  0  0  0  0  0  0  0  0  0
  -19.3970    0.0870  -34.6530 C   0  0  1  0  0  0  0  0  0  0  0  0
  -18.2880    1.0160  -34.9120 N   0  0  0  0  0  0  0  0  0  0  0  0
  -18.5310    1.8080  -36.0920 C   0  0  0  0  0  0  0  0  0  0  0  0
  -17.9390    2.8750  -36.3400 O   0  0  0  0  0  0  0  0  0  0  0  0
  -20.6820    0.9230  -34.8980 C   0  0  0  0  0  0  0  0  0  0  0  0
  -19.3740   -0.5040  -33.3130 C   0  0  0  0  0  0  0  0  0  0  0  0
  -20.7070    0.7230  -38.9710 H   0  0  0  0  0  0  0  0  0  0  0  0
  -23.5990   -2.6910  -37.0400 H   0  0  0  0  0  0  0  0  0  0  0  0
  -23.2600   -2.6700  -39.4540 H   0  0  0  0  0  0  0  0  0  0  0  0
  -23.8130    0.5640  -35.1150 H   0  0  0  0  0  0  0  0  0  0  0  0
  -24.5630   -1.0600  -35.1080 H   0  0  0  0  0  0  0  0  0  0  0  0
  -23.7100   -0.5070  -33.6200 H   0  0  0  0  0  0  0  0  0  0  0  0
  -21.4840    1.9670  -36.5710 H   0  0  0  0  0  0  0  0  0  0  0  0
  -19.5910    1.7100  -37.9540 H   0  0  0  0  0  0  0  0  0  0  0  0
  -19.3800   -1.8770  -35.6370 H   0  0  0  0  0  0  0  0  0  0  0  0
  -17.4520    1.0770  -34.3200 H   0  0  0  0  0  0  0  0  0  0  0  0
  -20.3880    1.9590  -34.5310 H   0  0  0  0  0  0  0  0  0  0  0  0
  -21.4890    0.6750  -34.2140 H   0  0  0  0  0  0  0  0  0  0  0  0
  -18.7570    0.1970  -32.6520 H   0  0  0  0  0  0  0  0  0  0  0  0
  -20.3580   -0.6200  -32.8260 H   0  0  0  0  0  0  0  0  0  0  0  0
  -18.8750   -1.4690  -33.2950 H   0  0  0  0  0  0  0  0  0  0  0  0
  1  2  1  0  0  0  0
  2  7  2  0  0  0  0
  2  3  1  0  0  0  0
  3  4  2  0  0  0  0
  4  5  1  0  0  0  0
  4 10  1  0  0  0  0
  5  8  1  0  0  0  0
  6 22  1  0  0  0  0
  6  5  2  0  0  0  0
  7  6  1  0  0  0  0
  8  9  1  0  0  0  0
  9 26  1  0  0  0  0
 10 27  1  6  0  0  0
 10 19  1  0  0  0  0
 11 28  1  6  0  0  0
 11 10  1  0  0  0  0
 11 17  1  0  0  0  0
 12 11  1  0  0  0  0
 12 14  1  0  0  0  0
 13 12  2  0  0  0  0
 14 29  1  0  0  0  0
 14 15  1  0  0  0  0
 15 20  1  1  0  0  0
 16 15  1  0  0  0  0
 16 30  1  0  0  0  0
 17 16  1  0  0  0  0
 18 17  2  0  0  0  0
 19 15  1  0  0  0  0
 19 31  1  0  0  0  0
 19 32  1  0  0  0  0
 20 35  1  0  0  0  0
 20 34  1  0  0  0  0
 20 33  1  0  0  0  0
 21  3  1  0  0  0  0
 23  7  1  0  0  0  0
 24  9  1  0  0  0  0
 25  9  1  0  0  0  0
M  END
>  <Pose>
1

>  <Score>
-4.97

$$$$
