
 OpenBabel03222201593D

 50 53  0  0  1  0  0  0  0  0999 V2000
  -20.8030   -4.9680  -28.5000 Cl  0  0  0  0  0  0  0  0  0  0  0  0
  -20.2210   -3.5040  -29.2880 C   0  0  0  0  0  0  0  0  0  0  0  0
  -20.4030   -3.3820  -30.6770 C   0  0  0  0  0  0  0  0  0  0  0  0
  -19.9560   -2.2450  -31.2820 C   0  0  0  0  0  0  0  0  0  0  0  0
  -19.3320   -1.2320  -30.5680 C   0  0  0  0  0  0  0  0  0  0  0  0
  -19.1660   -1.3800  -29.2100 C   0  0  0  0  0  0  0  0  0  0  0  0
  -19.6070   -2.5100  -28.5580 C   0  0  0  0  0  0  0  0  0  0  0  0
  -18.4850   -0.2660  -28.4610 C   0  0  0  0  0  0  0  0  0  0  0  0
  -20.3840   -2.3110  -32.7130 C   0  0  2  0  0  0  0  0  0  0  0  0
  -19.4610   -1.7870  -33.6390 N   0  0  0  0  0  0  0  0  0  0  0  0
  -19.7580   -0.3890  -33.7730 C   0  0  2  0  0  0  0  0  0  0  0  0
  -21.0400   -0.0980  -33.1050 C   0  0  2  0  0  0  0  0  0  0  0  0
  -21.6230   -1.5030  -32.9370 C   0  0  1  0  0  0  0  0  0  0  0  0
  -22.2290   -1.7070  -34.2410 C   0  0  0  0  0  0  0  0  0  0  0  0
  -22.3320   -2.6990  -34.9960 O   0  0  0  0  0  0  0  0  0  0  0  0
  -22.7800   -0.4120  -34.5980 N   0  0  0  0  0  0  0  0  0  0  0  0
  -22.0690    0.5850  -33.8790 C   0  0  0  0  0  0  0  0  0  0  0  0
  -22.3040    1.8010  -33.9220 O   0  0  0  0  0  0  0  0  0  0  0  0
  -23.8610   -0.1290  -35.5040 C   0  0  0  0  0  0  0  0  0  0  0  0
  -23.5530   -0.2900  -36.9460 C   0  0  0  0  0  0  0  0  0  0  0  0
  -23.7210    0.7910  -37.7580 O   0  0  0  0  0  0  0  0  0  0  0  0
  -24.9730    0.9140  -38.3230 C   0  0  0  0  0  0  0  0  0  0  0  0
  -19.6430    0.0860  -35.2100 C   0  0  1  0  0  0  0  0  0  0  0  0
  -20.4570   -0.5510  -36.0990 O   0  0  0  0  0  0  0  0  0  0  0  0
  -19.6670    1.5790  -35.2390 C   0  0  0  0  0  0  0  0  0  0  0  0
  -20.7170   -3.7220  -32.9000 C   0  0  0  0  0  0  0  0  0  0  0  0
  -20.8550   -4.4170  -33.9560 O   0  0  0  0  0  0  0  0  0  0  0  0
  -20.8880   -4.3150  -31.6350 N   0  0  0  0  0  0  0  0  0  0  0  0
  -18.9500   -0.3150  -31.0170 H   0  0  0  0  0  0  0  0  0  0  0  0
  -19.4620   -2.5990  -27.4770 H   0  0  0  0  0  0  0  0  0  0  0  0
  -18.9070    0.6970  -28.8120 H   0  0  0  0  0  0  0  0  0  0  0  0
  -17.3900   -0.2300  -28.7300 H   0  0  0  0  0  0  0  0  0  0  0  0
  -18.6310   -0.3530  -27.3810 H   0  0  0  0  0  0  0  0  0  0  0  0
  -18.4620   -1.9440  -33.3600 H   0  0  0  0  0  0  0  0  0  0  0  0
  -18.9520    0.2160  -33.2490 H   0  0  0  0  0  0  0  0  0  0  0  0
  -20.9520    0.2910  -32.0620 H   0  0  0  0  0  0  0  0  0  0  0  0
  -22.3310   -1.5380  -32.0870 H   0  0  0  0  0  0  0  0  0  0  0  0
  -24.7180   -0.8020  -35.2680 H   0  0  0  0  0  0  0  0  0  0  0  0
  -24.2380    0.9020  -35.2940 H   0  0  0  0  0  0  0  0  0  0  0  0
  -24.2320   -1.1020  -37.3350 H   0  0  0  0  0  0  0  0  0  0  0  0
  -22.5310   -0.7190  -37.0840 H   0  0  0  0  0  0  0  0  0  0  0  0
  -25.7720    0.9930  -37.5840 H   0  0  0  0  0  0  0  0  0  0  0  0
  -24.9720    1.8370  -38.9420 H   0  0  0  0  0  0  0  0  0  0  0  0
  -25.1300    0.0100  -38.9700 H   0  0  0  0  0  0  0  0  0  0  0  0
  -18.5850   -0.2300  -35.5000 H   0  0  0  0  0  0  0  0  0  0  0  0
  -20.1830   -1.4770  -36.3200 H   0  0  0  0  0  0  0  0  0  0  0  0
  -18.7180    1.9540  -35.7320 H   0  0  0  0  0  0  0  0  0  0  0  0
  -20.4700    1.9900  -35.8890 H   0  0  0  0  0  0  0  0  0  0  0  0
  -19.6630    1.9670  -34.2130 H   0  0  0  0  0  0  0  0  0  0  0  0
  -21.2880   -5.2550  -31.3810 H   0  0  0  0  0  0  0  0  0  0  0  0
  2  7  1  0  0  0  0
  2  1  1  0  0  0  0
  3  2  2  0  0  0  0
  4  3  1  0  0  0  0
  4  5  2  0  0  0  0
  5  6  1  0  0  0  0
  6  7  2  0  0  0  0
  6  8  1  0  0  0  0
  7 30  1  0  0  0  0
  8 33  1  0  0  0  0
  9 26  1  6  0  0  0
  9  4  1  0  0  0  0
 10 34  1  0  0  0  0
 10  9  1  0  0  0  0
 11 10  1  0  0  0  0
 11 35  1  1  0  0  0
 11 12  1  0  0  0  0
 12 13  1  0  0  0  0
 12 36  1  1  0  0  0
 13  9  1  0  0  0  0
 13 37  1  1  0  0  0
 14 13  1  0  0  0  0
 15 14  2  0  0  0  0
 16 14  1  0  0  0  0
 16 17  1  0  0  0  0
 17 12  1  0  0  0  0
 18 17  2  0  0  0  0
 19 39  1  0  0  0  0
 19 38  1  0  0  0  0
 19 16  1  0  0  0  0
 20 19  1  0  0  0  0
 21 20  1  0  0  0  0
 22 21  1  0  0  0  0
 22 42  1  0  0  0  0
 23 45  1  6  0  0  0
 23 11  1  0  0  0  0
 24 23  1  0  0  0  0
 25 23  1  0  0  0  0
 25 49  1  0  0  0  0
 26 28  1  0  0  0  0
 27 26  2  0  0  0  0
 28 50  1  0  0  0  0
 28  3  1  0  0  0  0
 29  5  1  0  0  0  0
 31  8  1  0  0  0  0
 32  8  1  0  0  0  0
 40 20  1  0  0  0  0
 41 20  1  0  0  0  0
 43 22  1  0  0  0  0
 44 22  1  0  0  0  0
 46 24  1  0  0  0  0
 47 25  1  0  0  0  0
 48 25  1  0  0  0  0
M  END
>  <Pose>
1

>  <Score>
-6.32

$$$$
