
 OpenBabel03222201593D

 55 58  0  0  0  0  0  0  0  0999 V2000
  -21.1080    1.8000  -35.4490 B   0  0  0  0  0  0  0  0  0  0  0  0
  -19.9830    0.8270  -34.2690 C   0  0  0  0  0  0  0  0  0  0  0  0
  -20.4630   -0.2490  -33.5010 C   0  0  0  0  0  0  0  0  0  0  0  0
  -19.6280   -0.9290  -32.6540 C   0  0  0  0  0  0  0  0  0  0  0  0
  -18.3080   -0.5550  -32.5590 C   0  0  0  0  0  0  0  0  0  0  0  0
  -17.8310    0.5180  -33.3270 C   0  0  0  0  0  0  0  0  0  0  0  0
  -18.6600    1.1930  -34.1640 C   0  0  0  0  0  0  0  0  0  0  0  0
  -17.5320   -1.2660  -31.7100 O   0  0  0  0  0  0  0  0  0  0  0  0
  -16.4980   -2.1310  -32.0310 C   0  0  0  0  0  0  0  0  0  0  0  0
  -20.1230   -2.0680  -31.8930 C   0  0  0  0  0  0  0  0  0  0  0  0
  -19.9370   -2.3040  -30.6340 C   0  0  0  0  0  0  0  0  0  0  0  0
  -19.2340   -1.5320  -29.7530 O   0  0  0  0  0  0  0  0  0  0  0  0
  -19.2760   -2.1270  -28.4930 C   0  0  0  0  0  0  0  0  0  0  0  0
  -19.9850   -3.2850  -28.4970 C   0  0  0  0  0  0  0  0  0  0  0  0
  -20.1630   -4.0290  -27.3250 C   0  0  0  0  0  0  0  0  0  0  0  0
  -19.6340   -3.6350  -26.1230 C   0  0  0  0  0  0  0  0  0  0  0  0
  -18.9050   -2.4330  -26.1720 C   0  0  0  0  0  0  0  0  0  0  0  0
  -18.7190   -1.6890  -27.2860 C   0  0  0  0  0  0  0  0  0  0  0  0
  -17.9130   -0.4550  -27.3500 C   0  0  0  0  0  0  0  0  0  0  0  0
  -18.6040    0.6630  -26.7530 N   0  0  0  0  0  4  0  0  0  0  0  0
  -18.8310    1.6790  -27.7650 C   0  0  0  0  0  0  0  0  0  0  0  0
  -18.6590    3.0640  -27.3040 C   0  0  0  0  0  0  0  0  0  0  0  0
  -18.9680    3.3170  -25.9320 N   0  0  0  0  0  0  0  0  0  0  0  0
  -19.2110    2.2280  -25.1010 C   0  0  0  0  0  0  0  0  0  0  0  0
  -18.2590    1.0610  -25.4760 C   0  0  0  0  0  0  0  0  0  0  0  0
  -18.4170    4.4860  -25.3600 C   0  0  0  0  0  0  0  0  0  0  0  0
  -19.3890    5.5690  -25.0460 C   0  0  0  0  0  0  0  0  0  0  0  0
  -18.3670   -2.0820  -24.9150 O   0  0  0  0  0  0  0  0  0  0  0  0
  -20.4430   -3.4530  -29.8800 C   0  0  0  0  0  0  0  0  0  0  0  0
  -21.1420   -4.4070  -30.3280 O   0  0  0  0  0  0  0  0  0  0  0  0
  -21.5090   -0.4750  -33.6320 H   0  0  0  0  0  0  0  0  0  0  0  0
  -16.7840    0.8120  -33.2590 H   0  0  0  0  0  0  0  0  0  0  0  0
  -18.2380    2.0140  -34.7390 H   0  0  0  0  0  0  0  0  0  0  0  0
  -15.5370   -1.8610  -31.5120 H   0  0  0  0  0  0  0  0  0  0  0  0
  -16.2220   -2.2040  -33.0970 H   0  0  0  0  0  0  0  0  0  0  0  0
  -16.7690   -3.1980  -31.7240 H   0  0  0  0  0  0  0  0  0  0  0  0
  -20.7390   -2.8410  -32.4170 H   0  0  0  0  0  0  0  0  0  0  0  0
  -20.7520   -4.9370  -27.4390 H   0  0  0  0  0  0  0  0  0  0  0  0
  -19.7540   -4.1800  -25.2170 H   0  0  0  0  0  0  0  0  0  0  0  0
  -17.5350   -0.2640  -28.3650 H   0  0  0  0  0  0  0  0  0  0  0  0
  -16.9650   -0.6830  -26.7560 H   0  0  0  0  0  0  0  0  0  0  0  0
  -19.6290    0.2230  -26.6330 H   0  0  0  0  0  0  0  0  0  0  0  0
  -19.8270    1.5220  -28.2500 H   0  0  0  0  0  0  0  0  0  0  0  0
  -18.1040    1.4910  -28.5880 H   0  0  0  0  0  0  0  0  0  0  0  0
  -17.6600    3.4630  -27.6040 H   0  0  0  0  0  0  0  0  0  0  0  0
  -19.3850    3.7050  -27.9000 H   0  0  0  0  0  0  0  0  0  0  0  0
  -19.1750    2.4550  -24.0450 H   0  0  0  0  0  0  0  0  0  0  0  0
  -20.2200    1.7790  -25.3200 H   0  0  0  0  0  0  0  0  0  0  0  0
  -18.6120    0.2780  -24.7300 H   0  0  0  0  0  0  0  0  0  0  0  0
  -17.2250    1.2570  -25.2530 H   0  0  0  0  0  0  0  0  0  0  0  0
  -17.9130    4.1840  -24.3950 H   0  0  0  0  0  0  0  0  0  0  0  0
  -17.5940    4.8310  -26.0440 H   0  0  0  0  0  0  0  0  0  0  0  0
  -20.3780    5.4370  -25.4900 H   0  0  0  0  0  0  0  0  0  0  0  0
  -19.4880    5.7280  -23.9400 H   0  0  0  0  0  0  0  0  0  0  0  0
  -18.9850    6.5070  -25.4650 H   0  0  0  0  0  0  0  0  0  0  0  0
  1  2  1  0  0  0  0
  2  7  2  0  0  0  0
  2  3  1  0  0  0  0
  3  4  2  0  0  0  0
  4  5  1  0  0  0  0
  4 10  1  0  0  0  0
  5  8  1  0  0  0  0
  6 32  1  0  0  0  0
  6  5  2  0  0  0  0
  7  6  1  0  0  0  0
  9 36  1  0  0  0  0
  9  8  1  0  0  0  0
  9 34  1  0  0  0  0
 10 11  2  0  0  0  0
 11 29  1  0  0  0  0
 11 12  1  0  0  0  0
 12 13  1  0  0  0  0
 13 18  1  0  0  0  0
 14 13  2  0  0  0  0
 14 15  1  0  0  0  0
 15 16  2  0  0  0  0
 16 39  1  0  0  0  0
 17 16  1  0  0  0  0
 17 28  1  0  0  0  0
 18 17  2  0  0  0  0
 19 18  1  0  0  0  0
 19 41  1  0  0  0  0
 19 20  1  0  0  0  0
 20 42  1  0  0  0  0
 20 25  1  0  0  0  0
 21 22  1  0  0  0  0
 21 20  1  0  0  0  0
 22 23  1  0  0  0  0
 23 26  1  0  0  0  0
 23 24  1  0  0  0  0
 24 47  1  0  0  0  0
 25 50  1  0  0  0  0
 25 24  1  0  0  0  0
 25 49  1  0  0  0  0
 26 27  1  0  0  0  0
 26 51  1  0  0  0  0
 27 54  1  0  0  0  0
 29 14  1  0  0  0  0
 30 29  2  0  0  0  0
 31  3  1  0  0  0  0
 33  7  1  0  0  0  0
 35  9  1  0  0  0  0
 37 10  1  0  0  0  0
 38 15  1  0  0  0  0
 40 19  1  0  0  0  0
 43 21  1  0  0  0  0
 44 21  1  0  0  0  0
 45 22  1  0  0  0  0
 46 22  1  0  0  0  0
 48 24  1  0  0  0  0
 52 26  1  0  0  0  0
 53 27  1  0  0  0  0
 55 27  1  0  0  0  0
M  END
>  <Pose>
1

>  <Score>
-6.16

$$$$
