
 OpenBabel03222201593D

 48 51  0  0  0  0  0  0  0  0999 V2000
  -17.0430    1.2670  -32.6280 B   0  0  0  0  0  0  0  0  0  0  0  0
  -18.7430    0.4490  -32.8940 C   0  0  0  0  0  0  0  0  0  0  0  0
  -19.0560   -0.8340  -32.5490 C   0  0  0  0  0  0  0  0  0  0  0  0
  -20.2940   -1.4030  -32.7520 C   0  0  0  0  0  0  0  0  0  0  0  0
  -21.2700   -0.5980  -33.3460 C   0  0  0  0  0  0  0  0  0  0  0  0
  -21.0130    0.6940  -33.7130 C   0  0  0  0  0  0  0  0  0  0  0  0
  -19.7450    1.2140  -33.4840 C   0  0  0  0  0  0  0  0  0  0  0  0
  -22.5220   -1.1430  -33.5560 O   0  0  0  0  0  0  0  0  0  0  0  0
  -23.3160   -0.7060  -34.6270 C   0  0  0  0  0  0  0  0  0  0  0  0
  -20.6090   -2.7670  -32.3620 C   0  0  0  0  0  0  0  0  0  0  0  0
  -20.5140   -3.2710  -31.1630 C   0  0  0  0  0  0  0  0  0  0  0  0
  -20.0900   -2.5670  -30.0460 O   0  0  0  0  0  0  0  0  0  0  0  0
  -20.0870   -3.3550  -28.9110 C   0  0  0  0  0  0  0  0  0  0  0  0
  -20.5090   -4.6310  -29.2070 C   0  0  0  0  0  0  0  0  0  0  0  0
  -20.5800   -5.5850  -28.2140 C   0  0  0  0  0  0  0  0  0  0  0  0
  -20.2250   -5.2490  -26.9250 C   0  0  0  0  0  0  0  0  0  0  0  0
  -19.7960   -3.9360  -26.6480 C   0  0  0  0  0  0  0  0  0  0  0  0
  -19.7190   -2.9780  -27.6120 C   0  0  0  0  0  0  0  0  0  0  0  0
  -19.3090   -1.6190  -27.3840 C   0  0  0  0  0  0  0  0  0  0  0  0
  -17.9830   -1.2630  -27.0840 N   0  0  0  0  0  4  0  0  0  0  0  0
  -17.5300   -0.0130  -27.6310 C   0  0  0  0  0  0  0  0  0  0  0  0
  -17.9330    1.1960  -26.8240 C   0  0  0  0  0  0  0  0  0  0  0  0
  -18.7740    0.8980  -25.7600 O   0  0  0  0  0  0  0  0  0  0  0  0
  -18.0830    0.0000  -24.9540 C   0  0  0  0  0  0  0  0  0  0  0  0
  -17.7120   -1.2770  -25.6340 C   0  0  0  0  0  0  0  0  0  0  0  0
  -19.4670   -3.7410  -25.2970 O   0  0  0  0  0  0  0  0  0  0  0  0
  -20.7930   -4.6140  -30.6460 C   0  0  0  0  0  0  0  0  0  0  0  0
  -21.2040   -5.5760  -31.3320 O   0  0  0  0  0  0  0  0  0  0  0  0
  -18.2660   -1.4320  -32.0850 H   0  0  0  0  0  0  0  0  0  0  0  0
  -21.7410    1.3640  -34.1840 H   0  0  0  0  0  0  0  0  0  0  0  0
  -19.5250    2.2520  -33.7740 H   0  0  0  0  0  0  0  0  0  0  0  0
  -24.4080   -0.9180  -34.4050 H   0  0  0  0  0  0  0  0  0  0  0  0
  -23.0680   -1.3060  -35.5390 H   0  0  0  0  0  0  0  0  0  0  0  0
  -23.2720    0.3900  -34.7980 H   0  0  0  0  0  0  0  0  0  0  0  0
  -20.9630   -3.4540  -33.1480 H   0  0  0  0  0  0  0  0  0  0  0  0
  -20.9170   -6.5920  -28.4590 H   0  0  0  0  0  0  0  0  0  0  0  0
  -20.2610   -5.9510  -26.1070 H   0  0  0  0  0  0  0  0  0  0  0  0
  -19.6190   -0.9300  -28.2480 H   0  0  0  0  0  0  0  0  0  0  0  0
  -19.9400   -1.1410  -26.5410 H   0  0  0  0  0  0  0  0  0  0  0  0
  -17.3420   -2.0050  -27.4340 H   0  0  0  0  0  0  0  0  0  0  0  0
  -16.4000   -0.0550  -27.5840 H   0  0  0  0  0  0  0  0  0  0  0  0
  -17.7850    0.0860  -28.6860 H   0  0  0  0  0  0  0  0  0  0  0  0
  -17.0460    1.7310  -26.3760 H   0  0  0  0  0  0  0  0  0  0  0  0
  -18.4020    1.9470  -27.4900 H   0  0  0  0  0  0  0  0  0  0  0  0
  -18.7960   -0.2810  -24.1230 H   0  0  0  0  0  0  0  0  0  0  0  0
  -17.2080    0.5210  -24.4700 H   0  0  0  0  0  0  0  0  0  0  0  0
  -18.2000   -2.1690  -25.1920 H   0  0  0  0  0  0  0  0  0  0  0  0
  -16.6240   -1.4340  -25.4820 H   0  0  0  0  0  0  0  0  0  0  0  0
  2  1  1  0  0  0  0
  2  3  1  0  0  0  0
  3 29  1  0  0  0  0
  4  3  2  0  0  0  0
  4 10  1  0  0  0  0
  5  4  1  0  0  0  0
  6  7  1  0  0  0  0
  6  5  2  0  0  0  0
  7  2  2  0  0  0  0
  8  5  1  0  0  0  0
  9 32  1  0  0  0  0
  9  8  1  0  0  0  0
 10 11  2  0  0  0  0
 11 27  1  0  0  0  0
 11 12  1  0  0  0  0
 12 13  1  0  0  0  0
 13 18  1  0  0  0  0
 14 13  2  0  0  0  0
 14 15  1  0  0  0  0
 15 16  2  0  0  0  0
 16 17  1  0  0  0  0
 16 37  1  0  0  0  0
 17 26  1  0  0  0  0
 18 19  1  0  0  0  0
 18 17  2  0  0  0  0
 19 20  1  0  0  0  0
 19 39  1  0  0  0  0
 20 25  1  0  0  0  0
 21 41  1  0  0  0  0
 21 20  1  0  0  0  0
 21 22  1  0  0  0  0
 22 43  1  0  0  0  0
 22 23  1  0  0  0  0
 23 24  1  0  0  0  0
 24 46  1  0  0  0  0
 24 45  1  0  0  0  0
 25 48  1  0  0  0  0
 25 47  1  0  0  0  0
 25 24  1  0  0  0  0
 27 14  1  0  0  0  0
 28 27  2  0  0  0  0
 30  6  1  0  0  0  0
 31  7  1  0  0  0  0
 33  9  1  0  0  0  0
 34  9  1  0  0  0  0
 35 10  1  0  0  0  0
 36 15  1  0  0  0  0
 38 19  1  0  0  0  0
 40 20  1  0  0  0  0
 42 21  1  0  0  0  0
 44 22  1  0  0  0  0
M  END
>  <Pose>
1

>  <Score>
-6.56

$$$$
