
 OpenBabel03222201593D

 43 46  0  0  0  0  0  0  0  0999 V2000
  -23.8380    1.1070  -33.8190 B   0  0  0  0  0  0  0  0  0  0  0  0
  -22.2880    0.0000  -33.9610 C   0  0  0  0  0  0  0  0  0  0  0  0
  -22.2810   -1.0760  -34.7900 C   0  0  0  0  0  0  0  0  0  0  0  0
  -21.2080   -1.8570  -34.9000 N   0  0  0  0  0  0  0  0  0  0  0  0
  -20.1100   -1.5810  -34.1810 C   0  0  0  0  0  0  0  0  0  0  0  0
  -20.0600   -0.4930  -33.3170 C   0  0  0  0  0  0  0  0  0  0  0  0
  -21.1650    0.3180  -33.1990 C   0  0  0  0  0  0  0  0  0  0  0  0
  -18.8350   -0.2670  -32.5870 C   0  0  0  0  0  0  0  0  0  0  0  0
  -18.0210    0.5940  -32.9600 O   0  0  0  0  0  0  0  0  0  0  0  0
  -18.5200   -1.0560  -31.3780 N   0  0  0  0  0  0  0  0  0  0  0  0
  -19.4170   -0.9150  -30.3160 C   0  0  0  0  0  0  0  0  0  0  0  0
  -19.3410   -1.6100  -29.0480 C   0  0  0  0  0  0  0  0  0  0  0  0
  -19.8640   -2.9480  -29.1510 C   0  0  0  0  0  0  0  0  0  0  0  0
  -19.8870   -3.7450  -28.0670 C   0  0  0  0  0  0  0  0  0  0  0  0
  -19.4080   -3.2950  -26.8230 C   0  0  0  0  0  0  0  0  0  0  0  0
  -18.9040   -2.0220  -26.7070 C   0  0  0  0  0  0  0  0  0  0  0  0
  -18.8720   -1.1830  -27.8320 C   0  0  0  0  0  0  0  0  0  0  0  0
  -18.2440    0.1610  -27.7470 C   0  0  0  0  0  0  0  0  0  0  0  0
  -17.3260    0.3320  -26.5410 C   0  0  0  0  0  0  0  0  0  0  0  0
  -17.9370   -0.1630  -25.3300 N   0  0  0  0  0  0  0  0  0  0  0  0
  -18.4280   -1.5070  -25.4260 C   0  0  0  0  0  0  0  0  0  0  0  0
  -18.4200   -2.1790  -24.3740 O   0  0  0  0  0  0  0  0  0  0  0  0
  -18.0450    0.6310  -24.1250 C   0  0  0  0  0  0  0  0  0  0  0  0
  -19.4660   -4.1510  -25.7870 O   0  0  0  0  0  0  0  0  0  0  0  0
  -20.4420   -4.9710  -28.4660 O   0  0  0  0  0  0  0  0  0  0  0  0
  -21.0010   -4.8470  -29.7570 C   0  0  0  0  0  0  0  0  0  0  0  0
  -20.4000   -3.6580  -30.2300 O   0  0  0  0  0  0  0  0  0  0  0  0
  -23.1510   -1.3570  -35.4080 H   0  0  0  0  0  0  0  0  0  0  0  0
  -19.2150   -2.1950  -34.2450 H   0  0  0  0  0  0  0  0  0  0  0  0
  -21.1580    1.1710  -32.5410 H   0  0  0  0  0  0  0  0  0  0  0  0
  -17.6410   -1.5800  -31.4930 H   0  0  0  0  0  0  0  0  0  0  0  0
  -19.4720    0.2340  -30.0930 H   0  0  0  0  0  0  0  0  0  0  0  0
  -20.5000   -1.0200  -30.7470 H   0  0  0  0  0  0  0  0  0  0  0  0
  -18.9640    0.9840  -27.6960 H   0  0  0  0  0  0  0  0  0  0  0  0
  -17.5450    0.3230  -28.6030 H   0  0  0  0  0  0  0  0  0  0  0  0
  -17.1240    1.4310  -26.4810 H   0  0  0  0  0  0  0  0  0  0  0  0
  -16.3960   -0.2320  -26.7730 H   0  0  0  0  0  0  0  0  0  0  0  0
  -18.8800    1.3540  -24.2970 H   0  0  0  0  0  0  0  0  0  0  0  0
  -17.1210    1.2180  -23.9710 H   0  0  0  0  0  0  0  0  0  0  0  0
  -18.3250   -0.0110  -23.2810 H   0  0  0  0  0  0  0  0  0  0  0  0
  -20.0190   -4.9210  -25.6240 H   0  0  0  0  0  0  0  0  0  0  0  0
  -20.7600   -5.7190  -30.3990 H   0  0  0  0  0  0  0  0  0  0  0  0
  -22.0920   -4.7560  -29.6350 H   0  0  0  0  0  0  0  0  0  0  0  0
  2  1  1  0  0  0  0
  2  7  1  0  0  0  0
  3  2  2  0  0  0  0
  4  3  1  0  0  0  0
  4  5  2  0  0  0  0
  5  6  1  0  0  0  0
  6  7  2  0  0  0  0
  6  8  1  0  0  0  0
  7 30  1  0  0  0  0
  8 10  1  0  0  0  0
  9  8  2  0  0  0  0
 10 11  1  0  0  0  0
 11 32  1  0  0  0  0
 11 12  1  0  0  0  0
 12 17  1  0  0  0  0
 13 12  2  0  0  0  0
 13 14  1  0  0  0  0
 14 15  2  0  0  0  0
 15 16  1  0  0  0  0
 15 24  1  0  0  0  0
 16 21  1  0  0  0  0
 17 18  1  0  0  0  0
 17 16  2  0  0  0  0
 18 34  1  0  0  0  0
 18 19  1  0  0  0  0
 19 36  1  0  0  0  0
 19 20  1  0  0  0  0
 20 23  1  0  0  0  0
 21 20  1  0  0  0  0
 21 22  2  0  0  0  0
 23 39  1  0  0  0  0
 23 40  1  0  0  0  0
 24 41  1  0  0  0  0
 25 14  1  0  0  0  0
 26 43  1  0  0  0  0
 26 25  1  0  0  0  0
 27 26  1  0  0  0  0
 27 13  1  0  0  0  0
 28  3  1  0  0  0  0
 29  5  1  0  0  0  0
 31 10  1  0  0  0  0
 33 11  1  0  0  0  0
 35 18  1  0  0  0  0
 37 19  1  0  0  0  0
 38 23  1  0  0  0  0
 42 26  1  0  0  0  0
M  END
>  <Pose>
1

>  <Score>
-8.12

$$$$
