
 OpenBabel03222201593D

 38 41  0  0  1  0  0  0  0  0999 V2000
  -21.3270    6.4720  -34.1940 Cl  0  0  0  0  0  0  0  0  0  0  0  0
  -20.2830    5.0710  -34.0790 C   0  0  0  0  0  0  0  0  0  0  0  0
  -20.6760    3.8460  -34.6170 C   0  0  0  0  0  0  0  0  0  0  0  0
  -19.8930    2.7320  -34.5480 C   0  0  0  0  0  0  0  0  0  0  0  0
  -18.6680    2.8750  -33.9100 C   0  0  0  0  0  0  0  0  0  0  0  0
  -18.2610    4.0770  -33.3730 C   0  0  0  0  0  0  0  0  0  0  0  0
  -19.0670    5.1900  -33.4530 C   0  0  0  0  0  0  0  0  0  0  0  0
  -20.5930    1.6100  -35.2060 C   0  0  2  0  0  0  0  0  0  0  0  0
  -20.8780    0.5160  -34.2080 C   0  0  0  0  0  0  0  0  0  0  0  0
  -20.4870   -0.7180  -34.3620 C   0  0  0  0  0  0  0  0  0  0  0  0
  -19.7460   -1.1330  -35.5070 N   0  0  0  0  0  0  0  0  0  0  0  0
  -19.4340   -0.1680  -36.4960 C   0  0  0  0  0  0  0  0  0  0  0  0
  -19.8230    1.0780  -36.3510 C   0  0  0  0  0  0  0  0  0  0  0  0
  -19.4810    2.0380  -37.3910 C   0  0  0  0  0  0  0  0  0  0  0  0
  -19.2190    2.7920  -38.2280 N   0  0  0  0  0  0  0  0  0  0  0  0
  -18.6950   -0.5090  -37.6720 N   0  0  0  0  0  0  0  0  0  0  0  0
  -20.9390   -1.5110  -33.2010 C   0  0  0  0  0  0  0  0  0  0  0  0
  -21.6100   -0.6330  -32.3850 O   0  0  0  0  0  0  0  0  0  0  0  0
  -21.6060    0.6220  -32.9490 C   0  0  0  0  0  0  0  0  0  0  0  0
  -22.1290    1.6950  -32.4860 O   0  0  0  0  0  0  0  0  0  0  0  0
  -19.7380   -2.1660  -32.5550 C   0  0  0  0  0  0  0  0  0  0  0  0
  -21.8960   -2.6160  -33.6090 C   0  0  0  0  0  0  0  0  0  0  0  0
  -21.8740    2.1950  -35.6670 C   0  0  0  0  0  0  0  0  0  0  0  0
  -22.8100    1.5840  -36.2950 O   0  0  0  0  0  0  0  0  0  0  0  0
  -21.8890    3.5530  -35.2900 N   0  0  0  0  0  0  0  0  0  0  0  0
  -18.0080    2.0300  -33.8260 H   0  0  0  0  0  0  0  0  0  0  0  0
  -17.3010    4.1980  -32.8700 H   0  0  0  0  0  0  0  0  0  0  0  0
  -18.7760    6.1470  -33.0410 H   0  0  0  0  0  0  0  0  0  0  0  0
  -19.4300   -2.1180  -35.6370 H   0  0  0  0  0  0  0  0  0  0  0  0
  -18.7000   -1.4710  -38.0360 H   0  0  0  0  0  0  0  0  0  0  0  0
  -18.1600    0.2300  -38.1440 H   0  0  0  0  0  0  0  0  0  0  0  0
  -20.0000   -2.6460  -31.5950 H   0  0  0  0  0  0  0  0  0  0  0  0
  -18.8600   -1.5130  -32.5140 H   0  0  0  0  0  0  0  0  0  0  0  0
  -19.4520   -3.0180  -33.2400 H   0  0  0  0  0  0  0  0  0  0  0  0
  -22.6300   -2.1280  -34.3100 H   0  0  0  0  0  0  0  0  0  0  0  0
  -22.4260   -2.9360  -32.6900 H   0  0  0  0  0  0  0  0  0  0  0  0
  -21.3940   -3.4800  -34.0480 H   0  0  0  0  0  0  0  0  0  0  0  0
  -22.6960    4.2160  -35.4980 H   0  0  0  0  0  0  0  0  0  0  0  0
  1  2  1  0  0  0  0
  2  7  1  0  0  0  0
  3  4  1  0  0  0  0
  3  2  2  0  0  0  0
  4  5  2  0  0  0  0
  5 26  1  0  0  0  0
  5  6  1  0  0  0  0
  6 27  1  0  0  0  0
  7  6  2  0  0  0  0
  7 28  1  0  0  0  0
  8 13  1  6  0  0  0
  8  4  1  0  0  0  0
  8  9  1  0  0  0  0
  9 19  1  0  0  0  0
 10  9  2  0  0  0  0
 10 17  1  0  0  0  0
 11 10  1  0  0  0  0
 12 13  2  0  0  0  0
 12 11  1  0  0  0  0
 14 13  1  0  0  0  0
 15 14  3  0  0  0  0
 16 12  1  0  0  0  0
 17 21  1  0  0  0  0
 17 18  1  0  0  0  0
 19 20  2  0  0  0  0
 19 18  1  0  0  0  0
 21 33  1  0  0  0  0
 21 32  1  0  0  0  0
 22 17  1  0  0  0  0
 22 36  1  0  0  0  0
 23 25  1  0  0  0  0
 23  8  1  0  0  0  0
 24 23  2  0  0  0  0
 25  3  1  0  0  0  0
 29 11  1  0  0  0  0
 30 16  1  0  0  0  0
 31 16  1  0  0  0  0
 34 21  1  0  0  0  0
 35 22  1  0  0  0  0
 37 22  1  0  0  0  0
 38 25  1  0  0  0  0
M  END
>  <Pose>
1

>  <Score>
-5.39

$$$$
