
 OpenBabel03222201593D

 56 59  0  0  1  0  0  0  0  0999 V2000
  -20.4640   -0.0580  -28.8350 Cl  0  0  0  0  0  0  0  0  0  0  0  0
  -19.5810   -0.0890  -30.3630 C   0  0  0  0  0  0  0  0  0  0  0  0
  -20.2210    0.3200  -31.4880 C   0  0  0  0  0  0  0  0  0  0  0  0
  -19.4960    0.2820  -32.6840 C   0  0  0  0  0  0  0  0  0  0  0  0
  -18.2140   -0.1410  -32.7400 C   0  0  0  0  0  0  0  0  0  0  0  0
  -17.8190   -0.0560  -34.0470 N   0  0  0  0  0  0  0  0  0  0  0  0
  -18.8090    0.4050  -34.8140 C   0  0  0  0  0  0  0  0  0  0  0  0
  -19.8900    0.6270  -33.9620 C   0  0  0  0  0  0  0  0  0  0  0  0
  -18.8660    0.6280  -36.2330 C   0  0  0  0  0  0  0  0  0  0  0  0
  -18.5860   -0.4710  -36.9470 O   0  0  0  0  0  0  0  0  0  0  0  0
  -19.1480    1.7270  -37.0150 N   0  0  0  0  0  0  0  0  0  0  0  0
  -19.4940    1.3280  -38.4080 C   0  0  0  0  0  0  0  0  0  0  0  0
  -20.9910    1.1040  -38.4990 C   0  0  0  0  0  0  0  0  0  0  0  0
  -21.6290    1.8430  -37.3860 C   0  0  1  0  0  0  0  0  0  0  0  0
  -21.3280    3.3050  -37.4630 C   0  0  2  0  0  0  0  0  0  0  0  0
  -20.4900    3.6310  -36.2140 C   0  0  0  0  0  0  0  0  0  0  0  0
  -19.0960    3.0720  -36.5560 C   0  0  0  0  0  0  0  0  0  0  0  0
  -22.4600    4.1140  -37.5340 O   0  0  0  0  0  0  0  0  0  0  0  0
  -23.0230    1.6350  -37.1490 N   0  0  0  0  0  0  0  0  0  0  0  0
  -23.3280    0.6800  -36.1140 C   0  0  0  0  0  0  0  0  0  0  0  0
  -22.8700   -0.6840  -36.4650 C   0  0  0  0  0  0  0  0  0  0  0  0
  -23.4880   -1.0120  -37.7550 N   0  0  0  0  0  0  0  0  0  0  0  0
  -24.3570   -0.0070  -38.3080 C   0  0  0  0  0  0  0  0  0  0  0  0
  -23.7790    1.3770  -38.3440 C   0  0  0  0  0  0  0  0  0  0  0  0
  -23.2260   -2.2740  -38.3710 C   0  0  0  0  0  0  0  0  0  0  0  0
  -23.6840   -3.3060  -37.8630 O   0  0  0  0  0  0  0  0  0  0  0  0
  -22.4000   -2.3000  -39.6190 C   0  0  0  0  0  0  0  0  0  0  0  0
  -17.5820   -0.5510  -31.5970 C   0  0  0  0  0  0  0  0  0  0  0  0
  -18.2720   -0.5250  -30.3940 C   0  0  0  0  0  0  0  0  0  0  0  0
  -21.2360    0.6590  -31.4760 H   0  0  0  0  0  0  0  0  0  0  0  0
  -16.8630   -0.3150  -34.3220 H   0  0  0  0  0  0  0  0  0  0  0  0
  -20.8430    1.0030  -34.2730 H   0  0  0  0  0  0  0  0  0  0  0  0
  -18.9960    0.3940  -38.6760 H   0  0  0  0  0  0  0  0  0  0  0  0
  -19.1150    2.1190  -39.0730 H   0  0  0  0  0  0  0  0  0  0  0  0
  -21.2460    0.0350  -38.5570 H   0  0  0  0  0  0  0  0  0  0  0  0
  -21.2610    1.5520  -39.5080 H   0  0  0  0  0  0  0  0  0  0  0  0
  -21.1400    1.3920  -36.4410 H   0  0  0  0  0  0  0  0  0  0  0  0
  -20.6720    3.6000  -38.3250 H   0  0  0  0  0  0  0  0  0  0  0  0
  -20.4290    4.6920  -36.0150 H   0  0  0  0  0  0  0  0  0  0  0  0
  -20.9290    3.0130  -35.3980 H   0  0  0  0  0  0  0  0  0  0  0  0
  -18.4240    3.3210  -35.7630 H   0  0  0  0  0  0  0  0  0  0  0  0
  -18.7660    3.7540  -37.4300 H   0  0  0  0  0  0  0  0  0  0  0  0
  -22.5290    4.5620  -36.6300 H   0  0  0  0  0  0  0  0  0  0  0  0
  -24.4450    0.6880  -35.9950 H   0  0  0  0  0  0  0  0  0  0  0  0
  -22.8910    1.0530  -35.1520 H   0  0  0  0  0  0  0  0  0  0  0  0
  -21.7830   -0.7740  -36.4770 H   0  0  0  0  0  0  0  0  0  0  0  0
  -23.3110   -1.3810  -35.7060 H   0  0  0  0  0  0  0  0  0  0  0  0
  -25.2970   -0.0360  -37.6940 H   0  0  0  0  0  0  0  0  0  0  0  0
  -24.6840   -0.3090  -39.3530 H   0  0  0  0  0  0  0  0  0  0  0  0
  -24.6400    2.0920  -38.3630 H   0  0  0  0  0  0  0  0  0  0  0  0
  -23.2260    1.5710  -39.2810 H   0  0  0  0  0  0  0  0  0  0  0  0
  -22.1750   -1.2730  -39.9440 H   0  0  0  0  0  0  0  0  0  0  0  0
  -21.4540   -2.8630  -39.3910 H   0  0  0  0  0  0  0  0  0  0  0  0
  -22.9500   -2.8450  -40.3860 H   0  0  0  0  0  0  0  0  0  0  0  0
  -16.5540   -0.8920  -31.6050 H   0  0  0  0  0  0  0  0  0  0  0  0
  -17.8280   -0.8350  -29.4650 H   0  0  0  0  0  0  0  0  0  0  0  0
  2  1  1  0  0  0  0
  3 30  1  0  0  0  0
  3  2  2  0  0  0  0
  4  3  1  0  0  0  0
  5  4  2  0  0  0  0
  5 28  1  0  0  0  0
  6  5  1  0  0  0  0
  7  6  1  0  0  0  0
  7  8  2  0  0  0  0
  8  4  1  0  0  0  0
  9  7  1  0  0  0  0
 10  9  2  0  0  0  0
 11 17  1  0  0  0  0
 11  9  1  0  0  0  0
 12 11  1  0  0  0  0
 13 12  1  0  0  0  0
 13 14  1  0  0  0  0
 14 19  1  0  0  0  0
 14 37  1  1  0  0  0
 15 38  1  6  0  0  0
 15 14  1  0  0  0  0
 15 16  1  0  0  0  0
 16 39  1  0  0  0  0
 16 40  1  0  0  0  0
 17 16  1  0  0  0  0
 17 41  1  0  0  0  0
 18 15  1  0  0  0  0
 18 43  1  0  0  0  0
 19 20  1  0  0  0  0
 20 44  1  0  0  0  0
 20 45  1  0  0  0  0
 21 20  1  0  0  0  0
 21 47  1  0  0  0  0
 22 21  1  0  0  0  0
 23 22  1  0  0  0  0
 23 48  1  0  0  0  0
 24 23  1  0  0  0  0
 24 19  1  0  0  0  0
 25 26  2  0  0  0  0
 25 22  1  0  0  0  0
 27 53  1  0  0  0  0
 27 25  1  0  0  0  0
 28 29  2  0  0  0  0
 29  2  1  0  0  0  0
 29 56  1  0  0  0  0
 31  6  1  0  0  0  0
 32  8  1  0  0  0  0
 33 12  1  0  0  0  0
 34 12  1  0  0  0  0
 35 13  1  0  0  0  0
 36 13  1  0  0  0  0
 42 17  1  0  0  0  0
 46 21  1  0  0  0  0
 49 23  1  0  0  0  0
 50 24  1  0  0  0  0
 51 24  1  0  0  0  0
 52 27  1  0  0  0  0
 54 27  1  0  0  0  0
 55 28  1  0  0  0  0
M  END
>  <Pose>
1

>  <Score>
-6.29

$$$$
