
 OpenBabel03222201593D

 41 45  0  0  1  0  0  0  0  0999 V2000
  -23.8330    0.2780  -36.7990 Cl  0  0  0  0  0  0  0  0  0  0  0  0
  -22.8170   -0.1010  -35.4040 C   0  0  0  0  0  0  0  0  0  0  0  0
  -22.9180    0.6040  -34.2290 C   0  0  0  0  0  0  0  0  0  0  0  0
  -22.1090    0.2780  -33.1540 C   0  0  0  0  0  0  0  0  0  0  0  0
  -21.1860   -0.7380  -33.2010 C   0  0  0  0  0  0  0  0  0  0  0  0
  -21.0830   -1.4490  -34.3830 C   0  0  0  0  0  0  0  0  0  0  0  0
  -21.8970   -1.1230  -35.4650 C   0  0  0  0  0  0  0  0  0  0  0  0
  -20.3460   -1.0860  -32.0970 N   0  0  0  0  0  0  0  0  0  0  0  0
  -19.5150   -0.2590  -31.2950 C   0  0  0  0  0  0  0  0  0  0  0  0
  -19.4630    0.9980  -31.3570 O   0  0  0  0  0  0  0  0  0  0  0  0
  -18.6960   -1.0930  -30.3540 C   0  0  1  0  0  0  0  0  0  0  0  0
  -18.9290   -0.6900  -28.9360 C   0  0  2  0  0  0  0  0  0  0  0  0
  -19.2220   -1.9020  -28.2630 O   0  0  0  0  0  0  0  0  0  0  0  0
  -20.2620   -2.3160  -29.1350 C   0  0  2  0  0  0  0  0  0  0  0  0
  -19.4370   -2.4370  -30.4120 C   0  0  1  0  0  0  0  0  0  0  0  0
  -20.2320   -2.4250  -31.6310 C   0  0  0  0  0  0  0  0  0  0  0  0
  -20.7290   -3.4490  -32.1650 O   0  0  0  0  0  0  0  0  0  0  0  0
  -21.1140   -1.1040  -29.1320 C   0  0  0  0  0  0  0  0  0  0  0  0
  -20.2890   -0.0660  -28.8790 C   0  0  0  0  0  0  0  0  0  0  0  0
  -20.9360   -3.5580  -28.7240 C   0  0  0  0  0  0  0  0  0  0  0  0
  -17.8750    0.0960  -28.2820 C   0  0  0  0  0  0  0  0  0  0  0  0
  -18.4640    1.2020  -27.6660 O   0  0  0  0  0  0  0  0  0  0  0  0
  -18.8470    0.8360  -26.4010 C   0  0  0  0  0  0  0  0  0  0  0  0
  -17.8810   -0.2700  -26.0680 C   0  0  0  0  0  0  0  0  0  0  0  0
  -17.3000   -0.6550  -27.2560 O   0  0  0  0  0  0  0  0  0  0  0  0
  -23.6280    1.4010  -34.1580 H   0  0  0  0  0  0  0  0  0  0  0  0
  -22.1720    0.8230  -32.2060 H   0  0  0  0  0  0  0  0  0  0  0  0
  -20.3670   -2.2580  -34.4640 H   0  0  0  0  0  0  0  0  0  0  0  0
  -21.8300   -1.6690  -36.3910 H   0  0  0  0  0  0  0  0  0  0  0  0
  -17.6540   -1.1780  -30.6570 H   0  0  0  0  0  0  0  0  0  0  0  0
  -18.7590   -3.2800  -30.3000 H   0  0  0  0  0  0  0  0  0  0  0  0
  -22.1760   -0.9730  -29.2890 H   0  0  0  0  0  0  0  0  0  0  0  0
  -20.5210    0.9680  -28.6830 H   0  0  0  0  0  0  0  0  0  0  0  0
  -20.5660   -4.4790  -29.2320 H   0  0  0  0  0  0  0  0  0  0  0  0
  -22.0460   -3.5250  -28.9110 H   0  0  0  0  0  0  0  0  0  0  0  0
  -20.8530   -3.7790  -27.6270 H   0  0  0  0  0  0  0  0  0  0  0  0
  -17.0860    0.3720  -28.9810 H   0  0  0  0  0  0  0  0  0  0  0  0
  -18.7000    1.7370  -25.7380 H   0  0  0  0  0  0  0  0  0  0  0  0
  -19.9020    0.5540  -26.2920 H   0  0  0  0  0  0  0  0  0  0  0  0
  -18.4820   -1.0850  -25.5880 H   0  0  0  0  0  0  0  0  0  0  0  0
  -17.1420    0.1610  -25.3430 H   0  0  0  0  0  0  0  0  0  0  0  0
  1  2  1  0  0  0  0
  2  3  1  0  0  0  0
  3 26  1  0  0  0  0
  3  4  2  0  0  0  0
  4 27  1  0  0  0  0
  5  4  1  0  0  0  0
  5  8  1  0  0  0  0
  6  5  2  0  0  0  0
  7  2  2  0  0  0  0
  7  6  1  0  0  0  0
  8 16  1  0  0  0  0
  8  9  1  0  0  0  0
  9 11  1  0  0  0  0
 10  9  2  0  0  0  0
 11 30  1  6  0  0  0
 11 12  1  0  0  0  0
 12 19  1  0  0  0  0
 12 21  1  1  0  0  0
 12 13  1  0  0  0  0
 14 18  1  0  0  0  0
 14 20  1  1  0  0  0
 14 13  1  0  0  0  0
 15 11  1  0  0  0  0
 15 31  1  1  0  0  0
 15 14  1  0  0  0  0
 16 15  1  0  0  0  0
 17 16  2  0  0  0  0
 18 19  2  0  0  0  0
 19 33  1  0  0  0  0
 20 36  1  0  0  0  0
 21 22  1  0  0  0  0
 21 25  1  0  0  0  0
 22 23  1  0  0  0  0
 23 39  1  0  0  0  0
 23 24  1  0  0  0  0
 23 38  1  0  0  0  0
 24 40  1  0  0  0  0
 24 41  1  0  0  0  0
 25 24  1  0  0  0  0
 28  6  1  0  0  0  0
 29  7  1  0  0  0  0
 32 18  1  0  0  0  0
 34 20  1  0  0  0  0
 35 20  1  0  0  0  0
 37 21  1  0  0  0  0
M  END
>  <Pose>
1

>  <Score>
-4.04

$$$$
