
 OpenBabel03222201593D

 49 52  0  0  0  0  0  0  0  0999 V2000
  -25.1970    8.5920  -29.0630 Cl  0  0  0  0  0  0  0  0  0  0  0  0
  -23.5350    8.1090  -29.4220 C   0  0  0  0  0  0  0  0  0  0  0  0
  -23.1240    7.9340  -30.7190 C   0  0  0  0  0  0  0  0  0  0  0  0
  -21.8150    7.5530  -30.9150 C   0  0  0  0  0  0  0  0  0  0  0  0
  -20.9380    7.3500  -29.8520 C   0  0  0  0  0  0  0  0  0  0  0  0
  -21.4010    7.5390  -28.5580 C   0  0  0  0  0  0  0  0  0  0  0  0
  -22.7070    7.9200  -28.3480 C   0  0  0  0  0  0  0  0  0  0  0  0
  -19.5900    6.9560  -30.0860 N   0  0  0  0  0  0  0  0  0  0  0  0
  -19.1600    5.6510  -30.3810 C   0  0  0  0  0  0  0  0  0  0  0  0
  -19.0550    5.3290  -31.5960 O   0  0  0  0  0  0  0  0  0  0  0  0
  -18.8440    4.6870  -29.4040 N   0  0  0  0  0  0  0  0  0  0  0  0
  -18.5630    4.9200  -28.0620 N   0  0  0  0  0  0  0  0  0  0  0  0
  -17.5710    4.1300  -27.4330 C   0  0  0  0  0  0  0  0  0  0  0  0
  -16.4420    4.6500  -27.1630 O   0  0  0  0  0  0  0  0  0  0  0  0
  -17.8590    2.7450  -27.1150 C   0  0  0  0  0  0  0  0  0  0  0  0
  -18.3580    1.8760  -27.9600 N   0  0  0  0  0  0  0  0  0  0  0  0
  -18.5310    0.6360  -27.4000 N   0  0  0  0  0  0  0  0  0  0  0  0
  -18.0870    0.7560  -26.0470 C   0  0  0  0  0  0  0  0  0  0  0  0
  -18.0230   -0.0880  -25.0610 N   0  0  0  0  0  0  0  0  0  0  0  0
  -17.5280    0.2880  -23.7840 N   0  0  0  0  0  0  0  0  0  0  0  0
  -17.0790    1.5930  -23.5140 C   0  0  0  0  0  0  0  0  0  0  0  0
  -16.6070    1.9570  -22.3290 C   0  0  0  0  0  0  0  0  0  0  0  0
  -17.1450    2.5570  -24.6070 C   0  0  0  0  0  0  0  0  0  0  0  0
  -16.7570    3.7090  -24.3920 O   0  0  0  0  0  0  0  0  0  0  0  0
  -17.6560    2.1030  -25.8620 N   0  0  0  0  0  0  0  0  0  0  0  0
  -19.0050   -0.5330  -28.0630 C   0  0  0  0  0  0  0  0  0  0  0  0
  -19.4600   -1.6210  -27.3590 C   0  0  0  0  0  0  0  0  0  0  0  0
  -19.9710   -2.7660  -27.9540 C   0  0  0  0  0  0  0  0  0  0  0  0
  -20.0410   -2.8530  -29.3300 C   0  0  0  0  0  0  0  0  0  0  0  0
  -19.5870   -1.7740  -30.0580 C   0  0  0  0  0  0  0  0  0  0  0  0
  -19.0780   -0.6370  -29.4330 C   0  0  0  0  0  0  0  0  0  0  0  0
  -20.6180   -4.0520  -30.0100 C   0  0  0  0  0  0  0  0  0  0  0  0
  -23.8030    8.0900  -31.5600 H   0  0  0  0  0  0  0  0  0  0  0  0
  -21.4380    7.3990  -31.9310 H   0  0  0  0  0  0  0  0  0  0  0  0
  -20.6860    7.3760  -27.7540 H   0  0  0  0  0  0  0  0  0  0  0  0
  -23.0480    8.0710  -27.3160 H   0  0  0  0  0  0  0  0  0  0  0  0
  -18.8830    7.7300  -30.0220 H   0  0  0  0  0  0  0  0  0  0  0  0
  -18.8160    3.6500  -29.6760 H   0  0  0  0  0  0  0  0  0  0  0  0
  -19.0790    5.6640  -27.5710 H   0  0  0  0  0  0  0  0  0  0  0  0
  -17.5200   -0.4670  -23.0620 H   0  0  0  0  0  0  0  0  0  0  0  0
  -16.5310    1.2850  -21.4910 H   0  0  0  0  0  0  0  0  0  0  0  0
  -16.2630    2.9720  -22.1630 H   0  0  0  0  0  0  0  0  0  0  0  0
  -19.4090   -1.5590  -26.2630 H   0  0  0  0  0  0  0  0  0  0  0  0
  -20.3170   -3.6010  -27.3700 H   0  0  0  0  0  0  0  0  0  0  0  0
  -19.6420   -1.8590  -31.1420 H   0  0  0  0  0  0  0  0  0  0  0  0
  -18.7250    0.1970  -30.0360 H   0  0  0  0  0  0  0  0  0  0  0  0
  -19.9430   -4.9100  -30.0470 H   0  0  0  0  0  0  0  0  0  0  0  0
  -20.9650   -3.8280  -31.0260 H   0  0  0  0  0  0  0  0  0  0  0  0
  -21.5550   -4.3790  -29.4600 H   0  0  0  0  0  0  0  0  0  0  0  0
  2  1  1  0  0  0  0
  2  7  1  0  0  0  0
  3  2  2  0  0  0  0
  4  3  1  0  0  0  0
  4  5  2  0  0  0  0
  5  6  1  0  0  0  0
  6  7  2  0  0  0  0
  6 35  1  0  0  0  0
  7 36  1  0  0  0  0
  8 37  1  0  0  0  0
  8  5  1  0  0  0  0
  9  8  1  0  0  0  0
  9 11  1  0  0  0  0
 10  9  2  0  0  0  0
 11 12  1  0  0  0  0
 12 39  1  0  0  0  0
 12 13  1  0  0  0  0
 13 14  2  0  0  0  0
 13 15  1  0  0  0  0
 15 25  1  0  0  0  0
 16 17  1  0  0  0  0
 16 15  2  0  0  0  0
 17 18  1  0  0  0  0
 18 25  1  0  0  0  0
 18 19  2  0  0  0  0
 19 20  1  0  0  0  0
 20 21  1  0  0  0  0
 20 40  1  0  0  0  0
 21 22  2  0  0  0  0
 22 42  1  0  0  0  0
 22 41  1  0  0  0  0
 23 24  2  0  0  0  0
 23 21  1  0  0  0  0
 25 23  1  0  0  0  0
 26 17  1  0  0  0  0
 26 27  1  0  0  0  0
 27 43  1  0  0  0  0
 28 44  1  0  0  0  0
 28 27  2  0  0  0  0
 29 28  1  0  0  0  0
 30 31  1  0  0  0  0
 30 29  2  0  0  0  0
 31 26  2  0  0  0  0
 32 49  1  0  0  0  0
 32 29  1  0  0  0  0
 33  3  1  0  0  0  0
 34  4  1  0  0  0  0
 38 11  1  0  0  0  0
 45 30  1  0  0  0  0
 46 31  1  0  0  0  0
 47 32  1  0  0  0  0
 48 32  1  0  0  0  0
M  END
>  <Pose>
1

>  <Score>
-8.35

$$$$
