
 OpenBabel03222201593D

 42 45  0  0  0  0  0  0  0  0999 V2000
  -18.2770   -1.6980  -25.1420 Cl  0  0  0  0  0  0  0  0  0  0  0  0
  -18.8260   -1.3820  -26.7760 C   0  0  0  0  0  0  0  0  0  0  0  0
  -19.4420   -2.3840  -27.4960 C   0  0  0  0  0  0  0  0  0  0  0  0
  -19.8560   -2.0730  -28.7860 C   0  0  0  0  0  0  0  0  0  0  0  0
  -19.6830   -0.8400  -29.3630 C   0  0  0  0  0  0  0  0  0  0  0  0
  -19.0690    0.1430  -28.6290 C   0  0  0  0  0  0  0  0  0  0  0  0
  -18.6520   -0.1440  -27.3510 C   0  0  0  0  0  0  0  0  0  0  0  0
  -20.1450   -0.5810  -30.7260 C   0  0  0  0  0  0  0  0  0  0  0  0
  -19.6590   -1.4490  -31.7280 N   0  0  0  0  0  0  0  0  0  0  0  0
  -20.3520   -2.6540  -31.9520 C   0  0  0  0  0  0  0  0  0  0  0  0
  -21.4120   -2.6300  -33.0200 C   0  0  0  0  0  0  0  0  0  0  0  0
  -21.0640   -1.4950  -33.9150 N   0  0  0  0  0  0  0  0  0  0  0  0
  -19.6760   -1.3550  -34.1450 C   0  0  0  0  0  0  0  0  0  0  0  0
  -19.0560   -0.8230  -32.8710 C   0  0  0  0  0  0  0  0  0  0  0  0
  -22.1420   -0.7460  -34.4310 C   0  0  0  0  0  0  0  0  0  0  0  0
  -22.9370   -0.0420  -33.5700 N   0  0  0  0  0  0  0  0  0  0  0  0
  -24.0000    0.6700  -33.9200 C   0  0  0  0  0  0  0  0  0  0  0  0
  -24.3380    0.7180  -35.2200 N   0  0  0  0  0  0  0  0  0  0  0  0
  -23.5890    0.0420  -36.1200 C   0  0  0  0  0  0  0  0  0  0  0  0
  -23.6760   -0.0820  -37.4570 N   0  0  0  0  0  0  0  0  0  0  0  0
  -22.6810   -0.8550  -37.8920 C   0  0  0  0  0  0  0  0  0  0  0  0
  -21.9220   -1.2520  -36.8550 N   0  0  0  0  0  0  0  0  0  0  0  0
  -22.4700   -0.7100  -35.7560 C   0  0  0  0  0  0  0  0  0  0  0  0
  -24.7960    1.3910  -32.9560 N   0  0  0  0  0  0  0  0  0  0  0  0
  -19.5950   -3.3720  -27.0710 H   0  0  0  0  0  0  0  0  0  0  0  0
  -20.3360   -2.9040  -29.3070 H   0  0  0  0  0  0  0  0  0  0  0  0
  -18.9050    1.1540  -29.0460 H   0  0  0  0  0  0  0  0  0  0  0  0
  -18.1600    0.6430  -26.7650 H   0  0  0  0  0  0  0  0  0  0  0  0
  -21.2600   -0.5440  -30.8000 H   0  0  0  0  0  0  0  0  0  0  0  0
  -19.8200    0.4690  -30.9880 H   0  0  0  0  0  0  0  0  0  0  0  0
  -20.8090   -3.0010  -31.0290 H   0  0  0  0  0  0  0  0  0  0  0  0
  -19.5960   -3.4410  -32.2400 H   0  0  0  0  0  0  0  0  0  0  0  0
  -22.4340   -2.5570  -32.6560 H   0  0  0  0  0  0  0  0  0  0  0  0
  -21.3360   -3.5260  -33.6720 H   0  0  0  0  0  0  0  0  0  0  0  0
  -19.2640   -2.4270  -34.2270 H   0  0  0  0  0  0  0  0  0  0  0  0
  -19.3350   -0.8900  -35.0570 H   0  0  0  0  0  0  0  0  0  0  0  0
  -19.1070    0.2740  -32.7660 H   0  0  0  0  0  0  0  0  0  0  0  0
  -17.9790   -1.1110  -32.8900 H   0  0  0  0  0  0  0  0  0  0  0  0
  -22.5300   -1.1100  -38.9460 H   0  0  0  0  0  0  0  0  0  0  0  0
  -21.0770   -1.8570  -36.9460 H   0  0  0  0  0  0  0  0  0  0  0  0
  -25.7800    1.6360  -33.1340 H   0  0  0  0  0  0  0  0  0  0  0  0
  -24.3740    1.6760  -32.0510 H   0  0  0  0  0  0  0  0  0  0  0  0
  2  1  1  0  0  0  0
  3 25  1  0  0  0  0
  3  2  2  0  0  0  0
  4  3  1  0  0  0  0
  5  4  2  0  0  0  0
  5  6  1  0  0  0  0
  6  7  2  0  0  0  0
  7  2  1  0  0  0  0
  7 28  1  0  0  0  0
  8  5  1  0  0  0  0
  9  8  1  0  0  0  0
 10  9  1  0  0  0  0
 10 31  1  0  0  0  0
 11 33  1  0  0  0  0
 11 10  1  0  0  0  0
 12 11  1  0  0  0  0
 13 12  1  0  0  0  0
 13 14  1  0  0  0  0
 14 37  1  0  0  0  0
 14  9  1  0  0  0  0
 15 12  1  0  0  0  0
 15 16  1  0  0  0  0
 17 16  2  0  0  0  0
 17 24  1  0  0  0  0
 18 17  1  0  0  0  0
 19 23  1  0  0  0  0
 19 18  2  0  0  0  0
 20 19  1  0  0  0  0
 21 20  2  0  0  0  0
 21 22  1  0  0  0  0
 22 23  1  0  0  0  0
 23 15  2  0  0  0  0
 24 42  1  0  0  0  0
 26  4  1  0  0  0  0
 27  6  1  0  0  0  0
 29  8  1  0  0  0  0
 30  8  1  0  0  0  0
 32 10  1  0  0  0  0
 34 11  1  0  0  0  0
 35 13  1  0  0  0  0
 36 13  1  0  0  0  0
 38 14  1  0  0  0  0
 39 21  1  0  0  0  0
 40 22  1  0  0  0  0
 41 24  1  0  0  0  0
M  END
>  <Pose>
1

>  <Score>
-7.57

$$$$
