
 OpenBabel03222201593D

 54 57  0  0  0  0  0  0  0  0999 V2000
  -23.0410   -1.6640  -35.8830 B   0  0  0  0  0  0  0  0  0  0  0  0
  -21.4430   -0.6260  -35.8980 C   0  0  0  0  0  0  0  0  0  0  0  0
  -20.6080   -0.5910  -34.8030 C   0  0  0  0  0  0  0  0  0  0  0  0
  -19.4550    0.1560  -34.8130 C   0  0  0  0  0  0  0  0  0  0  0  0
  -19.1560    0.8710  -35.9530 C   0  0  0  0  0  0  0  0  0  0  0  0
  -19.9940    0.8440  -37.0700 C   0  0  0  0  0  0  0  0  0  0  0  0
  -21.1550    0.0880  -37.0540 C   0  0  0  0  0  0  0  0  0  0  0  0
  -17.9850    1.6180  -35.9370 O   0  0  0  0  0  0  0  0  0  0  0  0
  -17.9190    2.9810  -36.2880 C   0  0  0  0  0  0  0  0  0  0  0  0
  -18.5630    0.2010  -33.6600 C   0  0  0  0  0  0  0  0  0  0  0  0
  -18.6990   -0.5580  -32.6390 N   0  0  0  0  0  0  0  0  0  0  0  0
  -17.8560   -0.5290  -31.5280 N   0  0  0  0  0  0  0  0  0  0  0  0
  -18.3330   -0.6720  -30.1960 C   0  0  0  0  0  0  0  0  0  0  0  0
  -18.1650    0.2730  -29.2450 N   0  0  0  0  0  4  0  0  0  0  0  0
  -18.6260    0.1070  -28.0000 C   0  0  0  0  0  0  0  0  0  0  0  0
  -19.2700   -1.0320  -27.7040 N   0  0  0  0  0  0  0  0  0  0  0  0
  -19.4750   -2.0260  -28.6100 C   0  0  0  0  0  0  0  0  0  0  0  0
  -18.9790   -1.7880  -29.8560 N   0  0  0  0  0  0  0  0  0  0  0  0
  -20.1520   -3.2170  -28.2930 N   0  0  0  0  0  0  0  0  0  0  0  0
  -20.2470   -3.6850  -26.9420 C   0  0  0  0  0  0  0  0  0  0  0  0
  -19.7430   -5.1270  -26.9330 C   0  0  0  0  0  0  0  0  0  0  0  0
  -20.5050   -5.8270  -27.8520 O   0  0  0  0  0  0  0  0  0  0  0  0
  -20.2810   -5.4320  -29.1500 C   0  0  0  0  0  0  0  0  0  0  0  0
  -20.7630   -3.9930  -29.3330 C   0  0  0  0  0  0  0  0  0  0  0  0
  -18.4490    1.1010  -27.0010 N   0  0  0  0  0  0  0  0  0  0  0  0
  -18.4630    2.5150  -27.3040 C   0  0  0  0  0  0  0  0  0  0  0  0
  -17.3690    3.2520  -26.5460 C   0  0  0  0  0  0  0  0  0  0  0  0
  -17.3340    2.8380  -25.2100 O   0  0  0  0  0  0  0  0  0  0  0  0
  -17.0570    1.4970  -25.0990 C   0  0  0  0  0  0  0  0  0  0  0  0
  -18.2460    0.7210  -25.6210 C   0  0  0  0  0  0  0  0  0  0  0  0
  -20.8310   -1.1540  -33.8880 H   0  0  0  0  0  0  0  0  0  0  0  0
  -19.7380    1.4180  -37.9650 H   0  0  0  0  0  0  0  0  0  0  0  0
  -21.7850    0.0820  -37.9270 H   0  0  0  0  0  0  0  0  0  0  0  0
  -17.7050    3.0220  -37.3860 H   0  0  0  0  0  0  0  0  0  0  0  0
  -18.8150    3.5520  -36.0010 H   0  0  0  0  0  0  0  0  0  0  0  0
  -17.0370    3.4350  -35.7830 H   0  0  0  0  0  0  0  0  0  0  0  0
  -17.7410    0.9020  -33.6490 H   0  0  0  0  0  0  0  0  0  0  0  0
  -16.8270   -0.3920  -31.7240 H   0  0  0  0  0  0  0  0  0  0  0  0
  -19.6460   -3.0500  -26.2400 H   0  0  0  0  0  0  0  0  0  0  0  0
  -21.3170   -3.7130  -26.6360 H   0  0  0  0  0  0  0  0  0  0  0  0
  -19.9720   -5.5170  -25.9210 H   0  0  0  0  0  0  0  0  0  0  0  0
  -18.6690   -5.1730  -27.1230 H   0  0  0  0  0  0  0  0  0  0  0  0
  -19.1940   -5.4260  -29.4050 H   0  0  0  0  0  0  0  0  0  0  0  0
  -20.8450   -6.0820  -29.8260 H   0  0  0  0  0  0  0  0  0  0  0  0
  -20.5290   -3.6230  -30.3470 H   0  0  0  0  0  0  0  0  0  0  0  0
  -21.8640   -4.0290  -29.1540 H   0  0  0  0  0  0  0  0  0  0  0  0
  -19.4290    2.9090  -26.8760 H   0  0  0  0  0  0  0  0  0  0  0  0
  -18.3700    2.7290  -28.3730 H   0  0  0  0  0  0  0  0  0  0  0  0
  -16.4210    3.0740  -27.0710 H   0  0  0  0  0  0  0  0  0  0  0  0
  -17.6600    4.3330  -26.5150 H   0  0  0  0  0  0  0  0  0  0  0  0
  -16.1350    1.2800  -25.6780 H   0  0  0  0  0  0  0  0  0  0  0  0
  -16.8430    1.2710  -24.0500 H   0  0  0  0  0  0  0  0  0  0  0  0
  -19.1220    1.0360  -25.0450 H   0  0  0  0  0  0  0  0  0  0  0  0
  -18.1090   -0.3680  -25.5210 H   0  0  0  0  0  0  0  0  0  0  0  0
  2  1  1  0  0  0  0
  2  3  1  0  0  0  0
  3 31  1  0  0  0  0
  4  3  2  0  0  0  0
  4 10  1  0  0  0  0
  5  8  1  0  0  0  0
  5  4  1  0  0  0  0
  6  7  1  0  0  0  0
  6  5  2  0  0  0  0
  7  2  2  0  0  0  0
  9 35  1  0  0  0  0
  9  8  1  0  0  0  0
  9 36  1  0  0  0  0
 10 37  1  0  0  0  0
 10 11  2  0  0  0  0
 11 12  1  0  0  0  0
 12 13  1  0  0  0  0
 13 18  1  0  0  0  0
 13 14  2  0  0  0  0
 14 15  2  0  0  0  0
 15 16  1  0  0  0  0
 15 25  1  0  0  0  0
 17 19  1  0  0  0  0
 17 16  2  0  0  0  0
 18 17  1  0  0  0  0
 19 20  1  0  0  0  0
 20 21  1  0  0  0  0
 20 40  1  0  0  0  0
 20 39  1  0  0  0  0
 21 41  1  0  0  0  0
 22 21  1  0  0  0  0
 23 22  1  0  0  0  0
 24 46  1  0  0  0  0
 24 23  1  0  0  0  0
 24 19  1  0  0  0  0
 25 30  1  0  0  0  0
 26 25  1  0  0  0  0
 26 47  1  0  0  0  0
 26 27  1  0  0  0  0
 27 50  1  0  0  0  0
 27 28  1  0  0  0  0
 28 29  1  0  0  0  0
 29 52  1  0  0  0  0
 30 54  1  0  0  0  0
 30 29  1  0  0  0  0
 30 53  1  0  0  0  0
 32  6  1  0  0  0  0
 33  7  1  0  0  0  0
 34  9  1  0  0  0  0
 38 12  1  0  0  0  0
 42 21  1  0  0  0  0
 43 23  1  0  0  0  0
 44 23  1  0  0  0  0
 45 24  1  0  0  0  0
 48 26  1  0  0  0  0
 49 27  1  0  0  0  0
 51 29  1  0  0  0  0
M  END
>  <Pose>
1

>  <Score>
-7.02

$$$$
