
 OpenBabel03222201593D

 38 41  0  0  1  0  0  0  0  0999 V2000
  -23.5110   -0.2100  -34.7860 B   0  0  0  0  0  0  0  0  0  0  0  0
  -22.3010   -1.4290  -33.9610 C   0  0  0  0  0  0  0  0  0  0  0  0
  -20.9900   -1.0890  -33.7230 C   0  0  0  0  0  0  0  0  0  0  0  0
  -20.0740   -1.9620  -33.1180 C   0  0  0  0  0  0  0  0  0  0  0  0
  -20.5550   -3.1930  -32.7690 C   0  0  0  0  0  0  0  0  0  0  0  0
  -21.8890   -3.5290  -33.0150 C   0  0  0  0  0  0  0  0  0  0  0  0
  -22.7540   -2.6630  -33.6030 C   0  0  0  0  0  0  0  0  0  0  0  0
  -18.7490   -1.5310  -32.9110 N   0  0  0  0  0  0  0  0  0  0  0  0
  -18.2650   -0.9280  -31.7400 C   0  0  0  0  0  0  0  0  0  0  0  0
  -17.0930   -0.9670  -31.3360 O   0  0  0  0  0  0  0  0  0  0  0  0
  -19.2170   -0.1590  -30.8650 C   0  0  2  0  0  0  0  0  0  0  0  0
  -18.6920    0.1060  -29.4780 C   0  0  0  0  0  0  0  0  0  0  0  0
  -19.4060   -1.0670  -28.9520 N   0  0  2  0  0  0  0  0  0  0  0  0
  -20.2260   -1.0070  -30.1470 C   0  0  0  0  0  0  0  0  0  0  0  0
  -19.2750   -1.8500  -27.7720 C   0  0  1  0  0  0  0  0  0  0  0  0
  -18.6690   -1.3760  -26.6530 N   0  0  0  0  0  0  0  0  0  0  0  0
  -18.5570   -2.1480  -25.5330 C   0  0  0  0  0  0  0  0  0  0  0  0
  -19.0390   -3.3940  -25.5000 N   0  0  0  0  0  0  0  0  0  0  0  0
  -19.6470   -3.9240  -26.5630 C   0  0  0  0  0  0  0  0  0  0  0  0
  -20.2060   -5.1310  -26.7780 N   0  0  0  0  0  0  0  0  0  0  0  0
  -20.6600   -5.1150  -28.0130 N   0  0  0  0  0  0  0  0  0  0  0  0
  -20.4070   -3.9340  -28.5890 N   0  0  0  0  0  0  0  0  0  0  0  0
  -19.7590   -3.1420  -27.6940 C   0  0  0  0  0  0  0  0  0  0  0  0
  -20.3070   -6.2560  -25.8520 C   0  0  0  0  0  0  0  0  0  0  0  0
  -20.6530   -0.1010  -34.0160 H   0  0  0  0  0  0  0  0  0  0  0  0
  -19.9100   -3.9350  -32.2930 H   0  0  0  0  0  0  0  0  0  0  0  0
  -22.2200   -4.5310  -32.7140 H   0  0  0  0  0  0  0  0  0  0  0  0
  -23.7900   -2.9480  -33.7840 H   0  0  0  0  0  0  0  0  0  0  0  0
  -18.0620   -1.6860  -33.7370 H   0  0  0  0  0  0  0  0  0  0  0  0
  -19.5880    0.7690  -31.3320 H   0  0  0  0  0  0  0  0  0  0  0  0
  -17.6050   -0.0690  -29.3300 H   0  0  0  0  0  0  0  0  0  0  0  0
  -19.0690    1.0070  -28.9860 H   0  0  0  0  0  0  0  0  0  0  0  0
  -20.3890   -1.9850  -30.6460 H   0  0  0  0  0  0  0  0  0  0  0  0
  -21.1780   -0.5060  -29.9200 H   0  0  0  0  0  0  0  0  0  0  0  0
  -18.0630   -1.7040  -24.6820 H   0  0  0  0  0  0  0  0  0  0  0  0
  -21.1960   -6.8720  -26.0590 H   0  0  0  0  0  0  0  0  0  0  0  0
  -20.4420   -5.8830  -24.7940 H   0  0  0  0  0  0  0  0  0  0  0  0
  -19.4060   -6.8720  -25.8420 H   0  0  0  0  0  0  0  0  0  0  0  0
  1  2  1  0  0  0  0
  2  3  2  0  0  0  0
  2  7  1  0  0  0  0
  3  4  1  0  0  0  0
  4  8  1  0  0  0  0
  4  5  2  0  0  0  0
  5 26  1  0  0  0  0
  6  5  1  0  0  0  0
  6 27  1  0  0  0  0
  7  6  2  0  0  0  0
  8  9  1  0  0  0  0
  9 10  2  0  0  0  0
  9 11  1  0  0  0  0
 11 30  1  6  0  0  0
 11 14  1  0  0  0  0
 11 12  1  0  0  0  0
 12 31  1  0  0  0  0
 12 32  1  0  0  0  0
 12 13  1  0  0  0  0
 13 14  1  1  0  0  0
 13 15  1  0  0  0  0
 14 34  1  0  0  0  0
 15 23  1  1  0  0  0
 15 16  1  0  0  0  0
 16 17  2  0  0  0  0
 17 18  1  0  0  0  0
 17 35  1  0  0  0  0
 19 18  1  0  0  0  0
 20 19  1  0  0  0  0
 20 24  1  0  0  0  0
 21 20  1  0  0  0  0
 22 21  2  0  0  0  0
 22 23  1  0  0  0  0
 23 19  2  0  0  0  0
 24 38  1  0  0  0  0
 24 37  1  0  0  0  0
 25  3  1  0  0  0  0
 28  7  1  0  0  0  0
 29  8  1  0  0  0  0
 33 14  1  0  0  0  0
 36 24  1  0  0  0  0
M  END
>  <Pose>
1

>  <Score>
-7.33

$$$$
