
 OpenBabel03222201593D

 52 56  0  0  0  0  0  0  0  0999 V2000
  -16.9380    2.9210  -24.2930 Cl  0  0  0  0  0  0  0  0  0  0  0  0
  -17.6760    2.0480  -25.6250 C   0  0  0  0  0  0  0  0  0  0  0  0
  -17.8840    0.6770  -25.5670 C   0  0  0  0  0  0  0  0  0  0  0  0
  -18.4660    0.0090  -26.6250 C   0  0  0  0  0  0  0  0  0  0  0  0
  -18.8640    0.6600  -27.7740 C   0  0  0  0  0  0  0  0  0  0  0  0
  -18.6490    2.0420  -27.8180 C   0  0  0  0  0  0  0  0  0  0  0  0
  -18.0680    2.7180  -26.7650 C   0  0  0  0  0  0  0  0  0  0  0  0
  -19.4770   -0.0410  -28.8950 C   0  0  0  0  0  0  0  0  0  0  0  0
  -20.5310    0.4100  -29.3960 O   0  0  0  0  0  0  0  0  0  0  0  0
  -18.8200   -1.2630  -29.3910 C   0  0  0  0  0  0  0  0  0  0  0  0
  -19.6930   -2.1220  -30.1560 N   0  0  0  0  0  0  0  0  0  0  0  0
  -20.0100   -2.0940  -31.4330 N   0  0  0  0  0  0  0  0  0  0  0  0
  -20.8590   -3.0790  -31.7580 C   0  0  0  0  0  0  0  0  0  0  0  0
  -21.1680   -3.0330  -33.0630 N   0  0  0  0  0  0  0  0  0  0  0  0
  -20.5130   -1.9980  -33.6320 C   0  0  0  0  0  0  0  0  0  0  0  0
  -19.7850   -1.4140  -32.5890 C   0  0  0  0  0  0  0  0  0  0  0  0
  -19.0220   -0.3230  -32.9490 C   0  0  0  0  0  0  0  0  0  0  0  0
  -18.3420    0.2380  -32.0380 O   0  0  0  0  0  0  0  0  0  0  0  0
  -18.9630    0.1730  -34.2130 N   0  0  0  0  0  0  0  0  0  0  0  0
  -19.6920   -0.4440  -35.1560 C   0  0  0  0  0  0  0  0  0  0  0  0
  -19.6230    0.0360  -36.3350 O   0  0  0  0  0  0  0  0  0  0  0  0
  -20.4560   -1.5110  -34.8820 N   0  0  0  0  0  0  0  0  0  0  0  0
  -21.2130   -2.1260  -35.9390 C   0  0  0  0  0  0  0  0  0  0  0  0
  -18.1380    1.3230  -34.5070 C   0  0  0  0  0  0  0  0  0  0  0  0
  -21.0740   -3.7560  -30.6010 N   0  0  0  0  0  0  0  0  0  0  0  0
  -20.3680   -3.1830  -29.6170 C   0  0  0  0  0  0  0  0  0  0  0  0
  -20.2940   -3.5630  -28.2460 N   0  0  0  0  0  0  0  0  0  0  0  0
  -20.4160   -2.5900  -27.1740 C   0  0  0  0  0  0  0  0  0  0  0  0
  -19.4350   -2.9730  -26.0940 C   0  0  0  0  0  0  0  0  0  0  0  0
  -19.6650   -4.2950  -25.6820 O   0  0  0  0  0  0  0  0  0  0  0  0
  -19.3270   -5.2020  -26.6630 C   0  0  0  0  0  0  0  0  0  0  0  0
  -20.1000   -4.9490  -27.9090 C   0  0  0  0  0  0  0  0  0  0  0  0
  -17.5840    0.1410  -24.6850 H   0  0  0  0  0  0  0  0  0  0  0  0
  -18.6290   -1.0610  -26.5830 H   0  0  0  0  0  0  0  0  0  0  0  0
  -18.9380    2.6060  -28.6870 H   0  0  0  0  0  0  0  0  0  0  0  0
  -17.8960    3.7950  -26.7920 H   0  0  0  0  0  0  0  0  0  0  0  0
  -18.2610   -1.8120  -28.6470 H   0  0  0  0  0  0  0  0  0  0  0  0
  -18.0270   -0.8780  -30.1070 H   0  0  0  0  0  0  0  0  0  0  0  0
  -21.4200   -1.3520  -36.7180 H   0  0  0  0  0  0  0  0  0  0  0  0
  -22.1720   -2.5280  -35.5250 H   0  0  0  0  0  0  0  0  0  0  0  0
  -20.6760   -2.9980  -36.3530 H   0  0  0  0  0  0  0  0  0  0  0  0
  -17.0600    1.0170  -34.5150 H   0  0  0  0  0  0  0  0  0  0  0  0
  -18.2250    2.0480  -33.6590 H   0  0  0  0  0  0  0  0  0  0  0  0
  -18.4420    1.8540  -35.4100 H   0  0  0  0  0  0  0  0  0  0  0  0
  -21.4390   -2.5910  -26.7390 H   0  0  0  0  0  0  0  0  0  0  0  0
  -20.1530   -1.5630  -27.5200 H   0  0  0  0  0  0  0  0  0  0  0  0
  -18.3900   -2.7950  -26.3500 H   0  0  0  0  0  0  0  0  0  0  0  0
  -19.6720   -2.3440  -25.1970 H   0  0  0  0  0  0  0  0  0  0  0  0
  -18.2330   -5.1620  -26.9120 H   0  0  0  0  0  0  0  0  0  0  0  0
  -19.6070   -6.2100  -26.2860 H   0  0  0  0  0  0  0  0  0  0  0  0
  -21.0920   -5.4550  -27.9250 H   0  0  0  0  0  0  0  0  0  0  0  0
  -19.5330   -5.4290  -28.7540 H   0  0  0  0  0  0  0  0  0  0  0  0
  2  3  1  0  0  0  0
  2  1  1  0  0  0  0
  3 33  1  0  0  0  0
  4 34  1  0  0  0  0
  4  3  2  0  0  0  0
  5  4  1  0  0  0  0
  6  5  2  0  0  0  0
  6  7  1  0  0  0  0
  7  2  2  0  0  0  0
  8  5  1  0  0  0  0
  9  8  2  0  0  0  0
 10  8  1  0  0  0  0
 10 37  1  0  0  0  0
 11 26  1  0  0  0  0
 11 10  1  0  0  0  0
 12 11  1  0  0  0  0
 13 12  1  0  0  0  0
 13 25  1  0  0  0  0
 14 13  2  0  0  0  0
 15 14  1  0  0  0  0
 15 16  2  0  0  0  0
 16 12  1  0  0  0  0
 17 16  1  0  0  0  0
 17 18  2  0  0  0  0
 19 17  1  0  0  0  0
 20 22  1  0  0  0  0
 20 19  1  0  0  0  0
 21 20  2  0  0  0  0
 22 15  1  0  0  0  0
 23 40  1  0  0  0  0
 23 22  1  0  0  0  0
 24 19  1  0  0  0  0
 24 43  1  0  0  0  0
 25 26  2  0  0  0  0
 26 27  1  0  0  0  0
 27 32  1  0  0  0  0
 27 28  1  0  0  0  0
 28 45  1  0  0  0  0
 28 29  1  0  0  0  0
 29 30  1  0  0  0  0
 29 48  1  0  0  0  0
 31 50  1  0  0  0  0
 31 30  1  0  0  0  0
 32 31  1  0  0  0  0
 35  6  1  0  0  0  0
 36  7  1  0  0  0  0
 38 10  1  0  0  0  0
 39 23  1  0  0  0  0
 41 23  1  0  0  0  0
 42 24  1  0  0  0  0
 44 24  1  0  0  0  0
 46 28  1  0  0  0  0
 47 29  1  0  0  0  0
 49 31  1  0  0  0  0
 51 32  1  0  0  0  0
 52 32  1  0  0  0  0
M  END
>  <Pose>
1

>  <Score>
-6.95

$$$$
