
 OpenBabel03222201593D

 51 55  0  0  1  0  0  0  0  0999 V2000
  -21.3880    4.0430  -39.9620 Cl  0  0  0  0  0  0  0  0  0  0  0  0
  -21.6550    3.6430  -38.2790 C   0  0  0  0  0  0  0  0  0  0  0  0
  -21.8820    2.3610  -37.8590 C   0  0  0  0  0  0  0  0  0  0  0  0
  -22.0910    2.0860  -36.5050 C   0  0  0  0  0  0  0  0  0  0  0  0
  -22.0600    3.1290  -35.6290 C   0  0  0  0  0  0  0  0  0  0  0  0
  -21.8270    4.4470  -36.0570 C   0  0  0  0  0  0  0  0  0  0  0  0
  -21.6230    4.7160  -37.3800 C   0  0  0  0  0  0  0  0  0  0  0  0
  -22.2960    2.6300  -34.3160 N   0  0  0  0  0  0  0  0  0  0  0  0
  -22.4790    1.2360  -34.3700 C   0  0  0  0  0  0  0  0  0  0  0  0
  -22.7110    0.5090  -33.3530 O   0  0  0  0  0  0  0  0  0  0  0  0
  -22.3510    0.8340  -35.7750 C   0  0  1  0  0  0  0  0  0  0  0  0
  -23.5790    0.2890  -36.3090 N   0  0  0  0  0  0  0  0  0  0  0  0
  -23.3930   -1.0840  -36.6570 C   0  0  2  0  0  0  0  0  0  0  0  0
  -22.0710   -1.4570  -36.1140 C   0  0  1  0  0  0  0  0  0  0  0  0
  -21.2650   -0.1930  -35.9900 C   0  0  2  0  0  0  0  0  0  0  0  0
  -20.4620   -0.4400  -34.7730 C   0  0  0  0  0  0  0  0  0  0  0  0
  -19.4060    0.1330  -34.4050 O   0  0  0  0  0  0  0  0  0  0  0  0
  -21.0690   -1.4930  -33.9930 N   0  0  0  0  0  0  0  0  0  0  0  0
  -22.2530   -1.8780  -34.6810 C   0  0  0  0  0  0  0  0  0  0  0  0
  -23.2330   -2.4570  -34.1550 O   0  0  0  0  0  0  0  0  0  0  0  0
  -20.5550   -2.0320  -32.7520 C   0  0  0  0  0  0  0  0  0  0  0  0
  -20.5890   -1.0430  -31.6180 C   0  0  1  0  0  0  0  0  0  0  0  0
  -20.8540   -1.7110  -30.4250 O   0  0  0  0  0  0  0  0  0  0  0  0
  -19.6410   -2.0470  -29.8680 C   0  0  0  0  0  0  0  0  0  0  0  0
  -18.6160   -1.0340  -30.3280 C   0  0  0  0  0  0  0  0  0  0  0  0
  -19.3290   -0.2740  -31.4290 C   0  0  0  0  0  0  0  0  0  0  0  0
  -23.5580   -1.3410  -38.1320 C   0  0  0  0  0  0  0  0  0  0  0  0
  -23.4820   -2.7360  -38.5230 C   0  0  0  0  0  0  0  0  0  0  0  0
  -24.4320   -3.5090  -38.2770 O   0  0  0  0  0  0  0  0  0  0  0  0
  -22.3430   -3.2460  -39.1830 N   0  0  0  0  0  0  0  0  0  0  0  0
  -21.9050    1.5510  -38.5430 H   0  0  0  0  0  0  0  0  0  0  0  0
  -21.8150    5.2230  -35.3220 H   0  0  0  0  0  0  0  0  0  0  0  0
  -21.4460    5.7330  -37.6910 H   0  0  0  0  0  0  0  0  0  0  0  0
  -22.3310    3.2020  -33.4190 H   0  0  0  0  0  0  0  0  0  0  0  0
  -23.9120    0.7910  -37.1610 H   0  0  0  0  0  0  0  0  0  0  0  0
  -24.1800   -1.6580  -36.0840 H   0  0  0  0  0  0  0  0  0  0  0  0
  -21.5300   -2.2520  -36.6660 H   0  0  0  0  0  0  0  0  0  0  0  0
  -20.6380    0.0170  -36.8760 H   0  0  0  0  0  0  0  0  0  0  0  0
  -21.1360   -2.9330  -32.4680 H   0  0  0  0  0  0  0  0  0  0  0  0
  -19.5010   -2.3900  -32.9130 H   0  0  0  0  0  0  0  0  0  0  0  0
  -21.4240   -0.3340  -31.7860 H   0  0  0  0  0  0  0  0  0  0  0  0
  -19.7550   -1.9790  -28.7620 H   0  0  0  0  0  0  0  0  0  0  0  0
  -19.3270   -3.0890  -30.0870 H   0  0  0  0  0  0  0  0  0  0  0  0
  -18.3940   -0.3330  -29.5050 H   0  0  0  0  0  0  0  0  0  0  0  0
  -17.7100   -1.5280  -30.7320 H   0  0  0  0  0  0  0  0  0  0  0  0
  -18.7240   -0.1690  -32.3340 H   0  0  0  0  0  0  0  0  0  0  0  0
  -19.5390    0.7840  -31.0910 H   0  0  0  0  0  0  0  0  0  0  0  0
  -24.5820   -0.9570  -38.4050 H   0  0  0  0  0  0  0  0  0  0  0  0
  -22.8580   -0.6740  -38.6820 H   0  0  0  0  0  0  0  0  0  0  0  0
  -22.4500   -3.6830  -40.1280 H   0  0  0  0  0  0  0  0  0  0  0  0
  -21.3820   -3.2230  -38.7930 H   0  0  0  0  0  0  0  0  0  0  0  0
  1  2  1  0  0  0  0
  2  3  2  0  0  0  0
  2  7  1  0  0  0  0
  3  4  1  0  0  0  0
  4  5  2  0  0  0  0
  5  8  1  0  0  0  0
  6  5  1  0  0  0  0
  6 32  1  0  0  0  0
  7  6  2  0  0  0  0
  8 34  1  0  0  0  0
  9  8  1  0  0  0  0
  9 10  2  0  0  0  0
 11  4  1  6  0  0  0
 11  9  1  0  0  0  0
 12 11  1  0  0  0  0
 13 12  1  0  0  0  0
 13 14  1  0  0  0  0
 13 36  1  1  0  0  0
 14 37  1  6  0  0  0
 14 15  1  0  0  0  0
 14 19  1  0  0  0  0
 15 38  1  6  0  0  0
 15 11  1  0  0  0  0
 15 16  1  0  0  0  0
 16 17  2  0  0  0  0
 16 18  1  0  0  0  0
 18 21  1  0  0  0  0
 19 20  2  0  0  0  0
 19 18  1  0  0  0  0
 21 39  1  0  0  0  0
 21 22  1  0  0  0  0
 22 41  1  6  0  0  0
 22 26  1  0  0  0  0
 22 23  1  0  0  0  0
 23 24  1  0  0  0  0
 24 42  1  0  0  0  0
 25 24  1  0  0  0  0
 25 44  1  0  0  0  0
 26 47  1  0  0  0  0
 26 25  1  0  0  0  0
 27 13  1  0  0  0  0
 28 29  2  0  0  0  0
 28 27  1  0  0  0  0
 30 51  1  0  0  0  0
 30 28  1  0  0  0  0
 31  3  1  0  0  0  0
 33  7  1  0  0  0  0
 35 12  1  0  0  0  0
 40 21  1  0  0  0  0
 43 24  1  0  0  0  0
 45 25  1  0  0  0  0
 46 26  1  0  0  0  0
 48 27  1  0  0  0  0
 49 27  1  0  0  0  0
 50 30  1  0  0  0  0
M  END
>  <Pose>
1

>  <Score>
-6.43

$$$$
