
 OpenBabel03222201593D

 45 48  0  0  0  0  0  0  0  0999 V2000
  -22.4600   -3.9900  -32.4650 Cl  0  0  0  0  0  0  0  0  0  0  0  0
  -21.2590   -2.7520  -32.7650 C   0  0  0  0  0  0  0  0  0  0  0  0
  -20.9940   -2.4030  -34.0590 C   0  0  0  0  0  0  0  0  0  0  0  0
  -20.0690   -1.4460  -34.3710 C   0  0  0  0  0  0  0  0  0  0  0  0
  -19.4020   -0.8340  -33.3420 C   0  0  0  0  0  0  0  0  0  0  0  0
  -19.6790   -1.1980  -32.0130 C   0  0  0  0  0  0  0  0  0  0  0  0
  -20.6000   -2.1540  -31.6880 C   0  0  0  0  0  0  0  0  0  0  0  0
  -20.9460   -2.5720  -30.3970 N   0  0  0  0  0  0  0  0  0  0  0  0
  -20.2640   -3.5430  -29.6590 C   0  0  0  0  0  0  0  0  0  0  0  0
  -20.0120   -4.6740  -30.0980 O   0  0  0  0  0  0  0  0  0  0  0  0
  -19.7970   -3.2500  -28.2750 C   0  0  0  0  0  0  0  0  0  0  0  0
  -19.3820   -2.0520  -28.0000 N   0  0  0  0  0  0  0  0  0  0  0  0
  -18.9280   -1.6950  -26.7320 N   0  0  0  0  0  0  0  0  0  0  0  0
  -18.9200   -2.6670  -25.7100 C   0  0  0  0  0  0  0  0  0  0  0  0
  -18.5800   -2.2700  -24.5440 O   0  0  0  0  0  0  0  0  0  0  0  0
  -19.2830   -4.0780  -25.9500 C   0  0  0  0  0  0  0  0  0  0  0  0
  -19.7980   -4.2430  -27.2640 N   0  0  0  0  0  0  0  0  0  0  0  0
  -18.4670   -0.3480  -26.4630 C   0  0  0  0  0  0  0  0  0  0  0  0
  -18.1420    0.0600  -25.1920 C   0  0  0  0  0  0  0  0  0  0  0  0
  -17.6940    1.3640  -24.9590 C   0  0  0  0  0  0  0  0  0  0  0  0
  -17.5720    2.2670  -25.9960 C   0  0  0  0  0  0  0  0  0  0  0  0
  -17.9020    1.8430  -27.2620 C   0  0  0  0  0  0  0  0  0  0  0  0
  -18.3370    0.5700  -27.4830 C   0  0  0  0  0  0  0  0  0  0  0  0
  -17.0950    3.6690  -25.8000 C   0  0  0  0  0  0  0  0  0  0  0  0
  -18.4440    0.1490  -33.5720 O   0  0  0  0  0  0  0  0  0  0  0  0
  -18.3500    0.8490  -34.8220 C   0  0  0  0  0  0  0  0  0  0  0  0
  -18.8050   -0.0370  -35.9340 C   0  0  0  0  0  0  0  0  0  0  0  0
  -18.3090    0.1320  -37.0710 O   0  0  0  0  0  0  0  0  0  0  0  0
  -19.7790   -1.0530  -35.7170 N   0  0  0  0  0  0  0  0  0  0  0  0
  -21.5080   -2.8690  -34.9150 H   0  0  0  0  0  0  0  0  0  0  0  0
  -19.1300   -0.6910  -31.2310 H   0  0  0  0  0  0  0  0  0  0  0  0
  -21.7980   -2.1120  -29.9450 H   0  0  0  0  0  0  0  0  0  0  0  0
  -18.3400   -4.6980  -25.8930 H   0  0  0  0  0  0  0  0  0  0  0  0
  -19.9660   -4.4530  -25.1590 H   0  0  0  0  0  0  0  0  0  0  0  0
  -20.2160   -5.1730  -27.5260 H   0  0  0  0  0  0  0  0  0  0  0  0
  -18.2360   -0.6450  -24.3760 H   0  0  0  0  0  0  0  0  0  0  0  0
  -17.4430    1.6750  -23.9710 H   0  0  0  0  0  0  0  0  0  0  0  0
  -17.8010    2.5690  -28.0830 H   0  0  0  0  0  0  0  0  0  0  0  0
  -18.5860    0.2740  -28.4990 H   0  0  0  0  0  0  0  0  0  0  0  0
  -17.7360    4.4000  -26.3240 H   0  0  0  0  0  0  0  0  0  0  0  0
  -17.0330    3.9470  -24.7440 H   0  0  0  0  0  0  0  0  0  0  0  0
  -16.0630    3.7540  -26.2270 H   0  0  0  0  0  0  0  0  0  0  0  0
  -19.0940    1.6860  -34.7480 H   0  0  0  0  0  0  0  0  0  0  0  0
  -17.3340    1.2320  -34.9750 H   0  0  0  0  0  0  0  0  0  0  0  0
  -20.2690   -1.5000  -36.5170 H   0  0  0  0  0  0  0  0  0  0  0  0
  2  1  1  0  0  0  0
  2  7  1  0  0  0  0
  3  2  2  0  0  0  0
  4  3  1  0  0  0  0
  4  5  2  0  0  0  0
  5  6  1  0  0  0  0
  6  7  2  0  0  0  0
  6 31  1  0  0  0  0
  7  8  1  0  0  0  0
  8 32  1  0  0  0  0
  8  9  1  0  0  0  0
  9 11  1  0  0  0  0
 10  9  2  0  0  0  0
 11 12  2  0  0  0  0
 11 17  1  0  0  0  0
 12 13  1  0  0  0  0
 13 18  1  0  0  0  0
 13 14  1  0  0  0  0
 14 15  2  0  0  0  0
 16 33  1  0  0  0  0
 16 14  1  0  0  0  0
 16 34  1  0  0  0  0
 17 16  1  0  0  0  0
 18 19  1  0  0  0  0
 19 20  2  0  0  0  0
 19 36  1  0  0  0  0
 20 37  1  0  0  0  0
 21 24  1  0  0  0  0
 21 20  1  0  0  0  0
 22 21  2  0  0  0  0
 23 22  1  0  0  0  0
 23 18  2  0  0  0  0
 24 41  1  0  0  0  0
 25  5  1  0  0  0  0
 26 43  1  0  0  0  0
 26 25  1  0  0  0  0
 27 29  1  0  0  0  0
 27 26  1  0  0  0  0
 28 27  2  0  0  0  0
 29  4  1  0  0  0  0
 30  3  1  0  0  0  0
 35 17  1  0  0  0  0
 38 22  1  0  0  0  0
 39 23  1  0  0  0  0
 40 24  1  0  0  0  0
 42 24  1  0  0  0  0
 44 26  1  0  0  0  0
 45 29  1  0  0  0  0
M  END
>  <Pose>
1

>  <Score>
-7.38

$$$$
