
 OpenBabel03222201593D

 41 43  0  0  1  0  0  0  0  0999 V2000
  -19.4040   -3.0860  -25.9180 Cl  0  0  0  0  0  0  0  0  0  0  0  0
  -19.8250   -3.2870  -27.6170 C   0  0  0  0  0  0  0  0  0  0  0  0
  -20.3190   -4.4980  -28.0530 C   0  0  0  0  0  0  0  0  0  0  0  0
  -20.6420   -4.6360  -29.3840 C   0  0  0  0  0  0  0  0  0  0  0  0
  -20.4930   -3.6040  -30.3170 C   0  0  0  0  0  0  0  0  0  0  0  0
  -20.0020   -2.4090  -29.8760 C   0  0  0  0  0  0  0  0  0  0  0  0
  -19.6690   -2.2510  -28.5260 C   0  0  0  0  0  0  0  0  0  0  0  0
  -20.8710   -3.8770  -31.6800 C   0  0  0  0  0  0  0  0  0  0  0  0
  -20.5540   -4.9860  -32.1950 O   0  0  0  0  0  0  0  0  0  0  0  0
  -21.5920   -2.8920  -32.4230 N   0  0  0  0  0  0  0  0  0  0  0  0
  -21.7800   -3.1150  -33.8260 C   0  0  0  0  0  0  0  0  0  0  0  0
  -22.3250   -1.9960  -34.6200 C   0  0  2  0  0  0  0  0  0  0  0  0
  -21.4720   -0.8700  -34.8450 N   0  0  1  0  0  0  0  0  0  0  0  0
  -21.7750   -0.4270  -36.2280 C   0  0  0  0  0  0  0  0  0  0  0  0
  -23.3070   -0.4040  -36.2790 C   0  0  0  0  0  0  0  0  0  0  0  0
  -23.8950   -0.2660  -34.9610 N   0  0  1  0  0  0  0  0  0  0  0  0
  -23.6540   -1.4460  -34.1270 C   0  0  0  0  0  0  0  0  0  0  0  0
  -23.1910    0.8180  -34.3000 C   0  0  0  0  0  0  0  0  0  0  0  0
  -21.7800    0.2990  -34.0470 C   0  0  0  0  0  0  0  0  0  0  0  0
  -20.4790   -5.5400  -27.1500 O   0  0  0  0  0  0  0  0  0  0  0  0
  -21.5320   -6.4750  -27.2830 C   0  0  0  0  0  0  0  0  0  0  0  0
  -21.0310   -5.6080  -29.6890 H   0  0  0  0  0  0  0  0  0  0  0  0
  -19.8630   -1.5780  -30.5290 H   0  0  0  0  0  0  0  0  0  0  0  0
  -19.2820   -1.2950  -28.2000 H   0  0  0  0  0  0  0  0  0  0  0  0
  -21.9450   -2.0730  -31.9280 H   0  0  0  0  0  0  0  0  0  0  0  0
  -20.8400   -3.4540  -34.2850 H   0  0  0  0  0  0  0  0  0  0  0  0
  -22.5190   -3.9640  -33.9120 H   0  0  0  0  0  0  0  0  0  0  0  0
  -22.5970   -2.4530  -35.6320 H   0  0  0  0  0  0  0  0  0  0  0  0
  -21.3770   -1.2280  -36.8770 H   0  0  0  0  0  0  0  0  0  0  0  0
  -21.3410    0.5590  -36.4030 H   0  0  0  0  0  0  0  0  0  0  0  0
  -23.5560    0.5280  -36.8280 H   0  0  0  0  0  0  0  0  0  0  0  0
  -23.6890   -1.2540  -36.8540 H   0  0  0  0  0  0  0  0  0  0  0  0
  -23.6340   -1.1130  -33.0890 H   0  0  0  0  0  0  0  0  0  0  0  0
  -24.4560   -2.1970  -34.3020 H   0  0  0  0  0  0  0  0  0  0  0  0
  -23.7060    0.9870  -33.3340 H   0  0  0  0  0  0  0  0  0  0  0  0
  -23.2260    1.6790  -34.9760 H   0  0  0  0  0  0  0  0  0  0  0  0
  -21.5390    0.2330  -32.9940 H   0  0  0  0  0  0  0  0  0  0  0  0
  -21.1170    1.1180  -34.4710 H   0  0  0  0  0  0  0  0  0  0  0  0
  -21.3680   -7.0020  -28.2470 H   0  0  0  0  0  0  0  0  0  0  0  0
  -22.5190   -5.9510  -27.3760 H   0  0  0  0  0  0  0  0  0  0  0  0
  -21.4980   -7.1780  -26.4510 H   0  0  0  0  0  0  0  0  0  0  0  0
  2  1  1  0  0  0  0
  3  2  1  0  0  0  0
  3 20  1  0  0  0  0
  4  3  2  0  0  0  0
  5  6  2  0  0  0  0
  5  4  1  0  0  0  0
  6  7  1  0  0  0  0
  7 24  1  0  0  0  0
  7  2  2  0  0  0  0
  8  5  1  0  0  0  0
  9  8  2  0  0  0  0
 10 25  1  0  0  0  0
 10  8  1  0  0  0  0
 11 10  1  0  0  0  0
 12 28  1  6  0  0  0
 12 17  1  0  0  0  0
 12 11  1  0  0  0  0
 13 14  1  6  0  0  0
 13 12  1  0  0  0  0
 13 19  1  0  0  0  0
 15 14  1  0  0  0  0
 16 15  1  6  0  0  0
 16 18  1  0  0  0  0
 16 17  1  0  0  0  0
 17 33  1  0  0  0  0
 18 19  1  0  0  0  0
 18 35  1  0  0  0  0
 19 37  1  0  0  0  0
 21 20  1  0  0  0  0
 21 41  1  0  0  0  0
 22  4  1  0  0  0  0
 23  6  1  0  0  0  0
 26 11  1  0  0  0  0
 27 11  1  0  0  0  0
 29 14  1  0  0  0  0
 30 14  1  0  0  0  0
 31 15  1  0  0  0  0
 32 15  1  0  0  0  0
 34 17  1  0  0  0  0
 36 18  1  0  0  0  0
 38 19  1  0  0  0  0
 39 21  1  0  0  0  0
 40 21  1  0  0  0  0
M  END
>  <Pose>
1

>  <Score>
-5.20

$$$$
