
 OpenBabel03222201593D

 56 59  0  0  0  0  0  0  0  0999 V2000
  -22.4700   -1.1750  -34.6620 S   0  0  0  0  0  0  0  0  0  0  0  0
  -22.1220    0.2010  -34.1820 O   0  0  0  0  0  0  0  0  0  0  0  0
  -23.7830   -1.5630  -34.0500 O   0  0  0  0  0  0  0  0  0  0  0  0
  -21.2270   -2.2610  -34.2130 N   0  0  0  0  0  0  0  0  0  0  0  0
  -19.9510   -1.6670  -34.0350 C   0  0  0  0  0  0  0  0  0  0  0  0
  -19.7080   -1.1290  -32.6490 C   0  0  0  0  0  0  0  0  0  0  0  0
  -20.2550   -1.9930  -31.6240 N   0  0  0  0  0  0  0  0  0  0  0  0
  -20.6870   -3.3080  -32.0590 C   0  0  0  0  0  0  0  0  0  0  0  0
  -21.6150   -3.2250  -33.2460 C   0  0  0  0  0  0  0  0  0  0  0  0
  -20.3400   -1.5370  -30.3030 C   0  0  0  0  0  0  0  0  0  0  0  0
  -20.9010   -0.4400  -30.0710 O   0  0  0  0  0  0  0  0  0  0  0  0
  -19.7860   -2.3050  -29.1580 C   0  0  0  0  0  0  0  0  0  0  0  0
  -19.0480   -1.4690  -28.2520 N   0  0  0  0  0  0  0  0  0  0  0  0
  -19.0660   -1.6040  -26.8390 C   0  0  0  0  0  0  0  0  0  0  0  0
  -19.7390   -2.4830  -26.2020 O   0  0  0  0  0  0  0  0  0  0  0  0
  -18.2380   -0.6350  -26.2090 N   0  0  0  0  0  0  0  0  0  0  0  0
  -17.8400    0.3070  -27.2380 C   0  0  0  0  0  0  0  0  0  0  0  0
  -16.3610    0.5670  -27.2310 C   0  0  0  0  0  0  0  0  0  0  0  0
  -15.9380    1.6290  -26.2590 C   0  0  0  0  0  0  0  0  0  0  0  0
  -16.7330    2.8970  -26.3670 C   0  0  0  0  0  0  0  0  0  0  0  0
  -17.8580    2.7920  -27.3730 C   0  0  0  0  0  0  0  0  0  0  0  0
  -18.6640    1.5570  -27.0370 C   0  0  0  0  0  0  0  0  0  0  0  0
  -18.1770   -0.3760  -28.5120 C   0  0  0  0  0  0  0  0  0  0  0  0
  -17.7770   -0.0680  -29.6590 O   0  0  0  0  0  0  0  0  0  0  0  0
  -17.8730   -0.6160  -24.7930 C   0  0  0  0  0  0  0  0  0  0  0  0
  -22.7170   -1.1570  -36.4170 C   0  0  0  0  0  0  0  0  0  0  0  0
  -21.8810   -0.2680  -37.5980 S   0  0  0  0  0  0  0  0  0  0  0  0
  -22.7050   -0.8050  -38.9850 C   0  0  0  0  0  0  0  0  0  0  0  0
  -23.6300   -1.6810  -38.4830 C   0  0  0  0  0  0  0  0  0  0  0  0
  -23.6350   -1.8650  -37.1430 C   0  0  0  0  0  0  0  0  0  0  0  0
  -22.4570   -0.3600  -40.6870 Cl  0  0  0  0  0  0  0  0  0  0  0  0
  -19.8760   -0.7940  -34.7310 H   0  0  0  0  0  0  0  0  0  0  0  0
  -19.1550   -2.3920  -34.2890 H   0  0  0  0  0  0  0  0  0  0  0  0
  -20.0600   -0.0840  -32.5310 H   0  0  0  0  0  0  0  0  0  0  0  0
  -18.5970   -1.1240  -32.4990 H   0  0  0  0  0  0  0  0  0  0  0  0
  -21.2410   -3.8180  -31.2380 H   0  0  0  0  0  0  0  0  0  0  0  0
  -19.8320   -3.9470  -32.3180 H   0  0  0  0  0  0  0  0  0  0  0  0
  -22.6890   -3.1250  -32.9220 H   0  0  0  0  0  0  0  0  0  0  0  0
  -21.5740   -4.2390  -33.7390 H   0  0  0  0  0  0  0  0  0  0  0  0
  -19.1200   -3.1030  -29.5070 H   0  0  0  0  0  0  0  0  0  0  0  0
  -20.6510   -2.8040  -28.6700 H   0  0  0  0  0  0  0  0  0  0  0  0
  -15.8080   -0.3580  -26.9810 H   0  0  0  0  0  0  0  0  0  0  0  0
  -16.0690    0.8860  -28.2600 H   0  0  0  0  0  0  0  0  0  0  0  0
  -14.8630    1.8580  -26.4830 H   0  0  0  0  0  0  0  0  0  0  0  0
  -15.9580    1.2210  -25.2310 H   0  0  0  0  0  0  0  0  0  0  0  0
  -17.1130    3.1520  -25.3550 H   0  0  0  0  0  0  0  0  0  0  0  0
  -16.0830    3.7510  -26.7080 H   0  0  0  0  0  0  0  0  0  0  0  0
  -18.4930    3.6830  -27.2840 H   0  0  0  0  0  0  0  0  0  0  0  0
  -17.4270    2.6710  -28.3720 H   0  0  0  0  0  0  0  0  0  0  0  0
  -19.5860    1.5640  -27.6500 H   0  0  0  0  0  0  0  0  0  0  0  0
  -18.9830    1.6310  -25.9760 H   0  0  0  0  0  0  0  0  0  0  0  0
  -18.0280    0.3880  -24.3500 H   0  0  0  0  0  0  0  0  0  0  0  0
  -18.4850   -1.3500  -24.2610 H   0  0  0  0  0  0  0  0  0  0  0  0
  -16.8210   -0.9640  -24.7340 H   0  0  0  0  0  0  0  0  0  0  0  0
  -24.3420   -2.2130  -39.1680 H   0  0  0  0  0  0  0  0  0  0  0  0
  -24.3690   -2.5710  -36.6650 H   0  0  0  0  0  0  0  0  0  0  0  0
  1  4  1  0  0  0  0
  1  2  2  0  0  0  0
  1  3  2  0  0  0  0
  4  5  1  0  0  0  0
  4  9  1  0  0  0  0
  5  6  1  0  0  0  0
  6 34  1  0  0  0  0
  6 35  1  0  0  0  0
  6  7  1  0  0  0  0
  7 10  1  0  0  0  0
  8  7  1  0  0  0  0
  8 36  1  0  0  0  0
  9 38  1  0  0  0  0
  9  8  1  0  0  0  0
 10 11  2  0  0  0  0
 10 12  1  0  0  0  0
 12 41  1  0  0  0  0
 12 13  1  0  0  0  0
 13 14  1  0  0  0  0
 14 16  1  0  0  0  0
 14 15  2  0  0  0  0
 16 25  1  0  0  0  0
 17 18  1  0  0  0  0
 17 22  1  0  0  0  0
 17 16  1  0  0  0  0
 18 42  1  0  0  0  0
 18 19  1  0  0  0  0
 19 45  1  0  0  0  0
 20 19  1  0  0  0  0
 20 46  1  0  0  0  0
 21 48  1  0  0  0  0
 21 22  1  0  0  0  0
 21 20  1  0  0  0  0
 22 51  1  0  0  0  0
 23 13  1  0  0  0  0
 23 17  1  0  0  0  0
 24 23  2  0  0  0  0
 25 54  1  0  0  0  0
 25 52  1  0  0  0  0
 25 53  1  0  0  0  0
 26  1  1  0  0  0  0
 27 26  1  0  0  0  0
 28 29  2  0  0  0  0
 28 27  1  0  0  0  0
 29 30  1  0  0  0  0
 30 56  1  0  0  0  0
 30 26  2  0  0  0  0
 31 28  1  0  0  0  0
 32  5  1  0  0  0  0
 33  5  1  0  0  0  0
 37  8  1  0  0  0  0
 39  9  1  0  0  0  0
 40 12  1  0  0  0  0
 43 18  1  0  0  0  0
 44 19  1  0  0  0  0
 47 20  1  0  0  0  0
 49 21  1  0  0  0  0
 50 22  1  0  0  0  0
 55 29  1  0  0  0  0
M  END
>  <Pose>
1

>  <Score>
-5.88

$$$$
