
 OpenBabel03222201593D

 53 56  0  0  1  0  0  0  0  0999 V2000
  -20.1140   -2.7990  -29.7760 S   0  0  0  0  0  0  0  0  0  0  0  0
  -21.6090   -3.0960  -29.6440 O   0  0  0  0  0  0  0  0  0  0  0  0
  -19.4890   -4.1680  -30.0740 O   0  0  0  0  0  0  0  0  0  0  0  0
  -19.9410   -1.7760  -31.1150 N   0  0  0  0  0  0  0  0  0  0  0  0
  -20.4690   -0.4640  -30.9890 C   0  0  0  0  0  0  0  0  0  0  0  0
  -20.2430    0.3910  -32.2140 C   0  0  1  0  0  0  0  0  0  0  0  0
  -18.7930    0.4420  -32.5540 C   0  0  0  0  0  0  0  0  0  0  0  0
  -18.1770   -0.9460  -32.6030 C   0  0  0  0  0  0  0  0  0  0  0  0
  -18.4840   -1.6550  -31.3300 C   0  0  0  0  0  0  0  0  0  0  0  0
  -21.1390    0.0750  -33.3450 C   0  0  0  0  0  0  0  0  0  0  0  0
  -22.1600   -0.6480  -33.0460 O   0  0  0  0  0  0  0  0  0  0  0  0
  -21.0020    0.4690  -34.6690 N   0  0  0  0  0  0  0  0  0  0  0  0
  -21.4230    1.7580  -35.1190 C   0  0  0  0  0  0  0  0  0  0  0  0
  -20.5340    2.3500  -36.1770 C   0  0  0  0  0  0  0  0  0  0  0  0
  -19.8160    1.4560  -36.9070 O   0  0  0  0  0  0  0  0  0  0  0  0
  -19.2530    0.4000  -36.2190 C   0  0  0  0  0  0  0  0  0  0  0  0
  -20.4420   -0.4060  -35.6700 C   0  0  0  0  0  0  0  0  0  0  0  0
  -19.4940   -2.2520  -28.2760 C   0  0  0  0  0  0  0  0  0  0  0  0
  -19.3850   -3.0660  -27.1750 C   0  0  0  0  0  0  0  0  0  0  0  0
  -18.8140   -2.5810  -26.0080 C   0  0  0  0  0  0  0  0  0  0  0  0
  -18.3420   -1.2690  -25.9190 C   0  0  0  0  0  0  0  0  0  0  0  0
  -18.4470   -0.4410  -27.0140 C   0  0  0  0  0  0  0  0  0  0  0  0
  -19.0160   -0.9400  -28.1620 C   0  0  0  0  0  0  0  0  0  0  0  0
  -17.9650    0.9320  -26.9490 C   0  0  0  0  0  0  0  0  0  0  0  0
  -18.1330    1.8770  -27.8890 N   0  0  0  0  0  0  0  0  0  0  0  0
  -17.5730    2.9910  -27.5040 O   0  0  0  0  0  0  0  0  0  0  0  0
  -17.0340    2.8120  -26.3280 C   0  0  0  0  0  0  0  0  0  0  0  0
  -17.2700    1.5350  -25.9700 N   0  0  0  0  0  0  0  0  0  0  0  0
  -16.2860    3.8310  -25.5130 C   0  0  0  0  0  0  0  0  0  0  0  0
  -20.0110   -4.7000  -27.1200 Cl  0  0  0  0  0  0  0  0  0  0  0  0
  -21.5720   -0.4760  -30.7710 H   0  0  0  0  0  0  0  0  0  0  0  0
  -19.9850    0.0450  -30.1380 H   0  0  0  0  0  0  0  0  0  0  0  0
  -20.5160    1.4380  -31.8790 H   0  0  0  0  0  0  0  0  0  0  0  0
  -18.2690    0.9810  -31.7330 H   0  0  0  0  0  0  0  0  0  0  0  0
  -18.6140    0.9600  -33.5100 H   0  0  0  0  0  0  0  0  0  0  0  0
  -18.6370   -1.4970  -33.4410 H   0  0  0  0  0  0  0  0  0  0  0  0
  -17.0940   -0.8100  -32.6850 H   0  0  0  0  0  0  0  0  0  0  0  0
  -18.0860   -1.0600  -30.4600 H   0  0  0  0  0  0  0  0  0  0  0  0
  -18.0190   -2.6550  -31.3510 H   0  0  0  0  0  0  0  0  0  0  0  0
  -21.5110    2.5040  -34.3000 H   0  0  0  0  0  0  0  0  0  0  0  0
  -22.4660    1.6390  -35.5280 H   0  0  0  0  0  0  0  0  0  0  0  0
  -19.8280    3.1160  -35.7410 H   0  0  0  0  0  0  0  0  0  0  0  0
  -21.1880    2.9240  -36.8710 H   0  0  0  0  0  0  0  0  0  0  0  0
  -18.6960    0.8270  -35.3440 H   0  0  0  0  0  0  0  0  0  0  0  0
  -18.6300   -0.1830  -36.8890 H   0  0  0  0  0  0  0  0  0  0  0  0
  -20.1890   -1.4070  -35.3590 H   0  0  0  0  0  0  0  0  0  0  0  0
  -21.2120   -0.4080  -36.5070 H   0  0  0  0  0  0  0  0  0  0  0  0
  -18.7340   -3.2330  -25.1540 H   0  0  0  0  0  0  0  0  0  0  0  0
  -17.8990   -0.8990  -25.0060 H   0  0  0  0  0  0  0  0  0  0  0  0
  -19.0850   -0.2700  -29.0050 H   0  0  0  0  0  0  0  0  0  0  0  0
  -16.3390    4.7980  -26.0380 H   0  0  0  0  0  0  0  0  0  0  0  0
  -16.7490    3.8390  -24.5100 H   0  0  0  0  0  0  0  0  0  0  0  0
  -15.2430    3.4490  -25.4270 H   0  0  0  0  0  0  0  0  0  0  0  0
  1  2  2  0  0  0  0
  1 18  1  0  0  0  0
  3  1  2  0  0  0  0
  4  5  1  0  0  0  0
  4  1  1  0  0  0  0
  5 31  1  0  0  0  0
  5 32  1  0  0  0  0
  6 33  1  1  0  0  0
  6  5  1  0  0  0  0
  7  6  1  0  0  0  0
  7 34  1  0  0  0  0
  8  7  1  0  0  0  0
  8  9  1  0  0  0  0
  9  4  1  0  0  0  0
  9 38  1  0  0  0  0
 10 11  2  0  0  0  0
 10  6  1  0  0  0  0
 12 10  1  0  0  0  0
 13 12  1  0  0  0  0
 13 40  1  0  0  0  0
 14 42  1  0  0  0  0
 14 13  1  0  0  0  0
 15 16  1  0  0  0  0
 15 14  1  0  0  0  0
 16 17  1  0  0  0  0
 16 44  1  0  0  0  0
 17 46  1  0  0  0  0
 17 12  1  0  0  0  0
 18 23  2  0  0  0  0
 18 19  1  0  0  0  0
 19 30  1  0  0  0  0
 19 20  2  0  0  0  0
 20 21  1  0  0  0  0
 20 48  1  0  0  0  0
 21 49  1  0  0  0  0
 22 24  1  0  0  0  0
 22 21  2  0  0  0  0
 23 22  1  0  0  0  0
 24 28  1  0  0  0  0
 25 26  1  0  0  0  0
 25 24  2  0  0  0  0
 26 27  1  0  0  0  0
 27 28  2  0  0  0  0
 27 29  1  0  0  0  0
 29 53  1  0  0  0  0
 29 52  1  0  0  0  0
 35  7  1  0  0  0  0
 36  8  1  0  0  0  0
 37  8  1  0  0  0  0
 39  9  1  0  0  0  0
 41 13  1  0  0  0  0
 43 14  1  0  0  0  0
 45 16  1  0  0  0  0
 47 17  1  0  0  0  0
 50 23  1  0  0  0  0
 51 29  1  0  0  0  0
M  END
>  <Pose>
1

>  <Score>
-6.82

$$$$
