
 OpenBabel03222201593D

 45 48  0  0  1  0  0  0  0  0999 V2000
  -17.8880    0.2100  -24.3340 Cl  0  0  0  0  0  0  0  0  0  0  0  0
  -18.4630   -0.6900  -25.7240 C   0  0  0  0  0  0  0  0  0  0  0  0
  -18.5980   -0.0720  -26.9680 C   0  0  0  0  0  0  0  0  0  0  0  0
  -19.0530   -0.7560  -28.0620 C   0  0  0  0  0  0  0  0  0  0  0  0
  -19.4120   -2.1050  -28.0130 C   0  0  0  0  0  0  0  0  0  0  0  0
  -19.2740   -2.7090  -26.7740 C   0  0  0  0  0  0  0  0  0  0  0  0
  -18.8170   -2.0240  -25.6740 C   0  0  0  0  0  0  0  0  0  0  0  0
  -19.8850   -2.7880  -29.1560 N   0  0  0  0  0  0  0  0  0  0  0  0
  -20.1800   -4.1850  -29.0110 C   0  0  0  0  0  0  0  0  0  0  0  0
  -20.0410   -4.7210  -27.8750 O   0  0  0  0  0  0  0  0  0  0  0  0
  -20.6130   -4.8710  -30.1720 N   0  0  0  0  0  0  0  0  0  0  0  0
  -20.7490   -4.3560  -31.3130 C   0  0  0  0  0  0  0  0  0  0  0  0
  -20.4730   -2.9210  -31.6670 C   0  0  1  0  0  0  0  0  0  0  0  0
  -19.3050   -2.9830  -32.6100 C   0  0  0  0  0  0  0  0  0  0  0  0
  -19.1340   -1.9050  -33.5060 N   0  0  0  0  0  4  0  0  0  0  0  0
  -20.3140   -1.3840  -34.0880 C   0  0  0  0  0  0  0  0  0  0  0  0
  -21.5180   -1.6050  -33.5010 C   0  0  0  0  0  0  0  0  0  0  0  0
  -22.6560   -1.0740  -34.1020 C   0  0  0  0  0  0  0  0  0  0  0  0
  -22.5430   -0.3450  -35.2680 C   0  0  0  0  0  0  0  0  0  0  0  0
  -21.3130   -0.1210  -35.8670 C   0  0  0  0  0  0  0  0  0  0  0  0
  -20.1820   -0.6570  -35.2550 C   0  0  0  0  0  0  0  0  0  0  0  0
  -23.7490    0.2290  -35.9450 C   0  0  0  0  0  0  0  0  0  0  0  0
  -21.7170   -2.3710  -32.2510 C   0  0  0  0  0  0  0  0  0  0  0  0
  -18.3030   -0.8140  -33.0210 C   0  0  0  0  0  0  0  0  0  0  0  0
  -20.0590   -2.2050  -30.4350 C   0  0  0  0  0  0  0  0  0  0  0  0
  -19.8250   -0.9440  -30.4660 O   0  0  0  0  0  0  0  0  0  0  0  0
  -21.1940   -5.1370  -32.3960 O   0  0  0  0  0  0  0  0  0  0  0  0
  -18.3170    0.9890  -27.0100 H   0  0  0  0  0  0  0  0  0  0  0  0
  -19.1550   -0.2570  -29.0440 H   0  0  0  0  0  0  0  0  0  0  0  0
  -19.5510   -3.7530  -26.7450 H   0  0  0  0  0  0  0  0  0  0  0  0
  -18.7280   -2.5500  -24.7140 H   0  0  0  0  0  0  0  0  0  0  0  0
  -19.2990   -3.9550  -33.1790 H   0  0  0  0  0  0  0  0  0  0  0  0
  -18.3880   -3.0380  -31.9560 H   0  0  0  0  0  0  0  0  0  0  0  0
  -18.5820   -2.2880  -34.3390 H   0  0  0  0  0  0  0  0  0  0  0  0
  -23.6440   -1.2230  -33.6760 H   0  0  0  0  0  0  0  0  0  0  0  0
  -21.1970    0.4550  -36.7960 H   0  0  0  0  0  0  0  0  0  0  0  0
  -19.2200   -0.4770  -35.7330 H   0  0  0  0  0  0  0  0  0  0  0  0
  -24.6900   -0.2480  -35.5960 H   0  0  0  0  0  0  0  0  0  0  0  0
  -23.6140    0.1460  -37.0560 H   0  0  0  0  0  0  0  0  0  0  0  0
  -23.8160    1.3020  -35.7170 H   0  0  0  0  0  0  0  0  0  0  0  0
  -22.4510   -3.1860  -32.5350 H   0  0  0  0  0  0  0  0  0  0  0  0
  -22.2620   -1.7250  -31.5410 H   0  0  0  0  0  0  0  0  0  0  0  0
  -17.6820   -1.0940  -32.1440 H   0  0  0  0  0  0  0  0  0  0  0  0
  -18.9350    0.0910  -32.8550 H   0  0  0  0  0  0  0  0  0  0  0  0
  -17.5590   -0.4870  -33.8100 H   0  0  0  0  0  0  0  0  0  0  0  0
  2  7  1  0  0  0  0
  2  1  1  0  0  0  0
  3  2  2  0  0  0  0
  4  5  2  0  0  0  0
  4  3  1  0  0  0  0
  5  6  1  0  0  0  0
  6 30  1  0  0  0  0
  6  7  2  0  0  0  0
  7 31  1  0  0  0  0
  8  9  1  0  0  0  0
  8  5  1  0  0  0  0
  9 10  2  0  0  0  0
 11  9  1  0  0  0  0
 12 11  1  0  0  0  0
 13 12  1  1  0  0  0
 13 25  1  0  0  0  0
 14 33  1  0  0  0  0
 14 13  1  0  0  0  0
 15 24  1  0  0  0  0
 15 14  1  0  0  0  0
 16 15  1  0  0  0  0
 16 17  1  0  0  0  0
 17 23  1  0  0  0  0
 18 35  1  0  0  0  0
 18 17  2  0  0  0  0
 19 18  1  0  0  0  0
 20 19  2  0  0  0  0
 20 21  1  0  0  0  0
 21 16  2  0  0  0  0
 22 40  1  0  0  0  0
 22 38  1  0  0  0  0
 22 19  1  0  0  0  0
 23 13  1  0  0  0  0
 23 42  1  0  0  0  0
 24 44  1  0  0  0  0
 24 43  1  0  0  0  0
 25  8  1  0  0  0  0
 26 25  2  0  0  0  0
 27 12  2  0  0  0  0
 28  3  1  0  0  0  0
 29  4  1  0  0  0  0
 32 14  1  0  0  0  0
 34 15  1  0  0  0  0
 36 20  1  0  0  0  0
 37 21  1  0  0  0  0
 39 22  1  0  0  0  0
 41 23  1  0  0  0  0
 45 24  1  0  0  0  0
M  END
>  <Pose>
1

>  <Score>
-5.58

$$$$
