
 OpenBabel03222201593D

 43 46  0  0  1  0  0  0  0  0999 V2000
  -16.9970    3.1260  -25.7660 Cl  0  0  0  0  0  0  0  0  0  0  0  0
  -17.6690    1.5570  -26.1030 C   0  0  0  0  0  0  0  0  0  0  0  0
  -18.0060    1.2560  -27.4150 C   0  0  0  0  0  0  0  0  0  0  0  0
  -18.5420    0.0150  -27.7070 C   0  0  0  0  0  0  0  0  0  0  0  0
  -18.7620   -0.9530  -26.7470 C   0  0  0  0  0  0  0  0  0  0  0  0
  -18.4200   -0.6350  -25.4470 C   0  0  0  0  0  0  0  0  0  0  0  0
  -17.8820    0.5960  -25.1180 C   0  0  0  0  0  0  0  0  0  0  0  0
  -19.3220   -2.2420  -27.0860 N   0  0  0  0  0  0  0  0  0  0  0  0
  -19.2650   -3.2640  -26.0780 C   0  0  0  0  0  0  0  0  0  0  0  0
  -18.7470   -3.0420  -24.9400 O   0  0  0  0  0  0  0  0  0  0  0  0
  -19.8150   -4.5270  -26.4170 N   0  0  0  0  0  0  0  0  0  0  0  0
  -20.3980   -4.7520  -27.7200 C   0  0  0  0  0  0  0  0  0  0  0  0
  -21.2320   -5.6630  -27.8080 O   0  0  0  0  0  0  0  0  0  0  0  0
  -19.9890   -3.9210  -28.8360 C   0  0  2  0  0  0  0  0  0  0  0  0
  -19.9060   -2.5110  -28.3510 C   0  0  0  0  0  0  0  0  0  0  0  0
  -20.3270   -1.5210  -29.0030 O   0  0  0  0  0  0  0  0  0  0  0  0
  -20.7140   -4.0500  -30.0790 C   0  0  0  0  0  0  0  0  0  0  0  0
  -21.4660   -3.1680  -30.6980 C   0  0  0  0  0  0  0  0  0  0  0  0
  -22.0230   -3.7230  -31.9560 C   0  0  2  0  0  0  0  0  0  0  0  0
  -21.2780   -4.9500  -32.1190 N   0  0  0  0  0  0  0  0  0  0  0  0
  -20.7290   -5.2530  -30.8760 N   0  0  0  0  0  0  0  0  0  0  0  0
  -21.7590   -2.8780  -33.1260 C   0  0  0  0  0  0  0  0  0  0  0  0
  -22.5710   -3.0320  -34.2400 C   0  0  0  0  0  0  0  0  0  0  0  0
  -22.3510   -2.2550  -35.3530 C   0  0  0  0  0  0  0  0  0  0  0  0
  -21.3410   -1.3220  -35.3950 C   0  0  0  0  0  0  0  0  0  0  0  0
  -20.5270   -1.1580  -34.2990 C   0  0  0  0  0  0  0  0  0  0  0  0
  -20.7530   -1.9480  -33.1720 C   0  0  0  0  0  0  0  0  0  0  0  0
  -23.1650   -2.4000  -36.4840 O   0  0  0  0  0  0  0  0  0  0  0  0
  -17.8440    2.0050  -28.2040 H   0  0  0  0  0  0  0  0  0  0  0  0
  -18.8030   -0.2180  -28.7190 H   0  0  0  0  0  0  0  0  0  0  0  0
  -18.5660   -1.3430  -24.6600 H   0  0  0  0  0  0  0  0  0  0  0  0
  -17.6030    0.8780  -24.1080 H   0  0  0  0  0  0  0  0  0  0  0  0
  -19.7840   -5.2770  -25.7040 H   0  0  0  0  0  0  0  0  0  0  0  0
  -18.9060   -4.2300  -29.0650 H   0  0  0  0  0  0  0  0  0  0  0  0
  -21.7110   -2.1450  -30.4070 H   0  0  0  0  0  0  0  0  0  0  0  0
  -23.1180   -3.9220  -31.8310 H   0  0  0  0  0  0  0  0  0  0  0  0
  -20.5690   -4.8960  -32.8820 H   0  0  0  0  0  0  0  0  0  0  0  0
  -20.4030   -6.2090  -30.6220 H   0  0  0  0  0  0  0  0  0  0  0  0
  -23.3730   -3.7660  -34.2170 H   0  0  0  0  0  0  0  0  0  0  0  0
  -21.1680   -0.7060  -36.2790 H   0  0  0  0  0  0  0  0  0  0  0  0
  -19.7100   -0.4370  -34.2670 H   0  0  0  0  0  0  0  0  0  0  0  0
  -20.1200   -1.8280  -32.3030 H   0  0  0  0  0  0  0  0  0  0  0  0
  -22.8150   -2.9070  -37.2780 H   0  0  0  0  0  0  0  0  0  0  0  0
  2  1  1  0  0  0  0
  2  7  1  0  0  0  0
  3  2  2  0  0  0  0
  4  3  1  0  0  0  0
  4  5  2  0  0  0  0
  5  6  1  0  0  0  0
  6  7  2  0  0  0  0
  6 31  1  0  0  0  0
  7 32  1  0  0  0  0
  8  5  1  0  0  0  0
  8  9  1  0  0  0  0
  9 10  2  0  0  0  0
 11  9  1  0  0  0  0
 11 33  1  0  0  0  0
 12 11  1  0  0  0  0
 13 12  2  0  0  0  0
 14 34  1  6  0  0  0
 14 15  1  0  0  0  0
 14 12  1  0  0  0  0
 15  8  1  0  0  0  0
 16 15  2  0  0  0  0
 17 14  1  0  0  0  0
 18 35  1  0  0  0  0
 18 17  2  0  0  0  0
 19 36  1  1  0  0  0
 19 18  1  0  0  0  0
 20 19  1  0  0  0  0
 20 21  1  0  0  0  0
 21 38  1  0  0  0  0
 21 17  1  0  0  0  0
 22 19  1  0  0  0  0
 23 39  1  0  0  0  0
 23 22  2  0  0  0  0
 24 23  1  0  0  0  0
 25 24  2  0  0  0  0
 25 26  1  0  0  0  0
 26 41  1  0  0  0  0
 26 27  2  0  0  0  0
 27 22  1  0  0  0  0
 27 42  1  0  0  0  0
 28 24  1  0  0  0  0
 29  3  1  0  0  0  0
 30  4  1  0  0  0  0
 37 20  1  0  0  0  0
 40 25  1  0  0  0  0
 43 28  1  0  0  0  0
M  END
>  <Pose>
1

>  <Score>
-6.85

$$$$
