
 OpenBabel03222201593D

 53 56  0  0  1  0  0  0  0  0999 V2000
  -19.3440    9.8250  -29.7710 Cl  0  0  0  0  0  0  0  0  0  0  0  0
  -19.1670    8.6850  -28.4320 C   0  0  0  0  0  0  0  0  0  0  0  0
  -17.9990    8.6850  -27.7030 C   0  0  0  0  0  0  0  0  0  0  0  0
  -17.8530    7.7900  -26.6470 C   0  0  0  0  0  0  0  0  0  0  0  0
  -18.8520    6.9120  -26.3250 C   0  0  0  0  0  0  0  0  0  0  0  0
  -20.0090    6.9340  -27.0730 C   0  0  0  0  0  0  0  0  0  0  0  0
  -20.1880    7.8110  -28.1290 C   0  0  0  0  0  0  0  0  0  0  0  0
  -18.7120    5.9610  -25.2140 N   0  0  0  0  0  0  0  0  0  0  0  0
  -17.6480    5.0220  -25.2280 C   0  0  2  0  0  0  0  0  0  0  0  0
  -17.6740    4.0570  -24.1390 C   0  0  0  0  0  0  0  0  0  0  0  0
  -18.5880    4.1090  -23.1300 C   0  0  0  0  0  0  0  0  0  0  0  0
  -18.5390    3.1550  -22.0960 C   0  0  0  0  0  0  0  0  0  0  0  0
  -17.6010    2.1550  -22.0490 C   0  0  0  0  0  0  0  0  0  0  0  0
  -16.6800    2.1180  -23.0830 C   0  0  0  0  0  0  0  0  0  0  0  0
  -16.7210    3.0350  -24.0830 C   0  0  0  0  0  0  0  0  0  0  0  0
  -19.6300    5.0970  -23.0930 N   0  0  0  0  0  0  0  0  0  0  0  0
  -19.6480    6.0120  -24.1700 C   0  0  0  0  0  0  0  0  0  0  0  0
  -20.5400    6.9210  -24.2100 O   0  0  0  0  0  0  0  0  0  0  0  0
  -16.4660    5.8240  -25.0470 O   0  0  0  0  0  0  0  0  0  0  0  0
  -17.4790    4.3770  -26.5550 C   0  0  0  0  0  0  0  0  0  0  0  0
  -16.3880    4.4150  -27.1280 O   0  0  0  0  0  0  0  0  0  0  0  0
  -18.5940    3.7320  -27.1220 N   0  0  0  0  0  0  0  0  0  0  0  0
  -18.5900    2.3100  -27.4670 C   0  0  0  0  0  0  0  0  0  0  0  0
  -18.2100    1.4470  -26.3260 C   0  0  0  0  0  0  0  0  0  0  0  0
  -18.5850    0.0880  -26.3820 N   0  0  0  0  0  0  0  0  0  0  0  0
  -18.8560   -0.4900  -27.6340 C   0  0  0  0  0  0  0  0  0  0  0  0
  -18.9640   -2.0070  -27.4580 C   0  0  0  0  0  0  0  0  0  0  0  0
  -19.5280   -2.3130  -26.2060 O   0  0  0  0  0  0  0  0  0  0  0  0
  -18.6380   -2.0410  -25.1700 C   0  0  0  0  0  0  0  0  0  0  0  0
  -17.8740   -0.7920  -25.5180 C   0  0  0  0  0  0  0  0  0  0  0  0
  -17.2290    9.3830  -27.9740 H   0  0  0  0  0  0  0  0  0  0  0  0
  -16.9370    7.8100  -26.0960 H   0  0  0  0  0  0  0  0  0  0  0  0
  -20.8070    6.2550  -26.8390 H   0  0  0  0  0  0  0  0  0  0  0  0
  -21.0790    7.8480  -28.7250 H   0  0  0  0  0  0  0  0  0  0  0  0
  -19.2800    3.2340  -21.3210 H   0  0  0  0  0  0  0  0  0  0  0  0
  -17.5470    1.4170  -21.2680 H   0  0  0  0  0  0  0  0  0  0  0  0
  -15.9160    1.3200  -23.0660 H   0  0  0  0  0  0  0  0  0  0  0  0
  -16.0040    2.9960  -24.8770 H   0  0  0  0  0  0  0  0  0  0  0  0
  -20.3050    5.1070  -22.3080 H   0  0  0  0  0  0  0  0  0  0  0  0
  -15.6650    5.2900  -25.2880 H   0  0  0  0  0  0  0  0  0  0  0  0
  -19.4980    4.2400  -27.3300 H   0  0  0  0  0  0  0  0  0  0  0  0
  -19.5610    2.1010  -27.9220 H   0  0  0  0  0  0  0  0  0  0  0  0
  -17.8230    2.1990  -28.2620 H   0  0  0  0  0  0  0  0  0  0  0  0
  -18.6760    1.8890  -25.4020 H   0  0  0  0  0  0  0  0  0  0  0  0
  -17.1160    1.5070  -26.1480 H   0  0  0  0  0  0  0  0  0  0  0  0
  -19.7280   -0.0820  -28.1760 H   0  0  0  0  0  0  0  0  0  0  0  0
  -17.9820   -0.3290  -28.3040 H   0  0  0  0  0  0  0  0  0  0  0  0
  -19.5490   -2.4770  -28.2520 H   0  0  0  0  0  0  0  0  0  0  0  0
  -17.9560   -2.4860  -27.4510 H   0  0  0  0  0  0  0  0  0  0  0  0
  -17.9510   -2.8840  -24.9600 H   0  0  0  0  0  0  0  0  0  0  0  0
  -19.2070   -1.8560  -24.2440 H   0  0  0  0  0  0  0  0  0  0  0  0
  -17.5140   -0.2540  -24.6160 H   0  0  0  0  0  0  0  0  0  0  0  0
  -16.9500   -1.1350  -26.0630 H   0  0  0  0  0  0  0  0  0  0  0  0
  1  2  1  0  0  0  0
  2  7  2  0  0  0  0
  2  3  1  0  0  0  0
  3  4  2  0  0  0  0
  4  5  1  0  0  0  0
  4 32  1  0  0  0  0
  5  8  1  0  0  0  0
  6 33  1  0  0  0  0
  6  5  2  0  0  0  0
  7  6  1  0  0  0  0
  8 17  1  0  0  0  0
  9 20  1  6  0  0  0
  9  8  1  0  0  0  0
  9 19  1  0  0  0  0
  9 10  1  0  0  0  0
 10 15  2  0  0  0  0
 10 11  1  0  0  0  0
 11 16  1  0  0  0  0
 11 12  2  0  0  0  0
 12 13  1  0  0  0  0
 12 35  1  0  0  0  0
 13 36  1  0  0  0  0
 14 37  1  0  0  0  0
 14 13  2  0  0  0  0
 15 14  1  0  0  0  0
 16 39  1  0  0  0  0
 17 16  1  0  0  0  0
 18 17  2  0  0  0  0
 21 20  2  0  0  0  0
 22 20  1  0  0  0  0
 23 22  1  0  0  0  0
 23 24  1  0  0  0  0
 24 45  1  0  0  0  0
 24 44  1  0  0  0  0
 25 24  1  0  0  0  0
 25 30  1  0  0  0  0
 26 27  1  0  0  0  0
 26 25  1  0  0  0  0
 27 49  1  0  0  0  0
 27 28  1  0  0  0  0
 28 29  1  0  0  0  0
 29 50  1  0  0  0  0
 29 51  1  0  0  0  0
 30 29  1  0  0  0  0
 30 52  1  0  0  0  0
 31  3  1  0  0  0  0
 34  7  1  0  0  0  0
 38 15  1  0  0  0  0
 40 19  1  0  0  0  0
 41 22  1  0  0  0  0
 42 23  1  0  0  0  0
 43 23  1  0  0  0  0
 46 26  1  0  0  0  0
 47 26  1  0  0  0  0
 48 27  1  0  0  0  0
 53 30  1  0  0  0  0
M  END
>  <Pose>
1

>  <Score>
-5.81

$$$$
