
 OpenBabel03222201593D

 52 55  0  0  1  0  0  0  0  0999 V2000
  -17.2040    1.6890  -22.7760 Cl  0  0  0  0  0  0  0  0  0  0  0  0
  -17.6690    1.1730  -24.3760 C   0  0  0  0  0  0  0  0  0  0  0  0
  -17.8840   -0.1360  -24.7280 C   0  0  0  0  0  0  0  0  0  0  0  0
  -18.2500   -0.4890  -26.0030 C   0  0  0  0  0  0  0  0  0  0  0  0
  -18.4190    0.4730  -27.0050 C   0  0  0  0  0  0  0  0  0  0  0  0
  -18.2070    1.7740  -26.6580 C   0  0  0  0  0  0  0  0  0  0  0  0
  -17.8400    2.1180  -25.3760 C   0  0  0  0  0  0  0  0  0  0  0  0
  -18.8100    0.0370  -28.3280 C   0  0  0  0  0  0  0  0  0  0  0  0
  -17.9060   -0.1550  -29.2070 O   0  0  0  0  0  0  0  0  0  0  0  0
  -20.2100   -0.2070  -28.7370 C   0  0  0  0  0  0  0  0  0  0  0  0
  -20.1950   -0.8560  -30.0520 N   0  0  0  0  0  0  0  0  0  0  0  0
  -19.9680   -2.1100  -30.4030 C   0  0  2  0  0  0  0  0  0  0  0  0
  -20.0640   -2.2620  -31.7510 N   0  0  0  0  0  0  0  0  0  0  0  0
  -20.3610   -1.0900  -32.2670 C   0  0  0  0  0  0  0  0  0  0  0  0
  -20.4410   -0.1940  -31.1800 C   0  0  0  0  0  0  0  0  0  0  0  0
  -20.5580   -0.6800  -33.6600 C   0  0  0  0  0  0  0  0  0  0  0  0
  -19.8610    0.2810  -34.3190 C   0  0  0  0  0  0  0  0  0  0  0  0
  -20.1450    0.6730  -35.6270 C   0  0  0  0  0  0  0  0  0  0  0  0
  -21.1670    0.0840  -36.3190 C   0  0  0  0  0  0  0  0  0  0  0  0
  -21.8900   -0.8940  -35.6810 C   0  0  0  0  0  0  0  0  0  0  0  0
  -21.5980   -1.2690  -34.3880 C   0  0  0  0  0  0  0  0  0  0  0  0
  -21.4750    0.4600  -37.6380 O   0  0  0  0  0  0  0  0  0  0  0  0
  -21.1820   -0.3500  -38.7450 C   0  0  0  0  0  0  0  0  0  0  0  0
  -19.8200   -3.5020  -32.4330 C   0  0  0  0  0  0  0  0  0  0  0  0
  -20.9920   -4.4600  -32.2300 C   0  0  0  0  0  0  0  0  0  0  0  0
  -21.4690   -4.1950  -30.7980 C   0  0  0  0  0  0  0  0  0  0  0  0
  -20.3280   -4.4990  -29.8670 C   0  0  0  0  0  0  0  0  0  0  0  0
  -19.6740   -3.1860  -29.4070 C   0  0  0  0  0  0  0  0  0  0  0  0
  -17.7620   -0.9090  -23.9770 H   0  0  0  0  0  0  0  0  0  0  0  0
  -18.4120   -1.5480  -26.2430 H   0  0  0  0  0  0  0  0  0  0  0  0
  -18.3190    2.5630  -27.3750 H   0  0  0  0  0  0  0  0  0  0  0  0
  -17.6800    3.1720  -25.1400 H   0  0  0  0  0  0  0  0  0  0  0  0
  -20.6200   -0.9400  -27.9840 H   0  0  0  0  0  0  0  0  0  0  0  0
  -20.8270    0.6920  -28.7350 H   0  0  0  0  0  0  0  0  0  0  0  0
  -20.6750    0.8690  -31.2840 H   0  0  0  0  0  0  0  0  0  0  0  0
  -19.0320    0.7500  -33.8600 H   0  0  0  0  0  0  0  0  0  0  0  0
  -19.5620    1.4500  -36.1160 H   0  0  0  0  0  0  0  0  0  0  0  0
  -22.6950   -1.3560  -36.2320 H   0  0  0  0  0  0  0  0  0  0  0  0
  -22.1750   -2.0370  -33.8950 H   0  0  0  0  0  0  0  0  0  0  0  0
  -21.9340   -1.1670  -38.8060 H   0  0  0  0  0  0  0  0  0  0  0  0
  -21.1300    0.2440  -39.6890 H   0  0  0  0  0  0  0  0  0  0  0  0
  -20.1740   -0.8530  -38.6630 H   0  0  0  0  0  0  0  0  0  0  0  0
  -19.3880   -3.4690  -33.4080 H   0  0  0  0  0  0  0  0  0  0  0  0
  -18.9890   -4.0280  -31.8120 H   0  0  0  0  0  0  0  0  0  0  0  0
  -21.7720   -4.2510  -32.9680 H   0  0  0  0  0  0  0  0  0  0  0  0
  -20.6980   -5.5090  -32.2700 H   0  0  0  0  0  0  0  0  0  0  0  0
  -21.7240   -3.1030  -30.7160 H   0  0  0  0  0  0  0  0  0  0  0  0
  -22.3970   -4.7340  -30.5660 H   0  0  0  0  0  0  0  0  0  0  0  0
  -20.7660   -5.0250  -28.9890 H   0  0  0  0  0  0  0  0  0  0  0  0
  -19.5860   -5.2070  -30.2840 H   0  0  0  0  0  0  0  0  0  0  0  0
  -18.5600   -3.3010  -29.4160 H   0  0  0  0  0  0  0  0  0  0  0  0
  -19.9690   -2.9170  -28.3810 H   0  0  0  0  0  0  0  0  0  0  0  0
  2  1  1  0  0  0  0
  3  2  1  0  0  0  0
  3 29  1  0  0  0  0
  4  3  2  0  0  0  0
  5  6  2  0  0  0  0
  5  4  1  0  0  0  0
  6  7  1  0  0  0  0
  7 32  1  0  0  0  0
  7  2  2  0  0  0  0
  8  5  1  0  0  0  0
  9  8  2  0  0  0  0
 10 34  1  0  0  0  0
 10  8  1  0  0  0  0
 10 33  1  0  0  0  0
 11 10  1  0  0  0  0
 12 13  1  1  0  0  0
 12 11  1  0  0  0  0
 12 28  1  0  0  0  0
 14 13  1  0  0  0  0
 14 15  2  0  0  0  0
 15 11  1  0  0  0  0
 16 14  1  0  0  0  0
 17 36  1  0  0  0  0
 17 16  1  0  0  0  0
 18 17  2  0  0  0  0
 19 20  2  0  0  0  0
 19 18  1  0  0  0  0
 20 21  1  0  0  0  0
 21 39  1  0  0  0  0
 21 16  2  0  0  0  0
 22 19  1  0  0  0  0
 23 42  1  0  0  0  0
 23 22  1  0  0  0  0
 24 25  1  0  0  0  0
 24 44  1  0  0  0  0
 24 13  1  0  0  0  0
 25 26  1  0  0  0  0
 26 47  1  0  0  0  0
 26 48  1  0  0  0  0
 26 27  1  0  0  0  0
 27 28  1  0  0  0  0
 27 49  1  0  0  0  0
 28 52  1  0  0  0  0
 30  4  1  0  0  0  0
 31  6  1  0  0  0  0
 35 15  1  0  0  0  0
 37 18  1  0  0  0  0
 38 20  1  0  0  0  0
 40 23  1  0  0  0  0
 41 23  1  0  0  0  0
 43 24  1  0  0  0  0
 45 25  1  0  0  0  0
 46 25  1  0  0  0  0
 50 27  1  0  0  0  0
 51 28  1  0  0  0  0
M  END
>  <Pose>
1

>  <Score>
-5.46

$$$$
