
 OpenBabel03222201593D

 48 51  0  0  1  0  0  0  0  0999 V2000
  -20.0620    0.4930  -32.1920 Cl  0  0  0  0  0  0  0  0  0  0  0  0
  -19.9950   -0.9100  -31.1300 C   0  0  0  0  0  0  0  0  0  0  0  0
  -20.3860   -2.1220  -31.6480 C   0  0  0  0  0  0  0  0  0  0  0  0
  -20.3230   -3.2060  -30.7860 C   0  0  0  0  0  0  0  0  0  0  0  0
  -19.8970   -3.0390  -29.5220 N   0  0  0  0  0  0  0  0  0  0  0  0
  -19.5170   -1.8780  -29.0120 N   0  0  0  0  0  0  0  0  0  0  0  0
  -19.5670   -0.8060  -29.8210 C   0  0  0  0  0  0  0  0  0  0  0  0
  -19.2200    0.3360  -29.4040 O   0  0  0  0  0  0  0  0  0  0  0  0
  -19.0710   -1.7650  -27.6520 C   0  0  0  0  0  0  0  0  0  0  0  0
  -19.6110   -2.5730  -26.6740 C   0  0  0  0  0  0  0  0  0  0  0  0
  -19.1860   -2.4740  -25.3460 C   0  0  0  0  0  0  0  0  0  0  0  0
  -18.2210   -1.5650  -24.9940 C   0  0  0  0  0  0  0  0  0  0  0  0
  -17.6760   -0.7540  -25.9570 C   0  0  0  0  0  0  0  0  0  0  0  0
  -18.1040   -0.8640  -27.2570 C   0  0  0  0  0  0  0  0  0  0  0  0
  -20.8220   -2.2080  -32.9870 N   0  0  0  0  0  0  0  0  0  0  0  0
  -19.9600   -1.8230  -34.0990 C   0  0  0  0  0  0  0  0  0  0  0  0
  -20.6180   -0.5620  -34.6920 C   0  0  0  0  0  0  0  0  0  0  0  0
  -21.9960   -0.8100  -34.9830 N   0  0  0  0  0  0  0  0  0  0  0  0
  -22.4880   -2.1880  -34.7740 C   0  0  0  0  0  0  0  0  0  0  0  0
  -22.1380   -2.6750  -33.3820 C   0  0  0  0  0  0  0  0  0  0  0  0
  -22.8910    0.1840  -35.4560 C   0  0  0  0  0  0  0  0  0  0  0  0
  -23.2730    1.1370  -34.7130 O   0  0  0  0  0  0  0  0  0  0  0  0
  -23.4350    0.1820  -36.8250 C   0  0  1  0  0  0  0  0  0  0  0  0
  -22.4880    0.5460  -37.7310 O   0  0  0  0  0  0  0  0  0  0  0  0
  -22.7440   -0.1170  -38.9240 C   0  0  0  0  0  0  0  0  0  0  0  0
  -23.0880   -1.5110  -38.4160 C   0  0  0  0  0  0  0  0  0  0  0  0
  -23.9660   -1.1750  -37.2290 C   0  0  0  0  0  0  0  0  0  0  0  0
  -20.6290   -4.1650  -31.1840 H   0  0  0  0  0  0  0  0  0  0  0  0
  -20.3710   -3.3080  -26.8760 H   0  0  0  0  0  0  0  0  0  0  0  0
  -19.5960   -3.0990  -24.5610 H   0  0  0  0  0  0  0  0  0  0  0  0
  -17.8740   -1.4670  -23.9740 H   0  0  0  0  0  0  0  0  0  0  0  0
  -16.9200   -0.0290  -25.7290 H   0  0  0  0  0  0  0  0  0  0  0  0
  -17.6750   -0.2270  -28.0060 H   0  0  0  0  0  0  0  0  0  0  0  0
  -19.9870   -2.6140  -34.8660 H   0  0  0  0  0  0  0  0  0  0  0  0
  -18.9620   -1.5290  -33.7860 H   0  0  0  0  0  0  0  0  0  0  0  0
  -20.5540    0.1780  -33.8610 H   0  0  0  0  0  0  0  0  0  0  0  0
  -20.0070   -0.2220  -35.5520 H   0  0  0  0  0  0  0  0  0  0  0  0
  -21.9220   -2.8130  -35.4930 H   0  0  0  0  0  0  0  0  0  0  0  0
  -23.5550   -2.2390  -34.9810 H   0  0  0  0  0  0  0  0  0  0  0  0
  -22.1650   -3.7890  -33.3860 H   0  0  0  0  0  0  0  0  0  0  0  0
  -22.9280   -2.3440  -32.6810 H   0  0  0  0  0  0  0  0  0  0  0  0
  -24.3160    0.8650  -36.8010 H   0  0  0  0  0  0  0  0  0  0  0  0
  -23.5850    0.3280  -39.4860 H   0  0  0  0  0  0  0  0  0  0  0  0
  -21.8560   -0.1690  -39.5660 H   0  0  0  0  0  0  0  0  0  0  0  0
  -22.1770   -1.9970  -38.0440 H   0  0  0  0  0  0  0  0  0  0  0  0
  -23.6320   -2.0910  -39.1830 H   0  0  0  0  0  0  0  0  0  0  0  0
  -23.8830   -1.9300  -36.4230 H   0  0  0  0  0  0  0  0  0  0  0  0
  -24.9990   -1.1000  -37.6230 H   0  0  0  0  0  0  0  0  0  0  0  0
  1  2  1  0  0  0  0
  2  7  1  0  0  0  0
  3  2  2  0  0  0  0
  3  4  1  0  0  0  0
  4  5  2  0  0  0  0
  5  6  1  0  0  0  0
  6  9  1  0  0  0  0
  7  8  2  0  0  0  0
  7  6  1  0  0  0  0
  9 14  2  0  0  0  0
  9 10  1  0  0  0  0
 10 11  2  0  0  0  0
 11 12  1  0  0  0  0
 11 30  1  0  0  0  0
 12 31  1  0  0  0  0
 13 32  1  0  0  0  0
 13 12  2  0  0  0  0
 14 13  1  0  0  0  0
 15  3  1  0  0  0  0
 16 35  1  0  0  0  0
 16 15  1  0  0  0  0
 17 16  1  0  0  0  0
 17 36  1  0  0  0  0
 18 19  1  0  0  0  0
 18 17  1  0  0  0  0
 19 20  1  0  0  0  0
 20 15  1  0  0  0  0
 20 41  1  0  0  0  0
 21 18  1  0  0  0  0
 21 22  2  0  0  0  0
 23 42  1  6  0  0  0
 23 21  1  0  0  0  0
 24 23  1  0  0  0  0
 25 26  1  0  0  0  0
 25 24  1  0  0  0  0
 26 45  1  0  0  0  0
 26 27  1  0  0  0  0
 27 23  1  0  0  0  0
 27 47  1  0  0  0  0
 28  4  1  0  0  0  0
 29 10  1  0  0  0  0
 33 14  1  0  0  0  0
 34 16  1  0  0  0  0
 37 17  1  0  0  0  0
 38 19  1  0  0  0  0
 39 19  1  0  0  0  0
 40 20  1  0  0  0  0
 43 25  1  0  0  0  0
 44 25  1  0  0  0  0
 46 26  1  0  0  0  0
 48 27  1  0  0  0  0
M  END
>  <Pose>
1

>  <Score>
-5.85

$$$$
