
 OpenBabel03222201593D

 55 58  0  0  1  0  0  0  0  0999 V2000
  -21.3130   -0.9850  -41.0400 B   0  0  0  0  0  0  0  0  0  0  0  0
  -21.1230   -0.2760  -39.2750 C   0  0  0  0  0  0  0  0  0  0  0  0
  -22.2370    0.2170  -38.6600 C   0  0  0  0  0  0  0  0  0  0  0  0
  -22.1390    0.7320  -37.4010 C   0  0  0  0  0  0  0  0  0  0  0  0
  -20.9600    0.7930  -36.6820 C   0  0  0  0  0  0  0  0  0  0  0  0
  -19.8510    0.2880  -37.3260 C   0  0  0  0  0  0  0  0  0  0  0  0
  -19.9190   -0.2440  -38.6120 C   0  0  0  0  0  0  0  0  0  0  0  0
  -20.9660    1.3670  -35.3470 C   0  0  2  0  0  0  0  0  0  0  0  0
  -19.9830    2.3820  -35.1140 N   0  0  0  0  0  0  0  0  0  0  0  0
  -18.9840    1.9160  -34.2210 C   0  0  0  0  0  0  0  0  0  0  0  0
  -17.8760    2.4130  -33.9030 O   0  0  0  0  0  0  0  0  0  0  0  0
  -19.4460    0.6350  -33.6390 C   0  0  0  0  0  0  0  0  0  0  0  0
  -18.8340   -0.0800  -32.8070 O   0  0  0  0  0  0  0  0  0  0  0  0
  -20.7450    0.3960  -34.2410 C   0  0  0  0  0  0  0  0  0  0  0  0
  -21.5650   -0.5810  -33.8340 C   0  0  0  0  0  0  0  0  0  0  0  0
  -22.7590   -0.6710  -34.5600 O   0  0  0  0  0  0  0  0  0  0  0  0
  -21.2590   -1.4790  -32.7270 C   0  0  0  0  0  0  0  0  0  0  0  0
  -20.8350   -1.2360  -31.5340 O   0  0  0  0  0  0  0  0  0  0  0  0
  -20.6620   -2.2900  -30.7940 C   0  0  0  0  0  0  0  0  0  0  0  0
  -21.0040   -3.3980  -31.5550 C   0  0  0  0  0  0  0  0  0  0  0  0
  -21.3820   -2.8540  -32.7840 C   0  0  0  0  0  0  0  0  0  0  0  0
  -20.9110   -4.6560  -31.0080 C   0  0  0  0  0  0  0  0  0  0  0  0
  -20.4830   -4.8320  -29.7130 C   0  0  0  0  0  0  0  0  0  0  0  0
  -20.1390   -3.7280  -28.9430 C   0  0  0  0  0  0  0  0  0  0  0  0
  -20.2350   -2.4890  -29.4930 C   0  0  0  0  0  0  0  0  0  0  0  0
  -19.9020   -1.3720  -28.7560 O   0  0  0  0  0  0  0  0  0  0  0  0
  -18.6750   -0.6640  -28.8730 C   0  0  0  0  0  0  0  0  0  0  0  0
  -19.9750    3.7000  -35.6890 C   0  0  0  0  0  0  0  0  0  0  0  0
  -21.3570    4.3260  -35.6660 C   0  0  0  0  0  0  0  0  0  0  0  0
  -21.4830    5.3980  -34.7390 N   0  0  0  0  0  4  0  0  0  0  0  0
  -20.6250    5.3390  -33.5950 C   0  0  0  0  0  0  0  0  0  0  0  0
  -21.3560    6.6850  -35.4090 C   0  0  0  0  0  0  0  0  0  0  0  0
  -23.2120    0.2080  -39.1610 H   0  0  0  0  0  0  0  0  0  0  0  0
  -23.0630    1.1190  -36.9480 H   0  0  0  0  0  0  0  0  0  0  0  0
  -18.9170    0.3110  -36.8200 H   0  0  0  0  0  0  0  0  0  0  0  0
  -19.0420   -0.6290  -39.0850 H   0  0  0  0  0  0  0  0  0  0  0  0
  -21.9570    1.8990  -35.2050 H   0  0  0  0  0  0  0  0  0  0  0  0
  -21.7100   -3.4580  -33.6170 H   0  0  0  0  0  0  0  0  0  0  0  0
  -21.1730   -5.5210  -31.5930 H   0  0  0  0  0  0  0  0  0  0  0  0
  -20.3940   -5.7980  -29.2480 H   0  0  0  0  0  0  0  0  0  0  0  0
  -19.8010   -3.9010  -27.9110 H   0  0  0  0  0  0  0  0  0  0  0  0
  -18.8730    0.4020  -28.5810 H   0  0  0  0  0  0  0  0  0  0  0  0
  -17.9660   -1.1380  -28.1810 H   0  0  0  0  0  0  0  0  0  0  0  0
  -18.2710   -0.6450  -29.8880 H   0  0  0  0  0  0  0  0  0  0  0  0
  -19.5580    3.7090  -36.7150 H   0  0  0  0  0  0  0  0  0  0  0  0
  -19.3160    4.3650  -35.0900 H   0  0  0  0  0  0  0  0  0  0  0  0
  -22.1080    3.5190  -35.4590 H   0  0  0  0  0  0  0  0  0  0  0  0
  -21.6450    4.7080  -36.6790 H   0  0  0  0  0  0  0  0  0  0  0  0
  -22.4770    5.3720  -34.3630 H   0  0  0  0  0  0  0  0  0  0  0  0
  -20.9450    4.5010  -32.9380 H   0  0  0  0  0  0  0  0  0  0  0  0
  -19.5530    5.3250  -33.8250 H   0  0  0  0  0  0  0  0  0  0  0  0
  -20.8110    6.2770  -33.0110 H   0  0  0  0  0  0  0  0  0  0  0  0
  -20.2930    6.9360  -35.5250 H   0  0  0  0  0  0  0  0  0  0  0  0
  -21.7820    6.6290  -36.4300 H   0  0  0  0  0  0  0  0  0  0  0  0
  -21.8890    7.4410  -34.8030 H   0  0  0  0  0  0  0  0  0  0  0  0
  1  2  1  0  0  0  0
  2  3  2  0  0  0  0
  2  7  1  0  0  0  0
  3  4  1  0  0  0  0
  4 34  1  0  0  0  0
  4  5  2  0  0  0  0
  5  8  1  0  0  0  0
  6 35  1  0  0  0  0
  6  5  1  0  0  0  0
  7  6  2  0  0  0  0
  8 37  1  1  0  0  0
  8  9  1  0  0  0  0
  8 14  1  0  0  0  0
  9 10  1  0  0  0  0
 10 11  2  0  0  0  0
 10 12  1  0  0  0  0
 12 13  2  0  0  0  0
 14 15  2  0  0  0  0
 14 12  1  0  0  0  0
 15 17  1  0  0  0  0
 16 15  1  0  0  0  0
 17 18  1  0  0  0  0
 18 19  1  0  0  0  0
 19 25  1  0  0  0  0
 20 22  1  0  0  0  0
 20 19  2  0  0  0  0
 21 17  2  0  0  0  0
 21 20  1  0  0  0  0
 22 23  2  0  0  0  0
 23 40  1  0  0  0  0
 23 24  1  0  0  0  0
 24 41  1  0  0  0  0
 25 24  2  0  0  0  0
 25 26  1  0  0  0  0
 27 26  1  0  0  0  0
 27 42  1  0  0  0  0
 27 43  1  0  0  0  0
 28 29  1  0  0  0  0
 28  9  1  0  0  0  0
 28 46  1  0  0  0  0
 29 47  1  0  0  0  0
 29 30  1  0  0  0  0
 30 49  1  0  0  0  0
 30 31  1  0  0  0  0
 31 52  1  0  0  0  0
 31 50  1  0  0  0  0
 32 55  1  0  0  0  0
 32 30  1  0  0  0  0
 33  3  1  0  0  0  0
 36  7  1  0  0  0  0
 38 21  1  0  0  0  0
 39 22  1  0  0  0  0
 44 27  1  0  0  0  0
 45 28  1  0  0  0  0
 48 29  1  0  0  0  0
 51 31  1  0  0  0  0
 53 32  1  0  0  0  0
 54 32  1  0  0  0  0
M  END
>  <Pose>
1

>  <Score>
-6.48

$$$$
