
 OpenBabel03222201593D

 53 56  0  0  1  0  0  0  0  0999 V2000
  -19.4470   -0.4530  -29.1920 S   0  0  0  0  0  0  0  0  0  0  0  0
  -18.2700    0.4230  -28.8070 O   0  0  0  0  0  0  0  0  0  0  0  0
  -20.6800    0.3820  -28.9150 O   0  0  0  0  0  0  0  0  0  0  0  0
  -19.2800   -0.9100  -30.7760 N   0  0  0  0  0  0  0  0  0  0  0  0
  -18.0370   -1.0060  -31.3950 C   0  0  0  0  0  0  0  0  0  0  0  0
  -18.2450   -1.2380  -32.8980 C   0  0  0  0  0  0  0  0  0  0  0  0
  -19.3490   -0.4020  -33.3720 N   0  0  0  0  0  0  0  0  0  0  0  0
  -20.6260   -0.5960  -32.7120 C   0  0  0  0  0  0  0  0  0  0  0  0
  -20.3470   -1.4800  -31.4870 C   0  0  0  0  0  0  0  0  0  0  0  0
  -19.1380    0.5480  -34.4090 C   0  0  0  0  0  0  0  0  0  0  0  0
  -18.9750    1.7440  -34.0720 O   0  0  0  0  0  0  0  0  0  0  0  0
  -19.1150    0.1330  -35.8110 C   0  0  0  0  0  0  0  0  0  0  0  0
  -20.0640    0.9170  -36.7070 C   0  0  2  0  0  0  0  0  0  0  0  0
  -21.4300    0.8970  -36.2550 N   0  0  0  0  0  0  0  0  0  0  0  0
  -22.6020    0.2870  -36.7750 C   0  0  0  0  0  0  0  0  0  0  0  0
  -23.7380    0.7210  -36.4470 O   0  0  0  0  0  0  0  0  0  0  0  0
  -22.6710   -0.8580  -37.7080 C   0  0  0  0  0  0  0  0  0  0  0  0
  -21.6870   -1.2560  -38.6210 C   0  0  0  0  0  0  0  0  0  0  0  0
  -21.9050   -2.3490  -39.4110 C   0  0  0  0  0  0  0  0  0  0  0  0
  -23.0790   -3.1010  -39.3480 C   0  0  0  0  0  0  0  0  0  0  0  0
  -24.0400   -2.6800  -38.4280 C   0  0  0  0  0  0  0  0  0  0  0  0
  -23.8340   -1.5790  -37.6260 C   0  0  0  0  0  0  0  0  0  0  0  0
  -20.4340   -0.6200  -38.8230 N   0  0  0  0  0  0  0  0  0  0  0  0
  -19.8770    0.4880  -38.1100 C   0  0  0  0  0  0  0  0  0  0  0  0
  -19.0980    1.1950  -38.8410 O   0  0  0  0  0  0  0  0  0  0  0  0
  -19.4530   -1.8050  -28.0530 C   0  0  0  0  0  0  0  0  0  0  0  0
  -20.0090   -3.0200  -28.3790 C   0  0  0  0  0  0  0  0  0  0  0  0
  -19.9940   -4.0420  -27.4560 C   0  0  0  0  0  0  0  0  0  0  0  0
  -19.4410   -3.9160  -26.1950 C   0  0  0  0  0  0  0  0  0  0  0  0
  -18.8800   -2.6880  -25.8680 C   0  0  0  0  0  0  0  0  0  0  0  0
  -18.8980   -1.6700  -26.7940 C   0  0  0  0  0  0  0  0  0  0  0  0
  -19.4160   -5.1970  -25.0290 Cl  0  0  0  0  0  0  0  0  0  0  0  0
  -17.3920   -1.8610  -31.0320 H   0  0  0  0  0  0  0  0  0  0  0  0
  -17.4040   -0.0880  -31.3510 H   0  0  0  0  0  0  0  0  0  0  0  0
  -18.5190   -2.2860  -33.0990 H   0  0  0  0  0  0  0  0  0  0  0  0
  -17.3200   -1.0280  -33.4670 H   0  0  0  0  0  0  0  0  0  0  0  0
  -21.0110    0.3580  -32.2860 H   0  0  0  0  0  0  0  0  0  0  0  0
  -21.3430   -1.1040  -33.3540 H   0  0  0  0  0  0  0  0  0  0  0  0
  -20.1010   -2.5050  -31.8950 H   0  0  0  0  0  0  0  0  0  0  0  0
  -21.2840   -1.6060  -30.8910 H   0  0  0  0  0  0  0  0  0  0  0  0
  -18.0880    0.3260  -36.2590 H   0  0  0  0  0  0  0  0  0  0  0  0
  -19.2770   -0.9550  -35.9350 H   0  0  0  0  0  0  0  0  0  0  0  0
  -19.7120    1.9920  -36.6450 H   0  0  0  0  0  0  0  0  0  0  0  0
  -21.6520    1.4330  -35.3570 H   0  0  0  0  0  0  0  0  0  0  0  0
  -21.1500   -2.6490  -40.1110 H   0  0  0  0  0  0  0  0  0  0  0  0
  -23.2390   -3.9570  -39.9720 H   0  0  0  0  0  0  0  0  0  0  0  0
  -24.9450   -3.2680  -38.3830 H   0  0  0  0  0  0  0  0  0  0  0  0
  -24.5740   -1.2530  -36.9160 H   0  0  0  0  0  0  0  0  0  0  0  0
  -19.8680   -1.0150  -39.5740 H   0  0  0  0  0  0  0  0  0  0  0  0
  -20.4560   -3.2010  -29.3360 H   0  0  0  0  0  0  0  0  0  0  0  0
  -20.4350   -5.0200  -27.7120 H   0  0  0  0  0  0  0  0  0  0  0  0
  -18.4490   -2.5770  -24.8890 H   0  0  0  0  0  0  0  0  0  0  0  0
  -18.4570   -0.7330  -26.5050 H   0  0  0  0  0  0  0  0  0  0  0  0
  1  3  2  0  0  0  0
  1  2  2  0  0  0  0
  1 26  1  0  0  0  0
  4  1  1  0  0  0  0
  5 34  1  0  0  0  0
  5 33  1  0  0  0  0
  5  4  1  0  0  0  0
  6  5  1  0  0  0  0
  7  6  1  0  0  0  0
  7  8  1  0  0  0  0
  8 37  1  0  0  0  0
  8  9  1  0  0  0  0
  9 40  1  0  0  0  0
  9  4  1  0  0  0  0
 10 11  2  0  0  0  0
 10  7  1  0  0  0  0
 12 10  1  0  0  0  0
 13 43  1  1  0  0  0
 13 14  1  0  0  0  0
 13 12  1  0  0  0  0
 14 44  1  0  0  0  0
 15 16  2  0  0  0  0
 15 14  1  0  0  0  0
 17 22  1  0  0  0  0
 17 15  1  0  0  0  0
 18 17  2  0  0  0  0
 19 20  2  0  0  0  0
 19 18  1  0  0  0  0
 20 21  1  0  0  0  0
 21 47  1  0  0  0  0
 21 22  2  0  0  0  0
 22 48  1  0  0  0  0
 23 18  1  0  0  0  0
 23 24  1  0  0  0  0
 24 13  1  0  0  0  0
 25 24  2  0  0  0  0
 26 31  1  0  0  0  0
 27 26  2  0  0  0  0
 27 28  1  0  0  0  0
 28 29  2  0  0  0  0
 29 30  1  0  0  0  0
 29 32  1  0  0  0  0
 30 52  1  0  0  0  0
 31 53  1  0  0  0  0
 31 30  2  0  0  0  0
 35  6  1  0  0  0  0
 36  6  1  0  0  0  0
 38  8  1  0  0  0  0
 39  9  1  0  0  0  0
 41 12  1  0  0  0  0
 42 12  1  0  0  0  0
 45 19  1  0  0  0  0
 46 20  1  0  0  0  0
 49 23  1  0  0  0  0
 50 27  1  0  0  0  0
 51 28  1  0  0  0  0
M  END
>  <Pose>
1

>  <Score>
-7.39

$$$$
