
 OpenBabel03222201593D

 53 54  0  0  1  0  0  0  0  0999 V2000
  -21.0230   -4.0790  -29.9730 Cl  0  0  0  0  0  0  0  0  0  0  0  0
  -20.1590   -3.7250  -28.4810 C   0  0  0  0  0  0  0  0  0  0  0  0
  -19.6690   -2.4520  -28.3150 C   0  0  0  0  0  0  0  0  0  0  0  0
  -19.0820   -2.1510  -27.1080 C   0  0  0  0  0  0  0  0  0  0  0  0
  -18.6310   -0.8850  -27.2470 N   0  0  0  0  0  0  0  0  0  0  0  0
  -18.9030   -0.4510  -28.4490 N   0  0  0  0  0  0  0  0  0  0  0  0
  -19.5710   -1.4010  -29.1990 C   0  0  0  0  0  0  0  0  0  0  0  0
  -20.1410   -1.2110  -30.5090 C   0  0  0  0  0  0  0  0  0  0  0  0
  -19.4550   -0.2660  -31.4040 N   0  0  0  0  0  0  0  0  0  0  0  0
  -20.4560    0.1330  -32.4200 C   0  0  0  0  0  0  0  0  0  0  0  0
  -20.1940   -0.8000  -33.5120 C   0  0  0  0  0  0  0  0  0  0  0  0
  -18.6940   -0.6220  -33.6810 C   0  0  2  0  0  0  0  0  0  0  0  0
  -18.3470   -0.7120  -32.1340 C   0  0  0  0  0  0  0  0  0  0  0  0
  -18.3440    0.7940  -34.0380 C   0  0  0  0  0  0  0  0  0  0  0  0
  -17.7590    0.8170  -35.3320 O   0  0  0  0  0  0  0  0  0  0  0  0
  -20.9050   -0.5110  -34.8110 C   0  0  0  0  0  0  0  0  0  0  0  0
  -22.2950   -0.3290  -34.5340 N   0  0  0  0  0  0  0  0  0  0  0  0
  -22.5480    0.1450  -33.1890 C   0  0  0  0  0  0  0  0  0  0  0  0
  -23.2950    1.4570  -33.1400 C   0  0  0  0  0  0  0  0  0  0  0  0
  -24.4690    1.4600  -33.8580 O   0  0  0  0  0  0  0  0  0  0  0  0
  -24.3900    0.7070  -35.0260 C   0  0  0  0  0  0  0  0  0  0  0  0
  -22.9560    0.5820  -35.4400 C   0  0  0  0  0  0  0  0  0  0  0  0
  -18.0390   -0.0960  -26.1530 C   0  0  0  0  0  0  0  0  0  0  0  0
  -18.9640   -3.0580  -26.0990 C   0  0  0  0  0  0  0  0  0  0  0  0
  -19.4630   -4.3500  -26.2870 C   0  0  0  0  0  0  0  0  0  0  0  0
  -20.0630   -4.6750  -27.4990 C   0  0  0  0  0  0  0  0  0  0  0  0
  -20.5410   -2.0040  -31.0870 H   0  0  0  0  0  0  0  0  0  0  0  0
  -21.1040   -0.5640  -30.2960 H   0  0  0  0  0  0  0  0  0  0  0  0
  -21.4650    0.2420  -32.0320 H   0  0  0  0  0  0  0  0  0  0  0  0
  -20.1720    1.1840  -32.7160 H   0  0  0  0  0  0  0  0  0  0  0  0
  -20.3410   -1.8480  -33.2960 H   0  0  0  0  0  0  0  0  0  0  0  0
  -18.2240   -1.4200  -34.2150 H   0  0  0  0  0  0  0  0  0  0  0  0
  -17.9680   -1.6960  -32.0240 H   0  0  0  0  0  0  0  0  0  0  0  0
  -17.4620    0.0060  -32.0260 H   0  0  0  0  0  0  0  0  0  0  0  0
  -17.4440    1.1170  -33.3820 H   0  0  0  0  0  0  0  0  0  0  0  0
  -19.0590    1.5660  -33.9320 H   0  0  0  0  0  0  0  0  0  0  0  0
  -17.3530   -0.1240  -35.4610 H   0  0  0  0  0  0  0  0  0  0  0  0
  -20.4980    0.4410  -35.1760 H   0  0  0  0  0  0  0  0  0  0  0  0
  -20.7200   -1.2860  -35.5650 H   0  0  0  0  0  0  0  0  0  0  0  0
  -23.0970   -0.6340  -32.6450 H   0  0  0  0  0  0  0  0  0  0  0  0
  -21.5790    0.3220  -32.6380 H   0  0  0  0  0  0  0  0  0  0  0  0
  -22.5990    2.2580  -33.3990 H   0  0  0  0  0  0  0  0  0  0  0  0
  -23.5800    1.5880  -32.0630 H   0  0  0  0  0  0  0  0  0  0  0  0
  -24.8270   -0.2810  -34.8040 H   0  0  0  0  0  0  0  0  0  0  0  0
  -24.9860    1.2340  -35.8170 H   0  0  0  0  0  0  0  0  0  0  0  0
  -22.8690    0.2240  -36.4870 H   0  0  0  0  0  0  0  0  0  0  0  0
  -22.4630    1.5640  -35.3080 H   0  0  0  0  0  0  0  0  0  0  0  0
  -18.7470   -0.1840  -25.2540 H   0  0  0  0  0  0  0  0  0  0  0  0
  -18.0820    0.9830  -26.3770 H   0  0  0  0  0  0  0  0  0  0  0  0
  -17.1200   -0.5350  -25.8440 H   0  0  0  0  0  0  0  0  0  0  0  0
  -18.3920   -2.8670  -25.1620 H   0  0  0  0  0  0  0  0  0  0  0  0
  -19.3550   -5.1060  -25.5580 H   0  0  0  0  0  0  0  0  0  0  0  0
  -20.4720   -5.6370  -27.7020 H   0  0  0  0  0  0  0  0  0  0  0  0
  1  2  1  0  0  0  0
  2  3  2  0  0  0  0
  2 26  1  0  0  0  0
  3  4  1  0  0  0  0
  4 24  2  0  0  0  0
  5  4  1  0  0  0  0
  5 23  1  0  0  0  0
  6  5  1  0  0  0  0
  7  6  2  0  0  0  0
  7  3  1  0  0  0  0
  8 28  1  0  0  0  0
  8  7  1  0  0  0  0
  9  8  1  0  0  0  0
 10 29  1  0  0  0  0
 11 31  1  0  0  0  0
 12 32  1  6  0  0  0
 12 11  1  0  0  0  0
 12 13  1  0  0  0  0
 13 34  1  0  0  0  0
 13 33  1  0  0  0  0
 13  9  1  0  0  0  0
 14 36  1  0  0  0  0
 14 12  1  0  0  0  0
 14 35  1  0  0  0  0
 15 14  1  0  0  0  0
 16 17  1  0  0  0  0
 16 11  1  0  0  0  0
 17 18  1  0  0  0  0
 18 19  1  0  0  0  0
 18 40  1  0  0  0  0
 18 41  1  0  0  0  0
 19 43  1  0  0  0  0
 20 19  1  0  0  0  0
 21 44  1  0  0  0  0
 21 20  1  0  0  0  0
 22 47  1  0  0  0  0
 22 21  1  0  0  0  0
 22 17  1  0  0  0  0
 23 50  1  0  0  0  0
 23 48  1  0  0  0  0
 24 51  1  0  0  0  0
 25 24  1  0  0  0  0
 25 52  1  0  0  0  0
 26 25  2  0  0  0  0
 27  8  1  0  0  0  0
 30 10  1  0  0  0  0
 37 15  1  0  0  0  0
 38 16  1  0  0  0  0
 39 16  1  0  0  0  0
 42 19  1  0  0  0  0
 45 21  1  0  0  0  0
 46 22  1  0  0  0  0
 49 23  1  0  0  0  0
 53 26  1  0  0  0  0
M  END
>  <Pose>
1

>  <Score>
-5.91

$$$$
