
 OpenBabel03222201593D

 55 59  0  0  1  0  0  0  0  0999 V2000
  -23.7310   -1.7830  -36.9590 B   0  0  0  0  0  0  0  0  0  0  0  0
  -22.7820   -1.6830  -35.3200 C   0  0  0  0  0  0  0  0  0  0  0  0
  -22.4690   -0.4880  -34.7420 C   0  0  0  0  0  0  0  0  0  0  0  0
  -21.7770   -0.4530  -33.5470 C   0  0  0  0  0  0  0  0  0  0  0  0
  -21.3590   -1.5930  -32.8610 C   0  0  0  0  0  0  0  0  0  0  0  0
  -21.6770   -2.7790  -33.4470 C   0  0  0  0  0  0  0  0  0  0  0  0
  -22.3860   -2.8210  -34.6720 C   0  0  0  0  0  0  0  0  0  0  0  0
  -20.6200   -1.4180  -31.6070 C   0  0  0  0  0  0  0  0  0  0  0  0
  -20.8120   -2.2760  -30.5090 C   0  0  0  0  0  0  0  0  0  0  0  0
  -20.0030   -1.9020  -29.5200 N   0  0  0  0  0  0  0  0  0  0  0  0
  -19.6360   -2.2170  -28.2500 C   0  0  0  0  0  0  0  0  0  0  0  0
  -18.6860   -1.3250  -27.8880 C   0  0  0  0  0  0  0  0  0  0  0  0
  -18.5000   -0.5000  -28.9280 N   0  0  0  0  0  0  0  0  0  0  0  0
  -19.3130   -0.8460  -29.9520 C   0  0  1  0  0  0  0  0  0  0  0  0
  -19.6820   -0.5340  -31.2370 N   0  0  0  0  0  0  0  0  0  0  0  0
  -19.1100    0.5320  -31.9910 C   0  0  0  0  0  0  0  0  0  0  0  0
  -18.2300    0.1170  -33.1420 C   0  0  0  0  0  0  0  0  0  0  0  0
  -18.8890   -0.1560  -34.4190 C   0  0  0  0  0  0  0  0  0  0  0  0
  -18.3120    0.3360  -35.6360 N   0  0  0  0  0  4  0  0  0  0  0  0
  -18.9160   -0.2560  -36.8160 C   0  0  0  0  0  0  0  0  0  0  0  0
  -20.1040    0.4230  -37.3510 C   0  0  0  0  0  0  0  0  0  0  0  0
  -20.4050    1.7710  -36.8090 C   0  0  0  0  0  0  0  0  0  0  0  0
  -19.1570    2.5080  -36.4730 C   0  0  0  0  0  0  0  0  0  0  0  0
  -18.1470    1.7440  -35.7020 C   0  0  0  0  0  0  0  0  0  0  0  0
  -18.1070   -1.3840  -26.6320 C   0  0  0  0  0  0  0  0  0  0  0  0
  -18.4870   -2.3580  -25.7230 C   0  0  0  0  0  0  0  0  0  0  0  0
  -19.4620   -3.2740  -26.0960 C   0  0  0  0  0  0  0  0  0  0  0  0
  -20.0170   -3.1840  -27.3520 C   0  0  0  0  0  0  0  0  0  0  0  0
  -22.7780    0.4170  -35.2450 H   0  0  0  0  0  0  0  0  0  0  0  0
  -21.5600    0.5290  -33.1350 H   0  0  0  0  0  0  0  0  0  0  0  0
  -21.4040   -3.7000  -33.0150 H   0  0  0  0  0  0  0  0  0  0  0  0
  -22.6160   -3.7810  -35.0970 H   0  0  0  0  0  0  0  0  0  0  0  0
  -21.4830   -3.1120  -30.4160 H   0  0  0  0  0  0  0  0  0  0  0  0
  -17.8150    0.2990  -28.9590 H   0  0  0  0  0  0  0  0  0  0  0  0
  -18.6520    1.3210  -31.3780 H   0  0  0  0  0  0  0  0  0  0  0  0
  -20.0220    1.0930  -32.4220 H   0  0  0  0  0  0  0  0  0  0  0  0
  -17.7700   -0.8720  -32.8100 H   0  0  0  0  0  0  0  0  0  0  0  0
  -17.3180    0.7620  -33.2150 H   0  0  0  0  0  0  0  0  0  0  0  0
  -19.9200    0.3110  -34.3700 H   0  0  0  0  0  0  0  0  0  0  0  0
  -19.1330   -1.2580  -34.5000 H   0  0  0  0  0  0  0  0  0  0  0  0
  -17.3530   -0.0780  -35.6540 H   0  0  0  0  0  0  0  0  0  0  0  0
  -18.1890   -0.4050  -37.6440 H   0  0  0  0  0  0  0  0  0  0  0  0
  -19.1790   -1.3120  -36.5000 H   0  0  0  0  0  0  0  0  0  0  0  0
  -21.0230   -0.2130  -37.1770 H   0  0  0  0  0  0  0  0  0  0  0  0
  -20.0700    0.5080  -38.4790 H   0  0  0  0  0  0  0  0  0  0  0  0
  -20.9710    2.3530  -37.5660 H   0  0  0  0  0  0  0  0  0  0  0  0
  -21.1150    1.7020  -35.9300 H   0  0  0  0  0  0  0  0  0  0  0  0
  -19.4530    3.4340  -35.9130 H   0  0  0  0  0  0  0  0  0  0  0  0
  -18.7260    2.8980  -37.4360 H   0  0  0  0  0  0  0  0  0  0  0  0
  -18.1410    2.1220  -34.6390 H   0  0  0  0  0  0  0  0  0  0  0  0
  -17.1360    2.0470  -36.0920 H   0  0  0  0  0  0  0  0  0  0  0  0
  -17.3490   -0.6730  -26.3400 H   0  0  0  0  0  0  0  0  0  0  0  0
  -18.0500   -2.4280  -24.7340 H   0  0  0  0  0  0  0  0  0  0  0  0
  -19.7380   -4.0190  -25.3690 H   0  0  0  0  0  0  0  0  0  0  0  0
  -20.7640   -3.8910  -27.6310 H   0  0  0  0  0  0  0  0  0  0  0  0
  1  2  1  0  0  0  0
  2  3  2  0  0  0  0
  2  7  1  0  0  0  0
  3  4  1  0  0  0  0
  4 30  1  0  0  0  0
  4  5  2  0  0  0  0
  5  8  1  0  0  0  0
  6 31  1  0  0  0  0
  6  5  1  0  0  0  0
  7  6  2  0  0  0  0
  8 15  1  0  0  0  0
  8  9  2  0  0  0  0
  9 33  1  0  0  0  0
  9 10  1  0  0  0  0
 10 11  1  0  0  0  0
 11 12  2  0  0  0  0
 11 28  1  0  0  0  0
 12 25  1  0  0  0  0
 13 12  1  0  0  0  0
 14 15  1  6  0  0  0
 14 10  1  0  0  0  0
 14 13  1  0  0  0  0
 16 35  1  0  0  0  0
 16 15  1  0  0  0  0
 17 37  1  0  0  0  0
 17 16  1  0  0  0  0
 18 39  1  0  0  0  0
 18 17  1  0  0  0  0
 19 18  1  0  0  0  0
 20 43  1  0  0  0  0
 20 19  1  0  0  0  0
 21 44  1  0  0  0  0
 21 20  1  0  0  0  0
 21 22  1  0  0  0  0
 22 23  1  0  0  0  0
 22 47  1  0  0  0  0
 23 48  1  0  0  0  0
 23 24  1  0  0  0  0
 24 19  1  0  0  0  0
 24 50  1  0  0  0  0
 25 52  1  0  0  0  0
 25 26  2  0  0  0  0
 26 53  1  0  0  0  0
 27 26  1  0  0  0  0
 27 54  1  0  0  0  0
 28 27  2  0  0  0  0
 29  3  1  0  0  0  0
 32  7  1  0  0  0  0
 34 13  1  0  0  0  0
 36 16  1  0  0  0  0
 38 17  1  0  0  0  0
 40 18  1  0  0  0  0
 41 19  1  0  0  0  0
 42 20  1  0  0  0  0
 45 21  1  0  0  0  0
 46 22  1  0  0  0  0
 49 23  1  0  0  0  0
 51 24  1  0  0  0  0
 55 28  1  0  0  0  0
M  END
>  <Pose>
1

>  <Score>
-6.59

$$$$
