/Users/jonathanwahrer/Desktop/Msc/3_Semester/Drug_Design_Praktikum/waehrer_HTS_screening/HTS_experiment/out/docking_results/vina_output/3npc/0002_docked.pdbqt
 OpenBabel03192219063D

 38 41  0  0  0  0  0  0  0  0999 V2000
   53.8480   85.4260   25.8750 C   0  0  0  0  0  0  0  0  0  0  0  0
   54.7310   86.3760   26.3430 N   0  0  0  0  0  0  0  0  0  0  0  0
   55.5370   86.6770   25.3760 N   0  0  0  0  0  0  0  0  0  0  0  0
   55.2110   85.9480   24.2730 N   0  0  0  0  0  0  0  0  0  0  0  0
   54.1700   85.1650   24.5490 C   0  0  0  0  0  0  0  0  0  0  0  0
   52.8000   84.8680   26.6950 C   0  0  0  0  0  0  0  0  0  0  0  0
   51.4430   85.1990   26.7820 N   0  0  0  0  0  0  0  0  0  0  0  0
   50.9780   85.9130   26.2450 H   0  0  0  0  0  0  0  0  0  0  0  0
   53.1930   83.8990   27.4770 O   0  0  0  0  0  0  0  0  0  0  0  0
   50.6580   84.4400   27.7160 N   0  0  0  0  0  0  0  0  0  0  0  0
   50.2410   84.9780   28.8000 C   0  0  0  0  0  3  0  0  0  0  0  0
   49.4360   84.2440   29.7860 C   0  0  0  0  0  0  0  0  0  0  0  0
   49.7380   84.2380   31.1320 C   0  0  0  0  0  3  0  0  0  0  0  0
   48.9730   83.5430   32.0540 C   0  0  0  0  0  0  0  0  0  0  0  0
   47.8680   82.8260   31.6510 C   0  0  0  0  0  0  0  0  0  0  0  0
   49.3930   83.5360   33.9200 Br  0  0  0  0  0  0  0  0  0  0  0  0
   47.5620   82.8290   30.3030 C   0  0  0  0  0  0  0  0  0  0  0  0
   47.0750   82.1140   32.5530 O   0  0  0  0  0  1  0  0  0  0  0  0
   46.0290   81.8370   29.7110 Br  0  0  0  0  0  0  0  0  0  0  0  0
   48.3280   83.5230   29.3890 C   0  0  0  0  0  0  0  0  0  0  0  0
   48.0240   83.5320   28.0160 O   0  0  0  0  0  0  0  0  0  0  0  0
   47.2410   82.9920   27.6800 H   0  0  0  0  0  0  0  0  0  0  0  0
   53.4720   84.2190   23.6800 C   0  0  0  0  0  2  0  0  0  0  0  0
   52.3200   84.6330   22.9720 N   0  0  0  0  0  4  0  0  0  0  0  0
   51.1350   83.8470   23.2850 C   0  0  0  0  0  2  0  0  0  0  0  0
   51.3990   82.4010   23.1470 C   0  0  0  0  0  2  0  0  0  0  0  0
   52.2560   81.9500   22.2300 O   0  0  0  0  0  0  0  0  0  0  0  0
   52.9360   82.8310   21.4530 C   0  0  0  0  0  2  0  0  0  0  0  0
   52.5450   84.2500   21.5400 C   0  0  0  0  0  2  0  0  0  0  0  0
   52.1590   85.6290   23.0130 H   0  0  0  0  0  0  0  0  0  0  0  0
   55.9740   86.1060   23.0740 C   0  0  0  0  0  0  0  0  0  0  0  0
   55.6370   86.0330   21.7930 N   0  0  0  0  0  0  0  0  0  0  0  0
   56.6950   86.2900   21.0950 O   0  0  0  0  0  0  0  0  0  0  0  0
   57.7220   86.5300   21.8490 N   0  0  0  0  0  0  0  0  0  0  0  0
   57.3390   86.4320   23.1150 C   0  0  0  0  0  0  0  0  0  0  0  0
   58.0960   86.6060   24.3020 N   0  0  0  0  0  0  0  0  0  0  0  0
   57.7270   87.2160   25.0600 H   0  0  0  0  0  0  0  0  0  0  0  0
   59.0350   86.1370   24.4530 H   0  0  0  0  0  0  0  0  0  0  0  0
  1  2  1  0  0  0  0
  1  6  1  0  0  0  0
  3  2  2  0  0  0  0
  4  5  1  0  0  0  0
  4  3  1  0  0  0  0
  5  1  2  0  0  0  0
  6  7  1  0  0  0  0
  6  9  2  0  0  0  0
  7 10  1  0  0  0  0
  8  7  1  0  0  0  0
 10 11  2  0  0  0  0
 11 12  1  0  0  0  0
 12 13  1  0  0  0  0
 13 14  2  0  0  0  0
 14 16  1  0  0  0  0
 15 14  1  0  0  0  0
 15 18  1  0  0  0  0
 17 15  2  0  0  0  0
 19 17  1  0  0  0  0
 20 12  2  0  0  0  0
 20 17  1  0  0  0  0
 21 20  1  0  0  0  0
 22 21  1  0  0  0  0
 23  5  1  0  0  0  0
 24 30  1  0  0  0  0
 24 25  1  0  0  0  0
 24 23  1  0  0  0  0
 26 25  1  0  0  0  0
 27 26  1  0  0  0  0
 28 29  1  0  0  0  0
 28 27  1  0  0  0  0
 29 24  1  0  0  0  0
 31 35  1  0  0  0  0
 31  4  1  0  0  0  0
 32 31  2  0  0  0  0
 33 32  1  0  0  0  0
 33 34  1  0  0  0  0
 34 35  2  0  0  0  0
 35 36  1  0  0  0  0
 36 38  1  0  0  0  0
 36 37  1  0  0  0  0
M  END
>  <Pose>
1

>  <Score>
-7.718

$$$$
