MODEL 1
REMARK VINA RESULT:    -7.718      0.000      0.000
REMARK INTER + INTRA:         -12.265
REMARK INTER:                 -10.876
REMARK INTRA:                  -1.389
REMARK UNBOUND:                -1.389
REMARK  8 active torsions:
REMARK  status: ('A' for Active; 'I' for Inactive)
REMARK    1  A    between atoms: C_6  and  C_9 
REMARK    2  A    between atoms: C_7  and  O_8 
REMARK    3  A    between atoms: N_10  and  N_11 
REMARK       I    between atoms: N_11  and  C_12 
REMARK    4  A    between atoms: C_12  and  C_14 
REMARK    5  A    between atoms: N_17  and  C_26 
REMARK    6  A    between atoms: C_18  and  C_19 
REMARK    7  A    between atoms: C_19  and  N_20 
REMARK    8  A    between atoms: C_30  and  N_31 
ROOT
ATOM      1  C   UNK d   1      53.848  85.426  25.875  0.00  0.00     0.162 A 
ATOM      2  N   UNK d   1      54.731  86.376  26.343  0.00  0.00    -0.125 NA
ATOM      3  N   UNK d   1      55.537  86.677  25.376  0.00  0.00    -0.058 NA
ATOM      4  N   UNK d   1      55.211  85.948  24.273  0.00  0.00    -0.191 N 
ATOM      5  C   UNK d   1      54.170  85.165  24.549  0.00  0.00     0.101 A 
ENDROOT
BRANCH   1   6
ATOM      6  C   UNK d   1      52.800  84.868  26.695  0.00  0.00     0.228 C 
ATOM      7  N   UNK d   1      51.443  85.199  26.782  0.00  0.00    -0.253 N 
ATOM      8  H   UNK d   1      50.978  85.913  26.245  0.00  0.00     0.191 HD
ATOM      9  O   UNK d   1      53.193  83.899  27.477  0.00  0.00    -0.168 OA
BRANCH   7  10
ATOM     10  N   UNK d   1      50.658  84.440  27.716  0.00  0.00    -0.184 NA
ATOM     11  C   UNK d   1      50.241  84.978  28.800  0.00  0.00     0.153 C 
BRANCH  11  12
ATOM     12  C   UNK d   1      49.436  84.244  29.786  0.00  0.00     0.019 A 
ATOM     13  C   UNK d   1      49.738  84.238  31.132  0.00  0.00     0.038 A 
ATOM     14  C   UNK d   1      48.973  83.543  32.054  0.00  0.00     0.049 A 
ATOM     15  C   UNK d   1      47.868  82.826  31.651  0.00  0.00     0.144 A 
ATOM     16 Br   UNK d   1      49.393  83.536  33.920  0.00  0.00    -0.048 Br
ATOM     17  C   UNK d   1      47.562  82.829  30.303  0.00  0.00     0.082 A 
ATOM     18  O   UNK d   1      47.075  82.114  32.553  0.00  0.00    -0.189 OA
ATOM     19 Br   UNK d   1      46.029  81.837  29.711  0.00  0.00    -0.045 Br
ATOM     20  C   UNK d   1      48.328  83.523  29.389  0.00  0.00     0.097 A 
BRANCH  20  21
ATOM     21  O   UNK d   1      48.024  83.532  28.016  0.00  0.00    -0.358 OA
ATOM     22  H   UNK d   1      47.241  82.992  27.680  0.00  0.00     0.217 HD
ENDBRANCH  20  21
ENDBRANCH  11  12
ENDBRANCH   7  10
ENDBRANCH   1   6
BRANCH   5  23
ATOM     23  C   UNK d   1      53.472  84.219  23.680  0.00  0.00     0.296 C 
BRANCH  23  24
ATOM     24  N   UNK d   1      52.320  84.633  22.972  0.00  0.00    -0.062 N 
ATOM     25  C   UNK d   1      51.135  83.847  23.285  0.00  0.00     0.261 C 
ATOM     26  C   UNK d   1      51.399  82.401  23.147  0.00  0.00     0.195 C 
ATOM     27  O   UNK d   1      52.256  81.950  22.230  0.00  0.00    -0.388 OA
ATOM     28  C   UNK d   1      52.936  82.831  21.453  0.00  0.00     0.195 C 
ATOM     29  C   UNK d   1      52.545  84.250  21.540  0.00  0.00     0.261 C 
ATOM     30  H   UNK d   1      52.159  85.629  23.013  0.00  0.00     0.280 HD
ENDBRANCH  23  24
ENDBRANCH   5  23
BRANCH   4  31
ATOM     31  C   UNK d   1      55.974  86.106  23.074  0.00  0.00     0.229 A 
ATOM     32  N   UNK d   1      55.637  86.033  21.793  0.00  0.00    -0.081 NA
ATOM     33  O   UNK d   1      56.695  86.290  21.095  0.00  0.00    -0.103 OA
ATOM     34  N   UNK d   1      57.722  86.530  21.849  0.00  0.00    -0.083 NA
ATOM     35  C   UNK d   1      57.339  86.432  23.115  0.00  0.00     0.201 A 
BRANCH  35  36
ATOM     36  N   UNK d   1      58.096  86.606  24.302  0.00  0.00    -0.379 N 
ATOM     37  H   UNK d   1      57.727  87.216  25.060  0.00  0.00     0.158 HD
ATOM     38  H   UNK d   1      59.035  86.137  24.453  0.00  0.00     0.158 HD
ENDBRANCH  35  36
ENDBRANCH   4  31
TORSDOF 8
ENDMDL
