MODEL 1
REMARK VINA RESULT:    -7.316      0.000      0.000
REMARK INTER + INTRA:         -12.045
REMARK INTER:                 -10.523
REMARK INTRA:                  -1.522
REMARK UNBOUND:                -1.522
REMARK  9 active torsions:
REMARK  status: ('A' for Active; 'I' for Inactive)
REMARK    1  A    between atoms: C_3  and  O_33 
REMARK    2  A    between atoms: C_6  and  C_9 
REMARK    3  A    between atoms: C_7  and  O_8 
REMARK    4  A    between atoms: N_10  and  N_11 
REMARK       I    between atoms: N_11  and  C_12 
REMARK    5  A    between atoms: C_12  and  C_14 
REMARK    6  A    between atoms: N_17  and  C_26 
REMARK    7  A    between atoms: C_18  and  C_19 
REMARK    8  A    between atoms: C_19  and  N_20 
REMARK    9  A    between atoms: C_30  and  N_31 
ROOT
ATOM      1  C   UNK d   1      53.875  85.486  24.209  0.00  0.00     0.176 A 
ATOM      2  N   UNK d   1      54.597  86.493  23.621  0.00  0.00    -0.124 NA
ATOM      3  N   UNK d   1      54.618  86.314  22.329  0.00  0.00    -0.058 NA
ATOM      4  N   UNK d   1      53.945  85.231  21.981  0.00  0.00    -0.191 N 
ATOM      5  C   UNK d   1      53.477  84.699  23.123  0.00  0.00     0.104 A 
ENDROOT
BRANCH   1   6
ATOM      6  C   UNK d   1      53.638  85.348  25.634  0.00  0.00     0.294 C 
ATOM      7  N   UNK d   1      52.431  85.277  26.316  0.00  0.00    -0.242 N 
ATOM      8  H   UNK d   1      51.467  85.315  25.908  0.00  0.00     0.192 HD
ATOM      9  O   UNK d   1      54.708  85.285  26.348  0.00  0.00    -0.264 OA
BRANCH   7  10
ATOM     10  N   UNK d   1      52.494  85.139  27.745  0.00  0.00    -0.183 NA
ATOM     11  C   UNK d   1      51.912  84.138  28.304  0.00  0.00     0.153 C 
BRANCH  11  12
ATOM     12  C   UNK d   1      51.915  83.904  29.739  0.00  0.00     0.019 A 
ATOM     13  C   UNK d   1      52.696  82.927  30.297  0.00  0.00     0.038 A 
ATOM     14  C   UNK d   1      52.713  82.688  31.668  0.00  0.00     0.046 A 
ATOM     15  C   UNK d   1      51.916  83.458  32.510  0.00  0.00     0.103 A 
ATOM     16 Br   UNK d   1      53.810  81.325  32.397  0.00  0.00    -0.048 Br
ATOM     17  C   UNK d   1      51.134  84.433  31.963  0.00  0.00     0.079 A 
ATOM     18 Br   UNK d   1      50.036  85.504  33.074  0.00  0.00    -0.045 Br
ATOM     19  C   UNK d   1      51.132  84.658  30.585  0.00  0.00     0.097 A 
BRANCH  15  20
ATOM     20  O   UNK d   1      51.947  83.204  33.874  0.00  0.00    -0.358 OA
ATOM     21  H   UNK d   1      52.709  83.529  34.446  0.00  0.00     0.217 HD
ENDBRANCH  15  20
BRANCH  19  22
ATOM     22  O   UNK d   1      50.345  85.643  30.009  0.00  0.00    -0.358 OA
ATOM     23  H   UNK d   1      50.685  86.166  29.212  0.00  0.00     0.217 HD
ENDBRANCH  19  22
ENDBRANCH  11  12
ENDBRANCH   7  10
ENDBRANCH   1   6
BRANCH   5  24
ATOM     24  C   UNK d   1      52.639  83.504  23.259  0.00  0.00     0.334 C 
BRANCH  24  25
ATOM     25  N   UNK d   1      51.219  83.785  23.489  0.00  0.00     0.098 N 
ATOM     26  C   UNK d   1      50.713  82.837  24.500  0.00  0.00     0.299 C 
ATOM     27  C   UNK d   1      51.156  81.456  24.163  0.00  0.00     0.198 C 
ATOM     28  O   UNK d   1      50.784  81.152  22.877  0.00  0.00    -0.388 OA
ATOM     29  C   UNK d   1      49.945  82.069  22.299  0.00  0.00     0.198 C 
ATOM     30  C   UNK d   1      50.483  83.475  22.241  0.00  0.00     0.299 C 
ENDBRANCH  24  25
ENDBRANCH   5  24
BRANCH   4  31
ATOM     31  C   UNK d   1      53.769  84.803  20.642  0.00  0.00     0.229 A 
ATOM     32  N   UNK d   1      54.509  83.941  19.913  0.00  0.00    -0.081 NA
ATOM     33  O   UNK d   1      53.993  83.814  18.719  0.00  0.00    -0.103 OA
ATOM     34  N   UNK d   1      52.924  84.560  18.603  0.00  0.00    -0.083 NA
ATOM     35  C   UNK d   1      52.755  85.188  19.778  0.00  0.00     0.201 A 
BRANCH  35  36
ATOM     36  N   UNK d   1      51.702  86.088  20.054  0.00  0.00    -0.379 N 
ATOM     37  H   UNK d   1      51.193  86.520  19.261  0.00  0.00     0.158 HD
ATOM     38  H   UNK d   1      51.417  86.335  21.018  0.00  0.00     0.158 HD
ENDBRANCH  35  36
ENDBRANCH   4  31
TORSDOF 9
ENDMDL
