MODEL 1
REMARK VINA RESULT:    -8.769      0.000      0.000
REMARK INTER + INTRA:         -12.983
REMARK INTER:                 -11.845
REMARK INTRA:                  -1.138
REMARK UNBOUND:                -1.138
REMARK  7 active torsions:
REMARK  status: ('A' for Active; 'I' for Inactive)
REMARK    1  A    between atoms: C_3  and  O_31 
REMARK    2  A    between atoms: C_6  and  C_9 
REMARK    3  A    between atoms: C_7  and  O_8 
REMARK    4  A    between atoms: N_10  and  N_11 
REMARK    5  A    between atoms: N_11  and  C_12 
REMARK    6  A    between atoms: C_14  and  N_24 
REMARK    7  A    between atoms: C_16  and  N_18 
ROOT
ATOM      1  C   UNK d   1      53.028  86.676  19.461  0.00  0.00     0.774 A 
ATOM      2  N   UNK d   1      53.079  87.919  18.986  0.00  0.00     0.133 NA
ATOM      3  C   UNK d   1      53.819  88.902  19.575  0.00  0.00     0.756 A 
ATOM      4  N   UNK d   1      54.497  88.552  20.666  0.00  0.00     0.131 NA
ATOM      5  C   UNK d   1      54.502  87.316  21.214  0.00  0.00     0.756 A 
ATOM      6  N   UNK d   1      53.735  86.392  20.562  0.00  0.00     0.133 NA
ENDROOT
BRANCH   1   7
ATOM      7  N   UNK d   1      52.245  85.679  18.818  0.00  0.00    -0.105 N 
ATOM      8  H   UNK d   1      51.253  85.787  18.581  0.00  0.00     0.208 HD
BRANCH   7   9
ATOM      9  N   UNK d   1      52.847  84.454  18.469  0.00  0.00    -0.171 NA
ATOM     10  C   UNK d   1      53.667  84.330  17.502  0.00  0.00     0.153 C 
BRANCH  10  11
ATOM     11  C   UNK d   1      54.301  83.078  17.123  0.00  0.00     0.019 A 
ATOM     12  C   UNK d   1      54.290  82.674  15.809  0.00  0.00     0.038 A 
ATOM     13  C   UNK d   1      54.886  81.487  15.422  0.00  0.00     0.046 A 
ATOM     14  C   UNK d   1      55.511  80.665  16.335  0.00  0.00     0.103 A 
ATOM     15 Br   UNK d   1      54.859  80.948  13.585  0.00  0.00    -0.048 Br
ATOM     16  C   UNK d   1      55.526  81.063  17.658  0.00  0.00     0.079 A 
ATOM     17 Br   UNK d   1      56.394  79.918  18.918  0.00  0.00    -0.045 Br
ATOM     18  C   UNK d   1      54.926  82.254  18.036  0.00  0.00     0.097 A 
BRANCH  14  19
ATOM     19  O   UNK d   1      56.116  79.467  15.964  0.00  0.00    -0.358 OA
ATOM     20  H   UNK d   1      57.097  79.457  15.737  0.00  0.00     0.217 HD
ENDBRANCH  14  19
BRANCH  18  21
ATOM     21  O   UNK d   1      54.948  82.638  19.356  0.00  0.00    -0.358 OA
ATOM     22  H   UNK d   1      55.173  83.602  19.617  0.00  0.00     0.217 HD
ENDBRANCH  18  21
ENDBRANCH  10  11
ENDBRANCH   7   9
ENDBRANCH   1   7
BRANCH   3  23
ATOM     23  N   UNK d   1      53.859  90.213  19.055  0.00  0.00    -0.209 N 
ATOM     24  C   UNK d   1      52.798  91.139  19.338  0.00  0.00     0.167 C 
ATOM     25  C   UNK d   1      52.410  91.796  18.023  0.00  0.00     0.188 C 
ATOM     26  O   UNK d   1      53.521  92.222  17.306  0.00  0.00    -0.388 OA
ATOM     27  C   UNK d   1      54.370  91.199  16.949  0.00  0.00     0.188 C 
ATOM     28  C   UNK d   1      54.967  90.625  18.240  0.00  0.00     0.167 C 
ENDBRANCH   3  23
BRANCH   5  29
ATOM     29  N   UNK d   1      55.235  86.991  22.370  0.00  0.00    -0.209 N 
ATOM     30  C   UNK d   1      54.652  86.204  23.411  0.00  0.00     0.167 C 
ATOM     31  C   UNK d   1      54.869  86.960  24.724  0.00  0.00     0.188 C 
ATOM     32  O   UNK d   1      55.474  88.182  24.523  0.00  0.00    -0.388 OA
ATOM     33  C   UNK d   1      56.687  88.117  23.884  0.00  0.00     0.188 C 
ATOM     34  C   UNK d   1      56.583  87.448  22.518  0.00  0.00     0.167 C 
ENDBRANCH   5  29
TORSDOF 7
ENDMDL
