/Users/jonathanwahrer/Desktop/Msc/3_Semester/Drug_Design_Praktikum/waehrer_HTS_screening/HTS_experiment/out/docking_results/vina_output/3npc/0004_docked.pdbqt
 OpenBabel03192219073D

 34 37  0  0  0  0  0  0  0  0999 V2000
   53.0280   86.6760   19.4610 C   0  0  0  0  0  0  0  0  0  0  0  0
   53.0790   87.9190   18.9860 N   0  0  0  0  0  4  0  0  0  0  0  0
   53.8190   88.9020   19.5750 C   0  0  0  0  0  0  0  0  0  0  0  0
   54.4970   88.5520   20.6660 N   0  0  0  0  0  0  0  0  0  0  0  0
   54.5020   87.3160   21.2140 C   0  0  0  0  0  0  0  0  0  0  0  0
   53.7350   86.3920   20.5620 N   0  0  0  0  0  2  0  0  0  0  0  0
   52.2450   85.6790   18.8180 N   0  0  0  0  0  0  0  0  0  0  0  0
   51.2530   85.7870   18.5810 H   0  0  0  0  0  0  0  0  0  0  0  0
   52.8470   84.4540   18.4690 N   0  0  0  0  0  0  0  0  0  0  0  0
   53.6670   84.3300   17.5020 C   0  0  0  0  0  3  0  0  0  0  0  0
   54.3010   83.0780   17.1230 C   0  0  0  0  0  0  0  0  0  0  0  0
   54.2900   82.6740   15.8090 C   0  0  0  0  0  3  0  0  0  0  0  0
   54.8860   81.4870   15.4220 C   0  0  0  0  0  0  0  0  0  0  0  0
   55.5110   80.6650   16.3350 C   0  0  0  0  0  0  0  0  0  0  0  0
   54.8590   80.9480   13.5850 Br  0  0  0  0  0  0  0  0  0  0  0  0
   55.5260   81.0630   17.6580 C   0  0  0  0  0  0  0  0  0  0  0  0
   56.3940   79.9180   18.9180 Br  0  0  0  0  0  0  0  0  0  0  0  0
   54.9260   82.2540   18.0360 C   0  0  0  0  0  0  0  0  0  0  0  0
   56.1160   79.4670   15.9640 O   0  0  0  0  0  0  0  0  0  0  0  0
   57.0970   79.4570   15.7370 H   0  0  0  0  0  0  0  0  0  0  0  0
   54.9480   82.6380   19.3560 O   0  0  0  0  0  0  0  0  0  0  0  0
   55.1730   83.6020   19.6170 H   0  0  0  0  0  0  0  0  0  0  0  0
   53.8590   90.2130   19.0550 N   0  0  0  0  0  0  0  0  0  0  0  0
   52.7980   91.1390   19.3380 C   0  0  0  0  0  2  0  0  0  0  0  0
   52.4100   91.7960   18.0230 C   0  0  0  0  0  2  0  0  0  0  0  0
   53.5210   92.2220   17.3060 O   0  0  0  0  0  0  0  0  0  0  0  0
   54.3700   91.1990   16.9490 C   0  0  0  0  0  2  0  0  0  0  0  0
   54.9670   90.6250   18.2400 C   0  0  0  0  0  2  0  0  0  0  0  0
   55.2350   86.9910   22.3700 N   0  0  0  0  0  0  0  0  0  0  0  0
   54.6520   86.2040   23.4110 C   0  0  0  0  0  2  0  0  0  0  0  0
   54.8690   86.9600   24.7240 C   0  0  0  0  0  2  0  0  0  0  0  0
   55.4740   88.1820   24.5230 O   0  0  0  0  0  0  0  0  0  0  0  0
   56.6870   88.1170   23.8840 C   0  0  0  0  0  2  0  0  0  0  0  0
   56.5830   87.4480   22.5180 C   0  0  0  0  0  2  0  0  0  0  0  0
  1  6  1  0  0  0  0
  2  1  2  0  0  0  0
  2  3  2  0  0  0  0
  3  4  1  0  0  0  0
  4  5  2  0  0  0  0
  5 29  1  0  0  0  0
  6  5  1  0  0  0  0
  7  1  1  0  0  0  0
  8  7  1  0  0  0  0
  9  7  1  0  0  0  0
 10  9  2  0  0  0  0
 11 10  1  0  0  0  0
 11 18  1  0  0  0  0
 12 11  2  0  0  0  0
 13 12  1  0  0  0  0
 13 14  2  0  0  0  0
 14 16  1  0  0  0  0
 15 13  1  0  0  0  0
 16 18  2  0  0  0  0
 16 17  1  0  0  0  0
 18 21  1  0  0  0  0
 19 14  1  0  0  0  0
 20 19  1  0  0  0  0
 21 22  1  0  0  0  0
 23 24  1  0  0  0  0
 23  3  1  0  0  0  0
 25 24  1  0  0  0  0
 26 25  1  0  0  0  0
 27 26  1  0  0  0  0
 27 28  1  0  0  0  0
 28 23  1  0  0  0  0
 29 34  1  0  0  0  0
 29 30  1  0  0  0  0
 30 31  1  0  0  0  0
 32 31  1  0  0  0  0
 33 32  1  0  0  0  0
 34 33  1  0  0  0  0
M  END
>  <Pose>
1

>  <Score>
-8.769

$$$$
