MODEL 1
REMARK VINA RESULT:    -8.099      0.000      0.000
REMARK INTER + INTRA:         -13.717
REMARK INTER:                 -12.359
REMARK INTRA:                  -1.358
REMARK UNBOUND:                -1.358
REMARK  10 active torsions:
REMARK  status: ('A' for Active; 'I' for Inactive)
REMARK    1  A    between atoms: C_3  and  O_10 
REMARK    2  A    between atoms: O_10  and  C_11 
REMARK    3  A    between atoms: C_11  and  C_12 
REMARK    4  A    between atoms: C_12  and  O_13 
REMARK    5  A    between atoms: C_12  and  C_14 
REMARK    6  A    between atoms: C_14  and  N_15 
REMARK    7  A    between atoms: C_19  and  N_20 
REMARK    8  A    between atoms: N_23  and  C_26 
REMARK    9  A    between atoms: C_26  and  C_27 
REMARK   10  A    between atoms: C_27  and  O_28 
ROOT
ATOM      1  N   UNK d   1      52.543  83.680  23.537  0.00  0.00    -0.171 N 
ATOM      2  C   UNK d   1      51.408  83.000  23.851  0.00  0.00     0.154 A 
ATOM      3  C   UNK d   1      51.200  83.058  25.203  0.00  0.00     0.184 A 
ATOM      4  N   UNK d   1      52.201  83.769  25.679  0.00  0.00    -0.044 NA
ATOM      5  C   UNK d   1      53.042  84.171  24.687  0.00  0.00     0.707 A 
ATOM      6  N   UNK d   1      50.135  82.487  25.846  0.00  0.00    -0.284 N 
ATOM      7  C   UNK d   1      49.252  81.837  25.078  0.00  0.00     0.352 A 
ATOM      8  O   UNK d   1      48.270  81.310  25.674  0.00  0.00    -0.244 OA
ATOM      9  N   UNK d   1      49.409  81.754  23.743  0.00  0.00    -0.164 NA
ATOM     10  C   UNK d   1      50.449  82.309  23.099  0.00  0.00     0.236 A 
ATOM     11  O   UNK d   1      50.583  82.214  21.733  0.00  0.00    -0.167 OA
ATOM     12  C   UNK d   1      50.020  82.605  27.293  0.00  0.00     0.163 C 
ENDROOT
BRANCH   1  13
ATOM     13  C   UNK d   1      53.081  83.839  22.233  0.00  0.00     0.182 C 
BRANCH  13  14
ATOM     14  C   UNK d   1      52.798  84.999  21.405  0.00  0.00     0.161 C 
BRANCH  14  15
ATOM     15  C   UNK d   1      53.789  85.764  20.635  0.00  0.00     0.209 C 
BRANCH  15  16
ATOM     16  O   UNK d   1      53.603  87.164  20.834  0.00  0.00    -0.346 OA
BRANCH  16  17
ATOM     17  C   UNK d   1      53.843  88.142  19.933  0.00  0.00     0.103 A 
ATOM     18  C   UNK d   1      54.938  88.998  20.128  0.00  0.00     0.047 A 
ATOM     19 Br   UNK d   1      56.024  88.708  21.677  0.00  0.00    -0.048 Br
ATOM     20  C   UNK d   1      55.228  90.007  19.246  0.00  0.00     0.041 A 
ATOM     21  C   UNK d   1      54.442  90.211  18.132  0.00  0.00     0.013 A 
ATOM     22  C   UNK d   1      53.363  89.385  17.919  0.00  0.00     0.041 A 
ATOM     23 Br   UNK d   1      54.921  91.638  16.964  0.00  0.00    -0.051 Br
ATOM     24  C   UNK d   1      53.082  88.360  18.830  0.00  0.00     0.047 A 
ATOM     25 Br   UNK d   1      51.574  87.293  18.466  0.00  0.00    -0.048 Br
ENDBRANCH  16  17
ENDBRANCH  15  16
ENDBRANCH  14  15
BRANCH  14  26
ATOM     26  O   UNK d   1      51.615  85.013  20.645  0.00  0.00    -0.392 OA
ATOM     27  H   UNK d   1      51.043  84.250  20.843  0.00  0.00     0.210 HD
ENDBRANCH  14  26
ENDBRANCH  13  14
ENDBRANCH   1  13
BRANCH   5  28
ATOM     28  N   UNK d   1      54.148  85.059  24.934  0.00  0.00    -0.212 N 
ATOM     29  C   UNK d   1      54.293  86.395  24.502  0.00  0.00     0.169 C 
ATOM     30  C   UNK d   1      55.615  86.944  25.106  0.00  0.00     0.255 C 
ATOM     31  N   UNK d   1      56.654  86.114  24.528  0.00  0.00    -0.066 N 
ATOM     32  C   UNK d   1      56.603  84.892  25.353  0.00  0.00     0.255 C 
ATOM     33  H   UNK d   1      56.449  85.801  23.555  0.00  0.00     0.280 HD
ATOM     34  C   UNK d   1      55.234  84.527  25.768  0.00  0.00     0.169 C 
BRANCH  31  35
ATOM     35  C   UNK d   1      57.960  86.729  24.649  0.00  0.00     0.260 C 
BRANCH  35  36
ATOM     36  C   UNK d   1      57.781  88.179  25.040  0.00  0.00     0.192 C 
BRANCH  36  37
ATOM     37  O   UNK d   1      58.611  88.464  26.131  0.00  0.00    -0.399 OA
ATOM     38  H   UNK d   1      58.096  88.439  26.984  0.00  0.00     0.209 HD
ENDBRANCH  36  37
ENDBRANCH  35  36
ENDBRANCH  31  35
ENDBRANCH   5  28
TORSDOF 10
ENDMDL
