/Users/jonathanwahrer/Desktop/Msc/3_Semester/Drug_Design_Praktikum/waehrer_HTS_screening/HTS_experiment/out/docking_results/vina_output/3npc/0006_docked.pdbqt
 OpenBabel03192219083D

 34 37  0  0  0  0  0  0  0  0999 V2000
   54.2820   88.7840   19.9510 N   0  0  0  0  0  0  0  0  0  0  0  0
   54.2220   89.4180   18.7510 C   0  0  0  0  0  0  0  0  0  0  0  0
   55.2240   90.3440   18.6590 C   0  0  0  0  0  0  0  0  0  0  0  0
   55.8910   90.2600   19.8210 N   0  0  0  0  0  0  0  0  0  0  0  0
   55.3150   89.3040   20.6160 C   0  0  0  0  0  0  0  0  0  0  0  0
   55.3300   91.0950   17.5070 C   0  0  0  0  0  3  0  0  0  0  0  0
   54.4540   90.9380   16.4460 C   0  0  0  0  0  3  0  0  0  0  0  0
   53.4500   89.9940   16.5680 C   0  0  0  0  0  3  0  0  0  0  0  0
   53.3420   89.2410   17.7190 C   0  0  0  0  0  3  0  0  0  0  0  0
   53.4190   87.7520   20.4360 C   0  0  0  0  0  2  0  0  0  0  0  0
   53.7080   86.4120   19.9850 C   0  0  0  0  0  0  0  0  0  0  0  0
   53.1000   85.8250   18.8490 N   0  0  0  0  0  0  0  0  0  0  0  0
   52.4090   86.4020   18.3220 H   0  0  0  0  0  0  0  0  0  0  0  0
   54.5350   85.7080   20.6090 O   0  0  0  0  0  0  0  0  0  0  0  0
   53.3570   84.5430   18.3930 N   0  0  0  0  0  0  0  0  0  0  0  0
   53.9290   84.2830   17.2800 C   0  0  0  0  0  3  0  0  0  0  0  0
   54.1480   82.9000   16.9030 C   0  0  0  0  0  0  0  0  0  0  0  0
   53.6380   82.4230   15.7350 C   0  0  0  0  0  0  0  0  0  0  0  0
   53.8520   81.1060   15.3870 C   0  0  0  0  0  0  0  0  0  0  0  0
   52.9080   83.2450   14.8960 O   0  0  0  0  0  1  0  0  0  0  0  0
   53.1320   80.4620   13.7540 Br  0  0  0  0  0  0  0  0  0  0  0  0
   54.5810   80.2740   16.2190 C   0  0  0  0  0  3  0  0  0  0  0  0
   55.0870   80.7750   17.3930 C   0  0  0  0  0  0  0  0  0  0  0  0
   54.8890   82.0830   17.7640 C   0  0  0  0  0  3  0  0  0  0  0  0
   56.0930   79.6130   18.5320 Br  0  0  0  0  0  0  0  0  0  0  0  0
   55.7970   88.9590   21.9480 C   0  0  0  0  0  0  0  0  0  0  0  0
   55.5340   89.6380   23.0720 N   0  0  0  0  0  0  0  0  0  0  0  0
   56.1340   89.0370   24.0840 O   0  0  0  0  0  0  0  0  0  0  0  0
   56.7780   87.9940   23.6660 N   0  0  0  0  0  0  0  0  0  0  0  0
   56.5960   87.9050   22.3300 C   0  0  0  0  0  0  0  0  0  0  0  0
   57.1250   86.9110   21.4730 N   0  0  0  0  0  4  0  0  0  0  0  0
   57.4510   87.2900   20.5740 H   0  0  0  0  0  0  0  0  0  0  0  0
   56.3230   86.2610   21.2490 H   0  0  0  0  0  0  0  0  0  0  0  0
   57.8680   86.3260   21.9380 H   0  0  0  0  0  0  0  0  0  0  0  0
  1 10  1  0  0  0  0
  1  5  1  0  0  0  0
  2  1  1  0  0  0  0
  3  2  1  0  0  0  0
  3  4  1  0  0  0  0
  4  5  2  0  0  0  0
  5 26  1  0  0  0  0
  6  3  2  0  0  0  0
  7  8  2  0  0  0  0
  7  6  1  0  0  0  0
  8  9  1  0  0  0  0
  9  2  2  0  0  0  0
 11 10  1  0  0  0  0
 11 14  2  0  0  0  0
 12 11  1  0  0  0  0
 13 12  1  0  0  0  0
 15 12  1  0  0  0  0
 16 15  2  0  0  0  0
 17 16  1  0  0  0  0
 17 24  1  0  0  0  0
 18 17  2  0  0  0  0
 19 18  1  0  0  0  0
 19 22  2  0  0  0  0
 20 18  1  0  0  0  0
 21 19  1  0  0  0  0
 22 23  1  0  0  0  0
 23 24  2  0  0  0  0
 23 25  1  0  0  0  0
 26 30  1  0  0  0  0
 26 27  2  0  0  0  0
 27 28  1  0  0  0  0
 29 28  1  0  0  0  0
 30 29  2  0  0  0  0
 31 34  1  0  0  0  0
 31 30  1  0  0  0  0
 32 31  1  0  0  0  0
 33 31  1  0  0  0  0
M  END
>  <Pose>
1

>  <Score>
-8.578

$$$$
