MODEL 1
REMARK VINA RESULT:    -8.578      0.000      0.000
REMARK INTER + INTRA:         -12.673
REMARK INTER:                 -11.337
REMARK INTRA:                  -1.336
REMARK UNBOUND:                -1.336
REMARK  6 active torsions:
REMARK  status: ('A' for Active; 'I' for Inactive)
REMARK    1  A    between atoms: C_4  and  C_9 
REMARK    2  A    between atoms: N_10  and  N_11 
REMARK       I    between atoms: N_11  and  C_12 
REMARK    3  A    between atoms: C_12  and  C_14 
REMARK    4  A    between atoms: C_14  and  N_15 
REMARK    5  A    between atoms: C_19  and  C_20 
REMARK    6  A    between atoms: C_24  and  N_25 
ROOT
ATOM      1  N   UNK d   1      54.282  88.784  19.951  0.00  0.00    -0.319 N 
ATOM      2  C   UNK d   1      54.222  89.418  18.751  0.00  0.00     0.065 A 
ATOM      3  C   UNK d   1      55.224  90.344  18.659  0.00  0.00     0.086 A 
ATOM      4  N   UNK d   1      55.891  90.260  19.821  0.00  0.00    -0.226 NA
ATOM      5  C   UNK d   1      55.315  89.304  20.616  0.00  0.00     0.167 A 
ATOM      6  C   UNK d   1      55.330  91.095  17.507  0.00  0.00     0.034 A 
ATOM      7  C   UNK d   1      54.454  90.938  16.446  0.00  0.00     0.002 A 
ATOM      8  C   UNK d   1      53.450  89.994  16.568  0.00  0.00     0.002 A 
ATOM      9  C   UNK d   1      53.342  89.241  17.719  0.00  0.00     0.032 A 
ENDROOT
BRANCH   1  10
ATOM     10  C   UNK d   1      53.419  87.752  20.436  0.00  0.00     0.235 C 
BRANCH  10  11
ATOM     11  C   UNK d   1      53.708  86.412  19.985  0.00  0.00     0.256 C 
ATOM     12  N   UNK d   1      53.100  85.825  18.849  0.00  0.00    -0.246 N 
ATOM     13  H   UNK d   1      52.409  86.402  18.322  0.00  0.00     0.192 HD
ATOM     14  O   UNK d   1      54.535  85.708  20.609  0.00  0.00    -0.270 OA
BRANCH  12  15
ATOM     15  N   UNK d   1      53.357  84.543  18.393  0.00  0.00    -0.184 NA
ATOM     16  C   UNK d   1      53.929  84.283  17.280  0.00  0.00     0.153 C 
BRANCH  16  17
ATOM     17  C   UNK d   1      54.148  82.900  16.903  0.00  0.00     0.022 A 
ATOM     18  C   UNK d   1      53.638  82.423  15.735  0.00  0.00     0.136 A 
ATOM     19  C   UNK d   1      53.852  81.106  15.387  0.00  0.00     0.049 A 
ATOM     20  O   UNK d   1      52.908  83.245  14.896  0.00  0.00    -0.190 OA
ATOM     21 Br   UNK d   1      53.132  80.462  13.754  0.00  0.00    -0.048 Br
ATOM     22  C   UNK d   1      54.581  80.274  16.219  0.00  0.00     0.041 A 
ATOM     23  C   UNK d   1      55.087  80.775  17.393  0.00  0.00     0.013 A 
ATOM     24  C   UNK d   1      54.889  82.083  17.764  0.00  0.00     0.035 A 
ATOM     25 Br   UNK d   1      56.093  79.613  18.532  0.00  0.00    -0.051 Br
ENDBRANCH  16  17
ENDBRANCH  12  15
ENDBRANCH  10  11
ENDBRANCH   1  10
BRANCH   5  26
ATOM     26  C   UNK d   1      55.797  88.959  21.948  0.00  0.00     0.187 A 
ATOM     27  N   UNK d   1      55.534  89.638  23.072  0.00  0.00    -0.097 NA
ATOM     28  O   UNK d   1      56.134  89.037  24.084  0.00  0.00    -0.104 OA
ATOM     29  N   UNK d   1      56.778  87.994  23.666  0.00  0.00    -0.077 NA
ATOM     30  C   UNK d   1      56.596  87.905  22.330  0.00  0.00     0.285 A 
BRANCH  30  31
ATOM     31  N   UNK d   1      57.125  86.911  21.473  0.00  0.00    -0.028 N 
ATOM     32  H   UNK d   1      57.451  87.290  20.574  0.00  0.00     0.283 HD
ATOM     33  H   UNK d   1      56.323  86.261  21.249  0.00  0.00     0.283 HD
ATOM     34  H   UNK d   1      57.868  86.326  21.938  0.00  0.00     0.283 HD
ENDBRANCH  30  31
ENDBRANCH   5  26
TORSDOF 6
ENDMDL
