MODEL 1
REMARK VINA RESULT:    -9.254      0.000      0.000
REMARK INTER + INTRA:         -14.887
REMARK INTER:                 -13.852
REMARK INTRA:                  -1.036
REMARK UNBOUND:                -1.036
REMARK  9 active torsions:
REMARK  status: ('A' for Active; 'I' for Inactive)
REMARK    1  A    between atoms: C_4  and  O_29 
REMARK    2  A    between atoms: C_6  and  C_8 
REMARK    3  A    between atoms: C_8  and  N_9 
REMARK    4  A    between atoms: N_9  and  N_10 
REMARK       I    between atoms: N_10  and  C_11 
REMARK    5  A    between atoms: C_11  and  C_13 
REMARK    6  A    between atoms: C_13  and  N_14 
REMARK    7  A    between atoms: C_18  and  C_19 
REMARK    8  A    between atoms: C_23  and  N_24 
REMARK    9  A    between atoms: O_29  and  C_30 
ROOT
ATOM      1  N   UNK d   1      54.547  89.225  19.847  0.00  0.00    -0.319 N 
ATOM      2  C   UNK d   1      53.807  90.194  19.189  0.00  0.00     0.065 A 
ATOM      3  C   UNK d   1      52.610  89.651  18.904  0.00  0.00     0.086 A 
ATOM      4  N   UNK d   1      52.625  88.413  19.371  0.00  0.00    -0.226 NA
ATOM      5  C   UNK d   1      53.845  88.130  19.969  0.00  0.00     0.167 A 
ATOM      6  C   UNK d   1      51.609  90.348  18.245  0.00  0.00     0.034 A 
ATOM      7  C   UNK d   1      51.899  91.643  17.887  0.00  0.00     0.002 A 
ATOM      8  C   UNK d   1      53.112  92.248  18.151  0.00  0.00     0.002 A 
ATOM      9  C   UNK d   1      54.082  91.501  18.818  0.00  0.00     0.032 A 
ENDROOT
BRANCH   1  10
ATOM     10  C   UNK d   1      55.846  89.522  20.293  0.00  0.00     0.236 C 
BRANCH  10  11
ATOM     11  C   UNK d   1      55.899  89.754  21.819  0.00  0.00     0.264 C 
ATOM     12  N   UNK d   1      55.369  90.959  22.146  0.00  0.00    -0.202 N 
ATOM     13  H   UNK d   1      55.623  90.654  23.495  0.00  0.00     0.205 HD
ATOM     14  O   UNK d   1      56.406  88.812  22.425  0.00  0.00    -0.269 OA
BRANCH  12  15
ATOM     15  N   UNK d   1      54.888  92.054  22.446  0.00  0.00    -0.335 NA
BRANCH  15  16
ATOM     16  C   UNK d   1      54.510  93.133  22.741  0.00  0.00     0.220 C 
BRANCH  16  17
ATOM     17  C   UNK d   1      54.781  94.029  23.812  0.00  0.00    -0.001 A 
ATOM     18  C   UNK d   1      56.086  94.493  24.029  0.00  0.00     0.053 A 
ATOM     19  C   UNK d   1      56.457  95.365  25.012  0.00  0.00     0.107 A 
ATOM     20  C   UNK d   1      55.446  95.839  25.881  0.00  0.00     0.157 A 
ATOM     21  C   UNK d   1      54.150  95.408  25.704  0.00  0.00     0.051 A 
ATOM     22  O   UNK d   1      55.821  96.714  26.858  0.00  0.00    -0.188 OA
ATOM     23 Br   UNK d   1      52.765  96.047  26.835  0.00  0.00    -0.048 Br
ATOM     24  C   UNK d   1      53.841  94.524  24.689  0.00  0.00     0.036 A 
BRANCH  19  25
ATOM     25  O   UNK d   1      57.748  95.817  25.211  0.00  0.00    -0.348 OA
BRANCH  25  26
ATOM     26  C   UNK d   1      58.373  96.718  24.363  0.00  0.00     0.171 C 
ATOM     27  C   UNK d   1      57.965  98.157  24.508  0.00  0.00     0.034 C 
ENDBRANCH  25  26
ENDBRANCH  19  25
ENDBRANCH  16  17
ENDBRANCH  15  16
ENDBRANCH  12  15
ENDBRANCH  10  11
ENDBRANCH   1  10
BRANCH   5  28
ATOM     28  C   UNK d   1      53.987  86.803  20.540  0.00  0.00     0.187 A 
ATOM     29  N   UNK d   1      55.138  86.403  21.216  0.00  0.00    -0.097 NA
ATOM     30  O   UNK d   1      55.013  85.212  21.643  0.00  0.00    -0.104 OA
ATOM     31  N   UNK d   1      53.874  84.742  21.325  0.00  0.00    -0.077 NA
ATOM     32  C   UNK d   1      53.195  85.716  20.628  0.00  0.00     0.285 A 
BRANCH  32  33
ATOM     33  N   UNK d   1      51.883  85.514  20.151  0.00  0.00    -0.028 N 
ATOM     34  H   UNK d   1      51.504  84.591  20.587  0.00  0.00     0.283 HD
ATOM     35  H   UNK d   1      51.901  85.310  19.145  0.00  0.00     0.283 HD
ATOM     36  H   UNK d   1      51.237  86.209  20.516  0.00  0.00     0.283 HD
ENDBRANCH  32  33
ENDBRANCH   5  28
TORSDOF 9
ENDMDL
