/Users/jonathanwahrer/Desktop/Msc/3_Semester/Drug_Design_Praktikum/waehrer_HTS_screening/HTS_experiment/out/docking_results/vina_output/3npc/0011_docked.pdbqt
 OpenBabel03192219093D

 36 39  0  0  0  0  0  0  0  0999 V2000
   54.5470   89.2250   19.8470 N   0  0  0  0  0  0  0  0  0  0  0  0
   53.8070   90.1940   19.1890 C   0  0  0  0  0  0  0  0  0  0  0  0
   52.6100   89.6510   18.9040 C   0  0  0  0  0  0  0  0  0  0  0  0
   52.6250   88.4130   19.3710 N   0  0  0  0  0  0  0  0  0  0  0  0
   53.8450   88.1300   19.9690 C   0  0  0  0  0  0  0  0  0  0  0  0
   51.6090   90.3480   18.2450 C   0  0  0  0  0  3  0  0  0  0  0  0
   51.8990   91.6430   17.8870 C   0  0  0  0  0  3  0  0  0  0  0  0
   53.1120   92.2480   18.1510 C   0  0  0  0  0  3  0  0  0  0  0  0
   54.0820   91.5010   18.8180 C   0  0  0  0  0  3  0  0  0  0  0  0
   55.8460   89.5220   20.2930 C   0  0  0  0  0  2  0  0  0  0  0  0
   55.8990   89.7540   21.8190 C   0  0  0  0  0  0  0  0  0  0  0  0
   55.3690   90.9590   22.1460 N   0  0  0  0  0  0  0  0  0  0  0  0
   55.6230   90.6540   23.4950 H   0  0  0  0  0  0  0  0  0  0  0  0
   56.4060   88.8120   22.4250 O   0  0  0  0  0  0  0  0  0  0  0  0
   54.8880   92.0540   22.4460 N   0  0  0  0  0  2  0  0  0  0  0  0
   54.5100   93.1330   22.7410 C   0  0  0  0  0  2  0  0  0  0  0  0
   54.7810   94.0290   23.8120 C   0  0  0  0  0  0  0  0  0  0  0  0
   56.0860   94.4930   24.0290 C   0  0  0  0  0  3  0  0  0  0  0  0
   56.4570   95.3650   25.0120 C   0  0  0  0  0  0  0  0  0  0  0  0
   55.4460   95.8390   25.8810 C   0  0  0  0  0  0  0  0  0  0  0  0
   54.1500   95.4080   25.7040 C   0  0  0  0  0  0  0  0  0  0  0  0
   55.8210   96.7140   26.8580 O   0  0  0  0  0  1  0  0  0  0  0  0
   52.7650   96.0470   26.8350 Br  0  0  0  0  0  0  0  0  0  0  0  0
   53.8410   94.5240   24.6890 C   0  0  0  0  0  3  0  0  0  0  0  0
   57.7480   95.8170   25.2110 O   0  0  0  0  0  0  0  0  0  0  0  0
   58.3730   96.7180   24.3630 C   0  0  0  0  0  2  0  0  0  0  0  0
   57.9650   98.1570   24.5080 C   0  0  0  0  0  1  0  0  0  0  0  0
   53.9870   86.8030   20.5400 C   0  0  0  0  0  0  0  0  0  0  0  0
   55.1380   86.4030   21.2160 N   0  0  0  0  0  0  0  0  0  0  0  0
   55.0130   85.2120   21.6430 O   0  0  0  0  0  0  0  0  0  0  0  0
   53.8740   84.7420   21.3250 N   0  0  0  0  0  0  0  0  0  0  0  0
   53.1950   85.7160   20.6280 C   0  0  0  0  0  0  0  0  0  0  0  0
   51.8830   85.5140   20.1510 N   0  0  0  0  0  4  0  0  0  0  0  0
   51.5040   84.5910   20.5870 H   0  0  0  0  0  0  0  0  0  0  0  0
   51.9010   85.3100   19.1450 H   0  0  0  0  0  0  0  0  0  0  0  0
   51.2370   86.2090   20.5160 H   0  0  0  0  0  0  0  0  0  0  0  0
  1  5  1  0  0  0  0
  1 10  1  0  0  0  0
  2  1  1  0  0  0  0
  3  2  1  0  0  0  0
  3  4  1  0  0  0  0
  4  5  2  0  0  0  0
  5 28  1  0  0  0  0
  6  3  2  0  0  0  0
  7  8  2  0  0  0  0
  7  6  1  0  0  0  0
  8  9  1  0  0  0  0
  9  2  2  0  0  0  0
 10 11  1  0  0  0  0
 11 12  1  0  0  0  0
 11 14  2  0  0  0  0
 12 15  1  0  0  0  0
 12 13  1  0  0  0  0
 15 16  1  0  0  0  0
 16 17  1  0  0  0  0
 17 18  2  0  0  0  0
 17 24  1  0  0  0  0
 18 19  1  0  0  0  0
 19 25  1  0  0  0  0
 19 20  2  0  0  0  0
 20 22  1  0  0  0  0
 21 20  1  0  0  0  0
 21 23  1  0  0  0  0
 24 21  2  0  0  0  0
 26 27  1  0  0  0  0
 26 25  1  0  0  0  0
 28 32  1  0  0  0  0
 28 29  2  0  0  0  0
 29 30  1  0  0  0  0
 31 30  1  0  0  0  0
 32 31  2  0  0  0  0
 33 36  1  0  0  0  0
 33 34  1  0  0  0  0
 33 32  1  0  0  0  0
 35 33  1  0  0  0  0
M  END
>  <Pose>
1

>  <Score>
-9.254

$$$$
