MODEL 1
REMARK VINA RESULT:    -8.076      0.000      0.000
REMARK INTER + INTRA:         -12.729
REMARK INTER:                 -12.326
REMARK INTRA:                  -0.403
REMARK UNBOUND:                -0.403
REMARK  10 active torsions:
REMARK  status: ('A' for Active; 'I' for Inactive)
REMARK    1  A    between atoms: C_3  and  O_34 
REMARK    2  A    between atoms: C_4  and  O_31 
REMARK    3  A    between atoms: C_6  and  C_8 
REMARK    4  A    between atoms: N_9  and  N_10 
REMARK       I    between atoms: N_10  and  C_11 
REMARK    5  A    between atoms: C_11  and  C_13 
REMARK    6  A    between atoms: N_16  and  C_25 
REMARK    7  A    between atoms: C_17  and  C_18 
REMARK    8  A    between atoms: C_18  and  N_19 
REMARK    9  A    between atoms: C_29  and  N_30 
REMARK   10  A    between atoms: O_31  and  C_32 
ROOT
ATOM      1  C   UNK d   1      48.277 101.614  29.755  0.00  0.00     0.176 A 
ATOM      2  N   UNK d   1      47.007 101.190  29.763  0.00  0.00    -0.124 NA
ATOM      3  N   UNK d   1      46.316 101.887  30.632  0.00  0.00    -0.058 NA
ATOM      4  N   UNK d   1      47.097 102.802  31.234  0.00  0.00    -0.191 N 
ATOM      5  C   UNK d   1      48.316 102.651  30.707  0.00  0.00     0.104 A 
ENDROOT
BRANCH   1   6
ATOM      6  C   UNK d   1      49.396 101.134  28.955  0.00  0.00     0.294 C 
ATOM      7  N   UNK d   1      50.032  99.902  29.227  0.00  0.00    -0.242 N 
ATOM      8  H   UNK d   1      49.674  99.323  30.040  0.00  0.00     0.192 HD
ATOM      9  O   UNK d   1      49.803 101.830  28.004  0.00  0.00    -0.264 OA
BRANCH   7  10
ATOM     10  N   UNK d   1      51.089  99.392  28.514  0.00  0.00    -0.183 NA
ATOM     11  C   UNK d   1      51.506  98.181  28.558  0.00  0.00     0.150 C 
BRANCH  11  12
ATOM     12  C   UNK d   1      52.637  97.730  27.764  0.00  0.00    -0.013 A 
ATOM     13  C   UNK d   1      53.778  98.490  27.563  0.00  0.00     0.052 A 
ATOM     14  C   UNK d   1      54.834  98.039  26.807  0.00  0.00     0.104 A 
ATOM     15  C   UNK d   1      54.724  96.788  26.245  0.00  0.00     0.116 A 
ATOM     16  C   UNK d   1      53.595  95.997  26.425  0.00  0.00     0.047 A 
ATOM     17 Br   UNK d   1      53.452  94.266  25.643  0.00  0.00    -0.048 Br
ATOM     18  C   UNK d   1      52.570  96.483  27.182  0.00  0.00     0.035 A 
BRANCH  14  19
ATOM     19  O   UNK d   1      55.980  98.765  26.587  0.00  0.00    -0.349 OA
BRANCH  19  20
ATOM     20  C   UNK d   1      57.283  98.281  26.551  0.00  0.00     0.171 C 
ATOM     21  C   UNK d   1      57.938  98.326  25.208  0.00  0.00     0.034 C 
ENDBRANCH  19  20
ENDBRANCH  14  19
BRANCH  15  22
ATOM     22  O   UNK d   1      55.761  96.278  25.470  0.00  0.00    -0.357 OA
ATOM     23  H   UNK d   1      55.768  96.438  24.469  0.00  0.00     0.218 HD
ENDBRANCH  15  22
ENDBRANCH  11  12
ENDBRANCH   7  10
ENDBRANCH   1   6
BRANCH   5  24
ATOM     24  C   UNK d   1      49.553 103.367  31.021  0.00  0.00     0.334 C 
BRANCH  24  25
ATOM     25  N   UNK d   1      50.428 102.763  31.994  0.00  0.00     0.098 N 
ATOM     26  C   UNK d   1      51.291 103.862  32.446  0.00  0.00     0.299 C 
ATOM     27  C   UNK d   1      50.584 104.988  33.088  0.00  0.00     0.198 C 
ATOM     28  O   UNK d   1      49.460 104.555  33.776  0.00  0.00    -0.388 OA
ATOM     29  C   UNK d   1      49.716 103.297  34.276  0.00  0.00     0.198 C 
ATOM     30  C   UNK d   1      49.640 102.299  33.137  0.00  0.00     0.299 C 
ENDBRANCH  24  25
ENDBRANCH   5  24
BRANCH   4  31
ATOM     31  C   UNK d   1      46.620 103.694  32.247  0.00  0.00     0.229 A 
ATOM     32  N   UNK d   1      46.615 105.037  32.256  0.00  0.00    -0.081 NA
ATOM     33  O   UNK d   1      46.078 105.457  33.376  0.00  0.00    -0.103 OA
ATOM     34  N   UNK d   1      45.722 104.440  34.123  0.00  0.00    -0.083 NA
ATOM     35  C   UNK d   1      46.048 103.327  33.441  0.00  0.00     0.201 A 
BRANCH  35  36
ATOM     36  N   UNK d   1      45.812 102.016  33.927  0.00  0.00    -0.379 N 
ATOM     37  H   UNK d   1      46.358 101.572  34.694  0.00  0.00     0.158 HD
ATOM     38  H   UNK d   1      45.047 101.420  33.518  0.00  0.00     0.158 HD
ENDBRANCH  35  36
ENDBRANCH   4  31
TORSDOF 10
ENDMDL
