MODEL 1
REMARK VINA RESULT:    -7.737      0.000      0.000
REMARK INTER + INTRA:         -13.055
REMARK INTER:                 -11.356
REMARK INTRA:                  -1.699
REMARK UNBOUND:                -1.699
REMARK  9 active torsions:
REMARK  status: ('A' for Active; 'I' for Inactive)
REMARK    1  A    between atoms: C_3  and  O_33 
REMARK    2  A    between atoms: C_4  and  O_31 
REMARK    3  A    between atoms: C_6  and  C_8 
REMARK    4  A    between atoms: N_9  and  N_10 
REMARK       I    between atoms: N_10  and  C_11 
REMARK    5  A    between atoms: C_11  and  C_13 
REMARK    6  A    between atoms: N_16  and  C_25 
REMARK    7  A    between atoms: C_17  and  C_18 
REMARK    8  A    between atoms: C_18  and  N_19 
REMARK    9  A    between atoms: C_29  and  N_30 
ROOT
ATOM      1  C   UNK d   1      53.120  83.374  21.410  0.00  0.00     0.170 A 
ATOM      2  N   UNK d   1      52.437  82.392  21.883  0.00  0.00    -0.152 NA
ATOM      3  N   UNK d   1      52.258  82.550  23.183  0.00  0.00     0.012 NA
ATOM      4  N   UNK d   1      52.854  83.672  23.562  0.00  0.00    -0.215 N 
ATOM      5  C   UNK d   1      53.450  84.281  22.546  0.00  0.00     0.098 A 
ENDROOT
BRANCH   1   6
ATOM      6  C   UNK d   1      53.282  83.994  20.114  0.00  0.00     0.293 C 
ATOM      7  N   UNK d   1      52.172  84.677  19.488  0.00  0.00    -0.242 N 
ATOM      8  H   UNK d   1      51.245  84.764  19.447  0.00  0.00     0.192 HD
ATOM      9  O   UNK d   1      54.392  84.003  19.584  0.00  0.00    -0.264 OA
BRANCH   7  10
ATOM     10  N   UNK d   1      52.914  85.691  18.504  0.00  0.00    -0.183 NA
ATOM     11  C   UNK d   1      52.672  86.786  19.249  0.00  0.00     0.150 C 
BRANCH  11  12
ATOM     12  C   UNK d   1      52.848  88.137  19.355  0.00  0.00    -0.013 A 
ATOM     13  C   UNK d   1      51.915  89.151  19.231  0.00  0.00     0.052 A 
ATOM     14  C   UNK d   1      52.202  90.490  19.359  0.00  0.00     0.103 A 
ATOM     15  C   UNK d   1      53.494  90.846  19.630  0.00  0.00     0.116 A 
ATOM     16  C   UNK d   1      54.463  89.874  19.761  0.00  0.00     0.047 A 
ATOM     17 Br   UNK d   1      56.281  90.417  20.114  0.00  0.00    -0.048 Br
ATOM     18  C   UNK d   1      54.193  88.579  19.637  0.00  0.00     0.035 A 
BRANCH  14  19
ATOM     19  O   UNK d   1      51.193  91.448  19.202  0.00  0.00    -0.353 OA
ATOM     20  C   UNK d   1      50.943  91.981  17.886  0.00  0.00     0.210 C 
ENDBRANCH  14  19
BRANCH  15  21
ATOM     21  O   UNK d   1      53.842  92.191  19.776  0.00  0.00    -0.357 OA
ATOM     22  H   UNK d   1      54.181  92.702  18.933  0.00  0.00     0.218 HD
ENDBRANCH  15  21
ENDBRANCH  11  12
ENDBRANCH   7  10
ENDBRANCH   1   6
BRANCH   5  23
ATOM     23  C   UNK d   1      54.093  85.549  22.356  0.00  0.00     0.334 C 
BRANCH  23  24
ATOM     24  N   UNK d   1      55.357  85.791  23.056  0.00  0.00     0.098 N 
ATOM     25  C   UNK d   1      55.230  86.772  24.084  0.00  0.00     0.299 C 
ATOM     26  C   UNK d   1      54.969  88.168  23.596  0.00  0.00     0.198 C 
ATOM     27  O   UNK d   1      56.129  88.691  23.049  0.00  0.00    -0.388 OA
ATOM     28  C   UNK d   1      56.976  87.666  22.613  0.00  0.00     0.198 C 
ATOM     29  C   UNK d   1      56.164  86.566  22.017  0.00  0.00     0.299 C 
ENDBRANCH  23  24
ENDBRANCH   5  23
BRANCH   4  30
ATOM     30  C   UNK d   1      52.478  84.311  24.806  0.00  0.00     0.225 A 
ATOM     31  N   UNK d   1      51.480  84.997  25.181  0.00  0.00    -0.081 NA
ATOM     32  O   UNK d   1      51.601  85.428  26.437  0.00  0.00    -0.103 OA
ATOM     33  N   UNK d   1      52.729  84.986  26.863  0.00  0.00    -0.083 NA
ATOM     34  C   UNK d   1      53.362  84.276  25.928  0.00  0.00     0.201 A 
BRANCH  34  35
ATOM     35  N   UNK d   1      54.617  83.652  26.009  0.00  0.00    -0.379 N 
ATOM     36  H   UNK d   1      54.754  82.638  25.846  0.00  0.00     0.158 HD
ATOM     37  H   UNK d   1      55.514  84.201  26.234  0.00  0.00     0.158 HD
ENDBRANCH  34  35
ENDBRANCH   4  30
TORSDOF 9
ENDMDL
