MODEL 1
REMARK VINA RESULT:    -7.781      0.000      0.000
REMARK INTER + INTRA:         -13.497
REMARK INTER:                 -11.647
REMARK INTRA:                  -1.850
REMARK UNBOUND:                -1.850
REMARK  9 active torsions:
REMARK  status: ('A' for Active; 'I' for Inactive)
REMARK    1  A    between atoms: C_3  and  O_35 
REMARK    2  A    between atoms: C_4  and  O_33 
REMARK    3  A    between atoms: C_6  and  C_8 
REMARK    4  A    between atoms: N_9  and  C_27 
REMARK    5  A    between atoms: C_14  and  C_15 
REMARK    6  A    between atoms: C_15  and  C_17 
REMARK    7  A    between atoms: C_27  and  C_28 
REMARK    8  A    between atoms: C_28  and  C_29 
REMARK    9  A    between atoms: C_29  and  N_30 
ROOT
ATOM      1  C   UNK d   1      52.923  84.921  21.199  0.00  0.00     0.161 C 
ATOM      2  N   UNK d   1      52.097  84.340  22.236  0.00  0.00    -0.332 N 
ATOM      3  C   UNK d   1      52.758  84.319  23.469  0.00  0.00     0.295 C 
ATOM      4  O   UNK d   1      52.356  83.772  24.507  0.00  0.00    -0.264 OA
ATOM      5  C   UNK d   1      54.011  85.058  23.312  0.00  0.00     0.250 C 
ATOM      6  O   UNK d   1      54.831  85.210  24.254  0.00  0.00    -0.282 OA
ATOM      7  C   UNK d   1      54.084  85.529  21.946  0.00  0.00     0.062 C 
ENDROOT
BRANCH   7   8
ATOM      8  C   UNK d   1      55.022  86.298  21.463  0.00  0.00     0.130 C 
ATOM      9  O   UNK d   1      56.336  85.861  21.465  0.00  0.00    -0.190 OA
BRANCH   8  10
ATOM     10  C   UNK d   1      54.736  87.601  20.913  0.00  0.00     0.002 A 
ATOM     11  C   UNK d   1      53.845  87.598  19.831  0.00  0.00     0.024 A 
ATOM     12  C   UNK d   1      53.455  88.769  19.231  0.00  0.00    -0.021 A 
ATOM     13  C   UNK d   1      53.939  89.973  19.686  0.00  0.00     0.075 A 
ATOM     14  C   UNK d   1      52.530  88.983  18.071  0.00  0.00     0.073 C 
ATOM     15  C   UNK d   1      54.817  89.951  20.754  0.00  0.00     0.038 A 
ATOM     16  O   UNK d   1      53.379  90.998  18.895  0.00  0.00    -0.345 OA
ATOM     17  C   UNK d   1      55.219  88.785  21.370  0.00  0.00     0.017 A 
ATOM     18  C   UNK d   1      52.856  90.413  17.706  0.00  0.00     0.129 C 
ATOM     19  C   UNK d   1      53.881  90.379  16.589  0.00  0.00     0.040 C 
ENDBRANCH   8  10
ENDBRANCH   7   8
BRANCH   1  20
ATOM     20  C   UNK d   1      53.379  83.807  20.326  0.00  0.00    -0.026 A 
ATOM     21  C   UNK d   1      53.194  83.981  18.964  0.00  0.00     0.049 A 
ATOM     22  C   UNK d   1      53.571  83.048  18.057  0.00  0.00     0.103 A 
ATOM     23  C   UNK d   1      54.163  81.877  18.512  0.00  0.00     0.116 A 
ATOM     24  C   UNK d   1      54.349  81.702  19.891  0.00  0.00     0.047 A 
ATOM     25 Br   UNK d   1      55.158  80.103  20.510  0.00  0.00    -0.048 Br
ATOM     26  C   UNK d   1      53.961  82.660  20.806  0.00  0.00     0.031 A 
BRANCH  22  27
ATOM     27  O   UNK d   1      53.384  83.227  16.684  0.00  0.00    -0.353 OA
ATOM     28  C   UNK d   1      54.332  83.838  15.852  0.00  0.00     0.210 C 
ENDBRANCH  22  27
BRANCH  23  29
ATOM     29  O   UNK d   1      54.550  80.923  17.604  0.00  0.00    -0.357 OA
ATOM     30  H   UNK d   1      54.042  80.078  17.516  0.00  0.00     0.218 HD
ENDBRANCH  23  29
ENDBRANCH   1  20
BRANCH   2  31
ATOM     31  C   UNK d   1      50.762  83.856  21.952  0.00  0.00     0.129 C 
BRANCH  31  32
ATOM     32  C   UNK d   1      50.590  82.398  21.879  0.00  0.00     0.048 C 
BRANCH  32  33
ATOM     33  C   UNK d   1      49.981  81.706  23.042  0.00  0.00     0.235 C 
BRANCH  33  34
ATOM     34  N   UNK d   1      50.934  81.105  23.941  0.00  0.00    -0.079 N 
ATOM     35  C   UNK d   1      52.055  80.565  23.157  0.00  0.00     0.269 C 
ATOM     36  C   UNK d   1      50.276  79.976  24.573  0.00  0.00     0.269 C 
ATOM     37  H   UNK d   1      51.279  81.717  24.685  0.00  0.00     0.278 HD
ENDBRANCH  33  34
ENDBRANCH  32  33
ENDBRANCH  31  32
ENDBRANCH   2  31
TORSDOF 9
ENDMDL
