MODEL 1
REMARK VINA RESULT:    -8.600      0.000      0.000
REMARK INTER + INTRA:         -10.582
REMARK INTER:                  -9.857
REMARK INTRA:                  -0.725
REMARK UNBOUND:                -0.725
REMARK  3 active torsions:
REMARK  status: ('A' for Active; 'I' for Inactive)
REMARK    1  A    between atoms: C_3  and  O_25 
REMARK    2  A    between atoms: C_6  and  C_8 
REMARK    3  A    between atoms: C_10  and  C_21 
ROOT
ATOM      1  C   UNK d   1      51.876  85.732  19.640  0.00  0.00     0.270 C 
ATOM      2  N   UNK d   1      51.742  85.248  20.950  0.00  0.00    -0.047 N 
ATOM      3  C   UNK d   1      51.995  83.884  21.221  0.00  0.00     0.291 C 
ATOM      4  C   UNK d   1      51.926  82.964  20.031  0.00  0.00     0.086 C 
ATOM      5  C   UNK d   1      52.629  83.526  18.854  0.00  0.00    -0.018 A 
ATOM      6  C   UNK d   1      53.349  82.945  17.844  0.00  0.00    -0.001 A 
ATOM      7  C   UNK d   1      53.755  83.998  17.043  0.00  0.00     0.043 A 
ATOM      8  N   UNK d   1      53.286  85.162  17.568  0.00  0.00    -0.356 N 
ATOM      9  C   UNK d   1      52.595  84.876  18.679  0.00  0.00     0.052 A 
ATOM     10  C   UNK d   1      54.510  83.681  15.934  0.00  0.00     0.030 A 
ATOM     11  C   UNK d   1      54.846  82.377  15.636  0.00  0.00     0.002 A 
ATOM     12  C   UNK d   1      54.441  81.329  16.436  0.00  0.00     0.001 A 
ATOM     13  C   UNK d   1      53.681  81.630  17.554  0.00  0.00     0.014 A 
ATOM     14  H   UNK d   1      52.298  85.827  21.643  0.00  0.00     0.279 HD
ATOM     15  H   UNK d   1      50.741  85.452  21.269  0.00  0.00     0.279 HD
ATOM     16  H   UNK d   1      53.484  86.078  17.109  0.00  0.00     0.166 HD
ENDROOT
BRANCH   1  17
ATOM     17  C   UNK d   1      52.596  87.036  19.666  0.00  0.00    -0.019 A 
ATOM     18  C   UNK d   1      53.789  87.205  20.336  0.00  0.00     0.031 A 
ATOM     19  C   UNK d   1      54.361  88.458  20.295  0.00  0.00     0.046 A 
ATOM     20  C   UNK d   1      53.810  89.532  19.629  0.00  0.00     0.100 A 
ATOM     21 Br   UNK d   1      56.012  88.726  21.210  0.00  0.00    -0.048 Br
ATOM     22  C   UNK d   1      52.620  89.356  18.963  0.00  0.00     0.046 A 
ATOM     23 Br   UNK d   1      51.827  90.811  18.033  0.00  0.00    -0.048 Br
ATOM     24  C   UNK d   1      52.023  88.092  18.992  0.00  0.00     0.031 A 
BRANCH  20  25
ATOM     25  O   UNK d   1      54.459  90.783  19.635  0.00  0.00    -0.358 OA
ATOM     26  H   UNK d   1      53.934  91.583  19.960  0.00  0.00     0.217 HD
ENDBRANCH  20  25
ENDBRANCH   1  17
BRANCH   3  27
ATOM     27  C   UNK d   1      53.315  83.660  21.873  0.00  0.00     0.205 C 
ATOM     28  O   UNK d   1      53.891  84.633  22.469  0.00  0.00    -0.646 OA
ATOM     29  O   UNK d   1      53.902  82.406  21.823  0.00  0.00    -0.646 OA
ENDBRANCH   3  27
TORSDOF 3
ENDMDL
