MODEL 1
REMARK VINA RESULT:    -6.600      0.000      0.000
REMARK INTER + INTRA:          -9.383
REMARK INTER:                  -8.915
REMARK INTRA:                  -0.468
REMARK UNBOUND:                -0.468
REMARK  6 active torsions:
REMARK  status: ('A' for Active; 'I' for Inactive)
REMARK    1  A    between atoms: C_3  and  O_19 
REMARK    2  A    between atoms: C_4  and  C_8 
REMARK    3  A    between atoms: C_8  and  N_9 
REMARK    4  A    between atoms: O_19  and  C_20 
REMARK    5  A    between atoms: C_20  and  C_21 
REMARK    6  A    between atoms: C_21  and  O_23 
ROOT
ATOM      1 Br   UNK d   1      54.320  85.478  24.119  0.00  0.00    -0.048 Br
ATOM      2  C   UNK d   1      54.878  87.201  23.477  0.00  0.00     0.044 A 
ATOM      3  C   UNK d   1      54.699  87.561  22.189  0.00  0.00     0.094 A 
ATOM      4  C   UNK d   1      55.175  88.817  21.711  0.00  0.00     0.003 A 
ATOM      5  C   UNK d   1      55.815  89.622  22.589  0.00  0.00     0.012 A 
ATOM      6  C   UNK d   1      55.999  89.229  23.900  0.00  0.00     0.002 A 
ATOM      7  C   UNK d   1      55.538  88.032  24.356  0.00  0.00     0.022 A 
ENDROOT
BRANCH   4   8
ATOM      8  C   UNK d   1      55.264  88.880  20.239  0.00  0.00     0.283 C 
BRANCH   8   9
ATOM      9  N   UNK d   1      54.369  89.654  19.480  0.00  0.00    -0.010 N 
ATOM     10  C   UNK d   1      53.479  90.527  20.059  0.00  0.00     0.512 C 
ATOM     11  N   UNK d   1      52.753  91.315  19.066  0.00  0.00     0.143 N 
ATOM     12  C   UNK d   1      52.053  90.385  18.197  0.00  0.00     0.547 C 
ATOM     13  C   UNK d   1      53.613  92.112  18.226  0.00  0.00     0.284 C 
ATOM     14  N   UNK d   1      52.950  89.421  17.592  0.00  0.00     0.143 N 
ATOM     15  C   UNK d   1      53.714  88.694  18.526  0.00  0.00     0.512 C 
ATOM     16  C   UNK d   1      53.823  90.133  16.682  0.00  0.00     0.284 C 
ATOM     17  C   UNK d   1      54.562  91.151  17.513  0.00  0.00     0.069 C 
ATOM     18  C   UNK d   1      55.296  90.420  18.575  0.00  0.00     0.250 C 
ENDBRANCH   8   9
ENDBRANCH   4   8
BRANCH   3  19
ATOM     19  O   UNK d   1      54.067  86.750  21.316  0.00  0.00    -0.340 OA
BRANCH  19  20
ATOM     20  C   UNK d   1      54.654  85.556  20.761  0.00  0.00     0.286 C 
BRANCH  20  21
ATOM     21  C   UNK d   1      53.756  84.441  20.470  0.00  0.00     0.282 C 
ATOM     22  O   UNK d   1      52.586  84.546  20.133  0.00  0.00    -0.263 OA
BRANCH  21  23
ATOM     23  O   UNK d   1      54.291  83.150  20.552  0.00  0.00    -0.325 OA
ATOM     24  C   UNK d   1      54.352  82.276  19.458  0.00  0.00     0.213 C 
ENDBRANCH  21  23
ENDBRANCH  20  21
ENDBRANCH  19  20
ENDBRANCH   3  19
TORSDOF 6
ENDMDL
