/Users/jonathanwahrer/Desktop/Msc/3_Semester/Drug_Design_Praktikum/waehrer_HTS_screening/HTS_experiment/out/docking_results/vina_output/3npc/0037_docked.pdbqt
 OpenBabel03192219133D

 27 30  0  0  1  0  0  0  0  0999 V2000
   50.5870  100.5320   28.5960 N   0  0  0  0  0  0  0  0  0  0  0  0
   51.2700   99.2980   28.9040 C   0  0  0  0  0  2  0  0  0  0  0  0
   51.3590   98.6440   27.5420 C   0  0  1  0  0  3  0  0  0  0  0  0
   51.8130   99.8120   26.6850 C   0  0  0  0  0  2  0  0  0  0  0  0
   50.9840  100.8910   27.2840 C   0  0  0  0  0  0  0  0  0  0  0  0
   50.6870  101.9570   26.7030 O   0  0  0  0  0  0  0  0  0  0  0  0
   52.3320   97.5320   27.5190 C   0  0  0  0  0  0  0  0  0  0  0  0
   51.9560   96.3400   27.4150 O   0  0  0  0  0  0  0  0  0  0  0  0
   53.7080   97.8260   27.6170 N   0  0  0  0  0  0  0  0  0  0  0  0
   54.0270   98.8070   27.7040 H   0  0  0  0  0  0  0  0  0  0  0  0
   54.6930   96.7720   27.5960 C   0  0  0  0  0  2  0  0  0  0  0  0
   55.9090   97.1860   26.8410 C   0  0  0  0  0  0  0  0  0  0  0  0
   56.4870   96.5580   25.7870 N   0  0  0  0  0  0  0  0  0  0  0  0
   57.5660   97.2530   25.3900 C   0  0  0  0  0  0  0  0  0  0  0  0
   56.2880   95.3710   24.9740 C   0  0  0  0  0  2  0  0  0  0  0  0
   57.6320   98.3190   26.2260 N   0  0  0  0  0  0  0  0  0  0  0  0
   58.2310   96.5850   24.2230 C   0  0  0  0  0  2  0  0  0  0  0  0
   56.6420   98.2810   27.0950 N   0  0  0  0  0  0  0  0  0  0  0  0
   57.6040   95.2080   24.2440 C   0  0  0  0  0  2  0  0  0  0  0  0
   49.7090  101.1990   29.4920 C   0  0  0  0  0  0  0  0  0  0  0  0
   50.0920  101.7170   30.7100 C   0  0  0  0  0  3  0  0  0  0  0  0
   49.2610  102.3630   31.5830 C   0  0  0  0  0  0  0  0  0  0  0  0
   47.9290  102.5060   31.2130 C   0  0  0  0  0  0  0  0  0  0  0  0
   49.7110  102.9110   32.8920 C   0  0  0  0  0  1  0  0  0  0  0  0
   46.7430  103.3990   32.4070 Br  0  0  0  0  0  0  0  0  0  0  0  0
   47.4830  102.0090   30.0050 C   0  0  0  0  0  3  0  0  0  0  0  0
   48.3620  101.3640   29.1570 C   0  0  0  0  0  3  0  0  0  0  0  0
  1  2  1  0  0  0  0
  1 20  1  0  0  0  0
  3  7  1  1  0  0  0
  3  2  1  0  0  0  0
  4  5  1  0  0  0  0
  4  3  1  0  0  0  0
  5  1  1  0  0  0  0
  6  5  2  0  0  0  0
  7  9  1  0  0  0  0
  8  7  2  0  0  0  0
  9 10  1  0  0  0  0
 11  9  1  0  0  0  0
 12 18  2  0  0  0  0
 12 11  1  0  0  0  0
 13 12  1  0  0  0  0
 14 13  1  0  0  0  0
 14 16  2  0  0  0  0
 15 13  1  0  0  0  0
 16 18  1  0  0  0  0
 17 19  1  0  0  0  0
 17 14  1  0  0  0  0
 19 15  1  0  0  0  0
 20 21  1  0  0  0  0
 21 22  2  0  0  0  0
 22 24  1  0  0  0  0
 23 22  1  0  0  0  0
 23 25  1  0  0  0  0
 26 23  2  0  0  0  0
 27 20  2  0  0  0  0
 27 26  1  0  0  0  0
M  END
>  <Pose>
1

>  <Score>
-9.660

$$$$
