MODEL 1
REMARK VINA RESULT:    -9.660      0.000      0.000
REMARK INTER + INTRA:         -12.583
REMARK INTER:                 -11.919
REMARK INTRA:                  -0.664
REMARK UNBOUND:                -0.664
REMARK  4 active torsions:
REMARK  status: ('A' for Active; 'I' for Inactive)
REMARK    1  A    between atoms: C_5  and  N_8 
REMARK    2  A    between atoms: C_10  and  C_14 
REMARK       I    between atoms: C_14  and  N_16 
REMARK    3  A    between atoms: N_16  and  C_17 
REMARK    4  A    between atoms: C_17  and  C_18 
ROOT
ATOM      1  N   UNK d   1      50.587 100.532  28.596  0.00  0.00    -0.317 N 
ATOM      2  C   UNK d   1      51.270  99.298  28.904  0.00  0.00     0.146 C 
ATOM      3  C   UNK d   1      51.359  98.644  27.542  0.00  0.00     0.105 C 
ATOM      4  C   UNK d   1      51.813  99.812  26.685  0.00  0.00     0.119 C 
ATOM      5  C   UNK d   1      50.984 100.891  27.284  0.00  0.00     0.225 C 
ATOM      6  O   UNK d   1      50.687 101.957  26.703  0.00  0.00    -0.273 OA
ENDROOT
BRANCH   3   7
ATOM      7  C   UNK d   1      52.332  97.532  27.519  0.00  0.00     0.224 C 
ATOM      8  O   UNK d   1      51.956  96.340  27.415  0.00  0.00    -0.273 OA
ATOM      9  N   UNK d   1      53.708  97.826  27.617  0.00  0.00    -0.353 N 
ATOM     10  H   UNK d   1      54.027  98.807  27.704  0.00  0.00     0.162 HD
BRANCH   9  11
ATOM     11  C   UNK d   1      54.693  96.772  27.596  0.00  0.00     0.203 C 
BRANCH  11  12
ATOM     12  C   UNK d   1      55.909  97.186  26.841  0.00  0.00     0.148 A 
ATOM     13  N   UNK d   1      56.487  96.558  25.787  0.00  0.00    -0.319 N 
ATOM     14  C   UNK d   1      57.566  97.253  25.390  0.00  0.00     0.130 A 
ATOM     15  C   UNK d   1      56.288  95.371  24.974  0.00  0.00     0.132 C 
ATOM     16  N   UNK d   1      57.632  98.319  26.226  0.00  0.00    -0.135 NA
ATOM     17  C   UNK d   1      58.231  96.585  24.223  0.00  0.00     0.082 C 
ATOM     18  N   UNK d   1      56.642  98.281  27.095  0.00  0.00    -0.133 NA
ATOM     19  C   UNK d   1      57.604  95.208  24.244  0.00  0.00     0.028 C 
ENDBRANCH  11  12
ENDBRANCH   9  11
ENDBRANCH   3   7
BRANCH   1  20
ATOM     20  C   UNK d   1      49.709 101.199  29.492  0.00  0.00     0.037 A 
ATOM     21  C   UNK d   1      50.092 101.717  30.710  0.00  0.00     0.037 A 
ATOM     22  C   UNK d   1      49.261 102.363  31.583  0.00  0.00    -0.043 A 
ATOM     23  C   UNK d   1      47.929 102.506  31.213  0.00  0.00     0.017 A 
ATOM     24  C   UNK d   1      49.711 102.911  32.892  0.00  0.00     0.049 C 
ATOM     25 Br   UNK d   1      46.743 103.399  32.407  0.00  0.00    -0.051 Br
ATOM     26  C   UNK d   1      47.483 102.009  30.005  0.00  0.00     0.022 A 
ATOM     27  C   UNK d   1      48.362 101.364  29.157  0.00  0.00     0.031 A 
ENDBRANCH   1  20
TORSDOF 4
ENDMDL
