MODEL 1
REMARK VINA RESULT:    -7.632      0.000      0.000
REMARK INTER + INTRA:          -9.069
REMARK INTER:                  -8.970
REMARK INTRA:                  -0.099
REMARK UNBOUND:                -0.099
REMARK  3 active torsions:
REMARK  status: ('A' for Active; 'I' for Inactive)
REMARK    1  A    between atoms: C_3  and  N_9 
REMARK       I    between atoms: N_9  and  C_10 
REMARK    2  A    between atoms: C_10  and  C_12 
REMARK    3  A    between atoms: C_12  and  N_13 
ROOT
ATOM      1  N   UNK d   1      52.333  98.354  27.078  0.00  0.00    -0.325 N 
ATOM      2  C   UNK d   1      53.413  97.767  27.741  0.00  0.00     0.248 C 
ATOM      3  O   UNK d   1      53.351  97.471  28.942  0.00  0.00    -0.271 OA
ATOM      4  H   UNK d   1      52.483  98.570  26.048  0.00  0.00     0.169 HD
ENDROOT
BRANCH   2   5
ATOM      5  C   UNK d   1      54.652  97.495  26.986  0.00  0.00     0.340 C 
BRANCH   5   6
ATOM      6  N   UNK d   1      54.756  96.197  26.403  0.00  0.00    -0.054 N 
ATOM      7  C   UNK d   1      55.647  96.306  25.237  0.00  0.00     0.268 C 
ATOM      8  C   UNK d   1      56.225  94.934  24.990  0.00  0.00     0.300 C 
ATOM      9  N   UNK d   1      55.137  93.989  25.239  0.00  0.00     0.093 N 
ATOM     10  C   UNK d   1      55.087  93.825  26.688  0.00  0.00     0.300 C 
ATOM     11  C   UNK d   1      53.877  94.597  24.842  0.00  0.00     0.300 C 
ATOM     12  C   UNK d   1      55.289  95.194  27.321  0.00  0.00     0.268 C 
ATOM     13  C   UNK d   1      53.512  95.671  25.881  0.00  0.00     0.268 C 
ENDBRANCH   5   6
ENDBRANCH   2   5
BRANCH   1  14
ATOM     14  C   UNK d   1      51.064  98.700  27.596  0.00  0.00     0.052 A 
ATOM     15  C   UNK d   1      50.588 100.015  27.492  0.00  0.00     0.038 A 
ATOM     16 Br   UNK d   1      51.756 101.268  26.621  0.00  0.00    -0.049 Br
ATOM     17  C   UNK d   1      49.365 100.410  27.976  0.00  0.00     0.028 A 
ATOM     18  C   UNK d   1      48.519  99.526  28.601  0.00  0.00    -0.061 A 
ATOM     19  C   UNK d   1      48.964  98.231  28.714  0.00  0.00     0.009 A 
ATOM     20  C   UNK d   1      47.186  99.945  29.131  0.00  0.00     0.048 C 
ATOM     21  C   UNK d   1      50.207  97.822  28.226  0.00  0.00     0.031 A 
ENDBRANCH   1  14
TORSDOF 3
ENDMDL
