/Users/jonathanwahrer/Desktop/Msc/3_Semester/Drug_Design_Praktikum/waehrer_HTS_screening/HTS_experiment/out/docking_results/vina_output/3npc/0081_docked.pdbqt
 OpenBabel03192219133D

 22 25  0  0  0  0  0  0  0  0999 V2000
   53.2280   97.2510   27.5810 C   0  0  0  0  0  0  0  0  0  0  0  0
   53.3810   98.4640   27.0200 N   0  0  0  0  0  0  0  0  0  0  0  0
   52.2750   99.1850   27.2130 N   0  0  0  0  0  0  0  0  0  0  0  0
   51.3870   98.4440   27.9070 C   0  0  0  0  0  0  0  0  0  0  0  0
   51.9960   97.2630   28.1190 N   0  0  0  0  0  0  0  0  0  0  0  0
   50.1580   98.9880   28.2260 C   0  0  0  0  0  0  0  0  0  0  0  0
   49.8010  100.2700   27.8600 C   0  0  0  0  0  0  0  0  0  0  0  0
   48.5560  100.5470   28.2960 N   0  0  0  0  0  0  0  0  0  0  0  0
   48.1160   99.4750   28.9270 N   0  0  0  0  0  0  0  0  0  0  0  0
   49.0650   98.4930   28.9080 C   0  0  0  0  0  3  0  0  0  0  0  0
   47.7990  101.7770   28.1290 C   0  0  0  0  0  1  0  0  0  0  0  0
   50.7150  100.9760   27.1700 N   0  0  0  0  0  0  0  0  0  0  0  0
   51.9230  100.4340   26.8590 C   0  0  0  0  0  3  0  0  0  0  0  0
   54.2250   96.1250   27.6010 C   0  0  0  0  0  2  0  0  0  0  0  0
   55.3240   96.3770   26.6990 N   0  0  0  0  0  0  0  0  0  0  0  0
   55.8060   95.4890   25.8190 C   0  0  0  0  0  0  0  0  0  0  0  0
   56.8350   96.1110   25.1610 C   0  0  0  0  0  0  0  0  0  0  0  0
   55.3440   94.0860   25.5680 C   0  0  0  0  0  1  0  0  0  0  0  0
   57.9200   95.3700   23.7900 Br  0  0  0  0  0  0  0  0  0  0  0  0
   56.9640   97.3820   25.6570 C   0  0  0  0  0  0  0  0  0  0  0  0
   56.0080   97.5010   26.6060 N   0  0  0  0  0  0  0  0  0  0  0  0
   57.9550   98.4420   25.2470 C   0  0  0  0  0  1  0  0  0  0  0  0
  1 14  1  0  0  0  0
  1  5  1  0  0  0  0
  2  3  1  0  0  0  0
  2  1  2  0  0  0  0
  3  4  1  0  0  0  0
  4  5  2  0  0  0  0
  4  6  1  0  0  0  0
  6 10  1  0  0  0  0
  7  6  2  0  0  0  0
  7  8  1  0  0  0  0
  8  9  1  0  0  0  0
 10  9  2  0  0  0  0
 11  8  1  0  0  0  0
 12  7  1  0  0  0  0
 13 12  2  0  0  0  0
 13  3  1  0  0  0  0
 15 14  1  0  0  0  0
 16 15  1  0  0  0  0
 17 20  1  0  0  0  0
 17 16  2  0  0  0  0
 18 16  1  0  0  0  0
 19 17  1  0  0  0  0
 20 21  2  0  0  0  0
 21 15  1  0  0  0  0
 22 20  1  0  0  0  0
M  END
>  <Pose>
1

>  <Score>
-8.691

$$$$
