MODEL 1
REMARK VINA RESULT:    -8.691      0.000      0.000
REMARK INTER + INTRA:          -9.535
REMARK INTER:                  -9.707
REMARK INTRA:                   0.172
REMARK UNBOUND:                 0.172
REMARK  2 active torsions:
REMARK  status: ('A' for Active; 'I' for Inactive)
REMARK    1  A    between atoms: N_4  and  C_8 
REMARK    2  A    between atoms: C_8  and  C_9 
ROOT
ATOM      1  C   UNK d   1      53.228  97.251  27.581  0.00  0.00     0.168 A 
ATOM      2  N   UNK d   1      53.381  98.464  27.020  0.00  0.00    -0.148 NA
ATOM      3  N   UNK d   1      52.275  99.185  27.213  0.00  0.00    -0.206 N 
ATOM      4  C   UNK d   1      51.387  98.444  27.907  0.00  0.00     0.169 A 
ATOM      5  N   UNK d   1      51.996  97.263  28.119  0.00  0.00    -0.209 NA
ATOM      6  C   UNK d   1      50.158  98.988  28.226  0.00  0.00     0.079 A 
ATOM      7  C   UNK d   1      49.801 100.270  27.860  0.00  0.00     0.162 A 
ATOM      8  N   UNK d   1      48.556 100.547  28.296  0.00  0.00    -0.256 N 
ATOM      9  N   UNK d   1      48.116  99.475  28.927  0.00  0.00    -0.182 NA
ATOM     10  C   UNK d   1      49.065  98.493  28.908  0.00  0.00     0.158 A 
ATOM     11  C   UNK d   1      47.799 101.777  28.129  0.00  0.00     0.182 C 
ATOM     12  N   UNK d   1      50.715 100.976  27.170  0.00  0.00    -0.222 NA
ATOM     13  C   UNK d   1      51.923 100.434  26.859  0.00  0.00     0.239 A 
ENDROOT
BRANCH   1  14
ATOM     14  C   UNK d   1      54.225  96.125  27.601  0.00  0.00     0.233 C 
BRANCH  14  15
ATOM     15  N   UNK d   1      55.324  96.377  26.699  0.00  0.00    -0.265 N 
ATOM     16  C   UNK d   1      55.806  95.489  25.819  0.00  0.00     0.046 A 
ATOM     17  C   UNK d   1      56.835  96.111  25.161  0.00  0.00     0.060 A 
ATOM     18  C   UNK d   1      55.344  94.086  25.568  0.00  0.00     0.071 C 
ATOM     19 Br   UNK d   1      57.920  95.370  23.790  0.00  0.00    -0.047 Br
ATOM     20  C   UNK d   1      56.964  97.382  25.657  0.00  0.00     0.070 A 
ATOM     21  N   UNK d   1      56.008  97.501  26.606  0.00  0.00    -0.176 NA
ATOM     22  C   UNK d   1      57.955  98.442  25.247  0.00  0.00     0.074 C 
ENDBRANCH  14  15
ENDBRANCH   1  14
TORSDOF 2
ENDMDL
