/Users/jonathanwahrer/Desktop/Msc/3_Semester/Drug_Design_Praktikum/waehrer_HTS_screening/HTS_experiment/out/docking_results/vina_output/3npc/0095_docked.pdbqt
 OpenBabel03192219133D

 26 29  0  0  0  0  0  0  0  0999 V2000
   56.5150   87.1590   21.5800 C   0  0  0  0  0  0  0  0  0  0  0  0
   57.6140   86.5400   21.4010 O   0  0  0  0  0  0  0  0  0  0  0  0
   56.2710   88.4790   21.2880 N   0  0  0  0  0  0  0  0  0  0  0  0
   57.5510   88.6320   20.8490 H   0  0  0  0  0  0  0  0  0  0  0  0
   55.3960   86.3310   22.1700 C   0  0  0  0  0  0  0  0  0  0  0  0
   54.5480   85.6070   21.3720 C   0  0  0  0  0  3  0  0  0  0  0  0
   53.5230   84.8690   21.9760 C   0  0  0  0  0  0  0  0  0  0  0  0
   52.3370   83.8620   20.8960 Br  0  0  0  0  0  0  0  0  0  0  0  0
   53.3710   84.8700   23.3410 C   0  0  0  0  0  3  0  0  0  0  0  0
   54.2260   85.5990   24.1430 C   0  0  0  0  0  3  0  0  0  0  0  0
   55.2540   86.3380   23.5320 C   0  0  0  0  0  0  0  0  0  0  0  0
   56.1710   87.1020   24.2930 N   0  0  0  0  0  0  0  0  0  0  0  0
   57.3640   86.6690   24.6520 N   0  0  0  0  0  0  0  0  0  0  0  0
   58.0030   87.5840   25.3500 N   0  0  0  0  0  0  0  0  0  0  0  0
   57.2180   88.6430   25.4570 N   0  0  0  0  0  0  0  0  0  0  0  0
   56.0910   88.3400   24.8040 C   0  0  0  0  0  3  0  0  0  0  0  0
   56.0300   89.7930   20.9980 C   0  0  0  0  0  2  0  0  0  0  0  0
   55.3960   90.0180   19.6360 C   0  0  0  0  0  0  0  0  0  0  0  0
   54.2080   89.5110   19.2400 N   0  0  0  0  0  0  0  0  0  0  0  0
   53.9350   89.8970   17.9870 C   0  0  0  0  0  0  0  0  0  0  0  0
   53.3200   88.7190   19.9050 C   0  0  0  0  0  3  0  0  0  0  0  0
   54.9740   90.6560   17.6040 N   0  0  0  0  0  0  0  0  0  0  0  0
   52.7490   89.4930   17.3580 C   0  0  0  0  0  3  0  0  0  0  0  0
   55.8640   90.7310   18.6050 N   0  0  0  0  0  0  0  0  0  0  0  0
   51.8550   88.6990   18.0200 C   0  0  0  0  0  3  0  0  0  0  0  0
   52.1370   88.3020   19.3120 C   0  0  0  0  0  3  0  0  0  0  0  0
  1  5  1  0  0  0  0
  2  1  2  0  0  0  0
  3  1  1  0  0  0  0
  4  3  1  0  0  0  0
  5 11  1  0  0  0  0
  6  7  1  0  0  0  0
  6  5  2  0  0  0  0
  7  9  2  0  0  0  0
  8  7  1  0  0  0  0
  9 10  1  0  0  0  0
 11 10  2  0  0  0  0
 11 12  1  0  0  0  0
 12 13  1  0  0  0  0
 12 16  1  0  0  0  0
 13 14  2  0  0  0  0
 14 15  1  0  0  0  0
 16 15  2  0  0  0  0
 17  3  1  0  0  0  0
 18 17  1  0  0  0  0
 19 18  1  0  0  0  0
 19 21  1  0  0  0  0
 20 19  1  0  0  0  0
 22 20  2  0  0  0  0
 22 24  1  0  0  0  0
 23 20  1  0  0  0  0
 23 25  2  0  0  0  0
 24 18  2  0  0  0  0
 25 26  1  0  0  0  0
 26 21  2  0  0  0  0
M  END
>  <Pose>
1

>  <Score>
-8.847

$$$$
