MODEL 1
REMARK VINA RESULT:    -8.575      0.000      0.000
REMARK INTER + INTRA:         -11.765
REMARK INTER:                 -10.580
REMARK INTRA:                  -1.185
REMARK UNBOUND:                -1.185
REMARK  4 active torsions:
REMARK  status: ('A' for Active; 'I' for Inactive)
REMARK    1  A    between atoms: C_4  and  C_10 
REMARK    2  A    between atoms: C_5  and  O_8 
REMARK    3  A    between atoms: C_18  and  C_19 
REMARK    4  A    between atoms: C_19  and  N_20 
ROOT
ATOM      1  C   UNK d   1      52.370  86.281  18.624  0.00  0.00     0.055 C 
ATOM      2  C   UNK d   1      52.779  87.478  18.942  0.00  0.00     0.128 A 
ATOM      3  O   UNK d   1      53.779  87.747  19.863  0.00  0.00    -0.305 OA
ATOM      4  C   UNK d   1      54.001  89.105  20.001  0.00  0.00     0.101 A 
ATOM      5  C   UNK d   1      53.158  89.818  19.179  0.00  0.00     0.051 A 
ATOM      6  C   UNK d   1      53.211  91.196  19.161  0.00  0.00     0.021 A 
ATOM      7  C   UNK d   1      54.114  91.850  19.972  0.00  0.00     0.041 A 
ATOM      8  C   UNK d   1      54.965  91.096  20.804  0.00  0.00     0.118 A 
ATOM      9  C   UNK d   1      54.932  89.736  20.838  0.00  0.00     0.039 A 
ATOM     10  O   UNK d   1      55.828  91.895  21.572  0.00  0.00    -0.191 OA
ATOM     11  C   UNK d   1      52.358  88.805  18.483  0.00  0.00     0.218 A 
ATOM     12  O   UNK d   1      51.462  89.021  17.637  0.00  0.00    -0.284 OA
ENDROOT
BRANCH   1  13
ATOM     13  C   UNK d   1      52.871  85.028  19.161  0.00  0.00     0.001 A 
ATOM     14  C   UNK d   1      52.630  84.618  20.454  0.00  0.00     0.033 A 
ATOM     15  C   UNK d   1      53.102  83.452  20.984  0.00  0.00     0.011 A 
ATOM     16 Br   UNK d   1      52.789  82.856  22.765  0.00  0.00    -0.051 Br
ATOM     17  C   UNK d   1      53.872  82.640  20.155  0.00  0.00     0.022 A 
ATOM     18  C   UNK d   1      54.149  83.001  18.842  0.00  0.00     0.039 A 
ATOM     19  C   UNK d   1      53.649  84.182  18.365  0.00  0.00     0.078 A 
BRANCH  19  20
ATOM     20  O   UNK d   1      53.910  84.572  17.066  0.00  0.00    -0.355 OA
ATOM     21  C   UNK d   1      54.447  83.659  16.145  0.00  0.00     0.210 C 
ENDBRANCH  19  20
ENDBRANCH   1  13
BRANCH   9  22
ATOM     22  C   UNK d   1      55.788  88.916  21.651  0.00  0.00     0.279 C 
BRANCH  22  23
ATOM     23  N   UNK d   1      55.295  87.981  22.576  0.00  0.00    -0.063 N 
ATOM     24  C   UNK d   1      55.932  86.692  22.565  0.00  0.00     0.261 C 
ATOM     25  C   UNK d   1      57.222  86.636  23.346  0.00  0.00     0.195 C 
ATOM     26  O   UNK d   1      57.629  87.870  23.835  0.00  0.00    -0.388 OA
ATOM     27  C   UNK d   1      56.601  88.324  24.654  0.00  0.00     0.195 C 
ATOM     28  C   UNK d   1      55.293  88.502  23.955  0.00  0.00     0.261 C 
ATOM     29  H   UNK d   1      54.281  87.827  22.398  0.00  0.00     0.280 HD
ENDBRANCH  22  23
ENDBRANCH   9  22
TORSDOF 4
ENDMDL
