MODEL 1
REMARK VINA RESULT:    -8.683      0.000      0.000
REMARK INTER + INTRA:         -12.559
REMARK INTER:                 -11.729
REMARK INTRA:                  -0.830
REMARK UNBOUND:                -0.830
REMARK  6 active torsions:
REMARK  status: ('A' for Active; 'I' for Inactive)
REMARK    1  A    between atoms: C_4  and  C_10 
REMARK    2  A    between atoms: C_5  and  O_8 
REMARK    3  A    between atoms: N_11  and  N_12 
REMARK    4  A    between atoms: N_12  and  C_13 
REMARK    5  A    between atoms: C_15  and  N_25 
REMARK    6  A    between atoms: C_17  and  N_19 
ROOT
ATOM      1  C   UNK d   1      52.764  86.440  19.238  0.00  0.00     0.774 A 
ATOM      2  N   UNK d   1      53.527  86.488  20.351  0.00  0.00     0.133 NA
ATOM      3  C   UNK d   1      54.218  87.585  20.683  0.00  0.00     0.756 A 
ATOM      4  N   UNK d   1      54.140  88.657  19.878  0.00  0.00     0.131 NA
ATOM      5  C   UNK d   1      53.392  88.679  18.743  0.00  0.00     0.756 A 
ATOM      6  N   UNK d   1      52.717  87.529  18.469  0.00  0.00     0.133 NA
ENDROOT
BRANCH   1   7
ATOM      7  N   UNK d   1      52.017  85.292  18.856  0.00  0.00    -0.105 N 
ATOM      8  H   UNK d   1      50.965  85.274  18.943  0.00  0.00     0.208 HD
BRANCH   7   9
ATOM      9  N   UNK d   1      52.615  84.136  18.352  0.00  0.00    -0.171 NA
ATOM     10  C   UNK d   1      53.638  84.137  17.583  0.00  0.00     0.153 C 
BRANCH  10  11
ATOM     11  C   UNK d   1      54.250  82.919  17.065  0.00  0.00     0.018 A 
ATOM     12  C   UNK d   1      54.192  82.595  15.732  0.00  0.00     0.034 A 
ATOM     13  C   UNK d   1      54.774  81.441  15.254  0.00  0.00     0.011 A 
ATOM     14 Br   UNK d   1      54.692  80.992  13.404  0.00  0.00    -0.051 Br
ATOM     15  C   UNK d   1      55.440  80.561  16.097  0.00  0.00     0.022 A 
ATOM     16  C   UNK d   1      55.502  80.882  17.444  0.00  0.00     0.039 A 
ATOM     17  C   UNK d   1      54.907  82.055  17.915  0.00  0.00     0.080 A 
BRANCH  17  18
ATOM     18  O   UNK d   1      54.952  82.407  19.259  0.00  0.00    -0.355 OA
ATOM     19  C   UNK d   1      54.309  81.682  20.281  0.00  0.00     0.210 C 
ENDBRANCH  17  18
ENDBRANCH  10  11
ENDBRANCH   7   9
ENDBRANCH   1   7
BRANCH   3  20
ATOM     20  N   UNK d   1      55.021  87.635  21.853  0.00  0.00    -0.209 N 
ATOM     21  C   UNK d   1      54.963  86.615  22.877  0.00  0.00     0.167 C 
ATOM     22  C   UNK d   1      54.992  87.229  24.269  0.00  0.00     0.188 C 
ATOM     23  O   UNK d   1      55.975  88.222  24.346  0.00  0.00    -0.388 OA
ATOM     24  C   UNK d   1      55.731  89.249  23.466  0.00  0.00     0.188 C 
ATOM     25  C   UNK d   1      55.941  88.731  22.060  0.00  0.00     0.167 C 
ENDBRANCH   3  20
BRANCH   5  26
ATOM     26  N   UNK d   1      53.315  89.805  17.904  0.00  0.00    -0.209 N 
ATOM     27  C   UNK d   1      54.025  89.860  16.661  0.00  0.00     0.167 C 
ATOM     28  C   UNK d   1      54.844  91.149  16.671  0.00  0.00     0.188 C 
ATOM     29  O   UNK d   1      53.957  92.190  16.887  0.00  0.00    -0.388 OA
ATOM     30  C   UNK d   1      53.399  92.170  18.144  0.00  0.00     0.188 C 
ATOM     31  C   UNK d   1      52.515  90.931  18.287  0.00  0.00     0.167 C 
ENDBRANCH   5  26
TORSDOF 6
ENDMDL
