MODEL 1
REMARK VINA RESULT:    -7.722      0.000      0.000
REMARK INTER + INTRA:         -11.018
REMARK INTER:                  -9.979
REMARK INTRA:                  -1.039
REMARK UNBOUND:                -1.039
REMARK  5 active torsions:
REMARK  status: ('A' for Active; 'I' for Inactive)
REMARK    1  A    between atoms: C_4  and  C_10 
REMARK    2  A    between atoms: C_5  and  O_8 
REMARK    3  A    between atoms: N_15  and  C_25 
REMARK    4  A    between atoms: C_25  and  C_26 
REMARK    5  A    between atoms: C_26  and  O_27 
ROOT
ATOM      1  C   UNK d   1      52.760  85.917  19.896  0.00  0.00     0.188 A 
ATOM      2  N   UNK d   1      53.357  87.087  19.959  0.00  0.00    -0.106 N 
ATOM      3  C   UNK d   1      52.959  87.886  18.920  0.00  0.00     0.736 A 
ATOM      4  N   UNK d   1      52.084  87.156  18.191  0.00  0.00     0.045 NA
ATOM      5  N   UNK d   1      51.957  86.001  18.749  0.00  0.00    -0.114 NA
ATOM      6  N   UNK d   1      53.575  89.068  18.999  0.00  0.00    -0.168 N 
ATOM      7  C   UNK d   1      54.368  89.026  20.082  0.00  0.00     0.165 A 
ATOM      8  C   UNK d   1      54.252  87.787  20.702  0.00  0.00     0.170 A 
ATOM      9  N   UNK d   1      54.940  87.462  21.780  0.00  0.00    -0.287 N 
ATOM     10  C   UNK d   1      55.786  88.415  22.282  0.00  0.00     0.330 A 
ATOM     11  O   UNK d   1      56.487  88.213  23.306  0.00  0.00    -0.246 OA
ATOM     12  N   UNK d   1      55.921  89.630  21.709  0.00  0.00    -0.273 N 
ATOM     13  C   UNK d   1      55.234  89.958  20.621  0.00  0.00     0.280 A 
ATOM     14  O   UNK d   1      55.315  91.070  20.042  0.00  0.00    -0.265 OA
ATOM     15  C   UNK d   1      54.986  86.212  22.477  0.00  0.00     0.163 C 
ATOM     16  H   UNK d   1      56.568  90.344  22.104  0.00  0.00     0.173 HD
ENDROOT
BRANCH   1  17
ATOM     17  C   UNK d   1      52.712  84.680  20.622  0.00  0.00     0.047 A 
ATOM     18  C   UNK d   1      51.859  84.300  21.613  0.00  0.00     0.037 A 
ATOM     19  C   UNK d   1      51.872  83.109  22.281  0.00  0.00     0.012 A 
ATOM     20 Br   UNK d   1      50.581  82.776  23.645  0.00  0.00    -0.051 Br
ATOM     21  C   UNK d   1      52.813  82.176  21.959  0.00  0.00     0.022 A 
ATOM     22  C   UNK d   1      53.724  82.477  20.959  0.00  0.00     0.039 A 
ATOM     23  C   UNK d   1      53.673  83.690  20.313  0.00  0.00     0.082 A 
BRANCH  23  24
ATOM     24  O   UNK d   1      54.602  83.951  19.321  0.00  0.00    -0.355 OA
ATOM     25  C   UNK d   1      54.721  83.220  18.140  0.00  0.00     0.210 C 
ENDBRANCH  23  24
ENDBRANCH   1  17
BRANCH   6  26
ATOM     26  C   UNK d   1      53.435  90.187  18.113  0.00  0.00     0.174 C 
BRANCH  26  27
ATOM     27  C   UNK d   1      54.140  89.886  16.807  0.00  0.00     0.187 C 
BRANCH  27  28
ATOM     28  O   UNK d   1      54.547  91.083  16.250  0.00  0.00    -0.394 OA
ATOM     29  C   UNK d   1      54.003  92.184  16.934  0.00  0.00     0.201 C 
ENDBRANCH  27  28
ENDBRANCH  26  27
ENDBRANCH   6  26
TORSDOF 5
ENDMDL
