/Users/jonathanwahrer/Desktop/Msc/3_Semester/Drug_Design_Praktikum/waehrer_HTS_screening/HTS_experiment/out/docking_results/vina_output/3npc/0111_docked.pdbqt
 OpenBabel03192219143D

 29 32  0  0  0  0  0  0  0  0999 V2000
   52.7600   85.9170   19.8960 C   0  0  0  0  0  0  0  0  0  0  0  0
   53.3570   87.0870   19.9590 N   0  0  0  0  0  0  0  0  0  0  0  0
   52.9590   87.8860   18.9200 C   0  0  0  0  0  0  0  0  0  0  0  0
   52.0840   87.1560   18.1910 N   0  0  0  0  0  0  0  0  0  0  0  0
   51.9570   86.0010   18.7490 N   0  0  0  0  0  0  0  0  0  0  0  0
   53.5750   89.0680   18.9990 N   0  0  0  0  0  0  0  0  0  0  0  0
   54.3680   89.0260   20.0820 C   0  0  0  0  0  0  0  0  0  0  0  0
   54.2520   87.7870   20.7020 C   0  0  0  0  0  0  0  0  0  0  0  0
   54.9400   87.4620   21.7800 N   0  0  0  0  0  0  0  0  0  0  0  0
   55.7860   88.4150   22.2820 C   0  0  0  0  0  0  0  0  0  0  0  0
   56.4870   88.2130   23.3060 O   0  0  0  0  0  0  0  0  0  0  0  0
   55.9210   89.6300   21.7090 N   0  0  0  0  0  0  0  0  0  0  0  0
   55.2340   89.9580   20.6210 C   0  0  0  0  0  0  0  0  0  0  0  0
   55.3150   91.0700   20.0420 O   0  0  0  0  0  0  0  0  0  0  0  0
   54.9860   86.2120   22.4770 C   0  0  0  0  0  1  0  0  0  0  0  0
   56.5680   90.3440   22.1040 H   0  0  0  0  0  0  0  0  0  0  0  0
   52.7120   84.6800   20.6220 C   0  0  0  0  0  0  0  0  0  0  0  0
   51.8590   84.3000   21.6130 C   0  0  0  0  0  3  0  0  0  0  0  0
   51.8720   83.1090   22.2810 C   0  0  0  0  0  0  0  0  0  0  0  0
   50.5810   82.7760   23.6450 Br  0  0  0  0  0  0  0  0  0  0  0  0
   52.8130   82.1760   21.9590 C   0  0  0  0  0  3  0  0  0  0  0  0
   53.7240   82.4770   20.9590 C   0  0  0  0  0  3  0  0  0  0  0  0
   53.6730   83.6900   20.3130 C   0  0  0  0  0  0  0  0  0  0  0  0
   54.6020   83.9510   19.3210 O   0  0  0  0  0  0  0  0  0  0  0  0
   54.7210   83.2200   18.1400 C   0  0  0  0  0  1  0  0  0  0  0  0
   53.4350   90.1870   18.1130 C   0  0  0  0  0  2  0  0  0  0  0  0
   54.1400   89.8860   16.8070 C   0  0  0  0  0  2  0  0  0  0  0  0
   54.5470   91.0830   16.2500 O   0  0  0  0  0  0  0  0  0  0  0  0
   54.0030   92.1840   16.9340 C   0  0  0  0  0  1  0  0  0  0  0  0
  1  2  1  0  0  0  0
  1 17  1  0  0  0  0
  2  8  1  0  0  0  0
  3  6  1  0  0  0  0
  3  2  1  0  0  0  0
  4  5  1  0  0  0  0
  4  3  2  0  0  0  0
  5  1  2  0  0  0  0
  6  7  1  0  0  0  0
  7 13  1  0  0  0  0
  7  8  2  0  0  0  0
  8  9  1  0  0  0  0
  9 10  1  0  0  0  0
  9 15  1  0  0  0  0
 10 11  2  0  0  0  0
 12 16  1  0  0  0  0
 12 10  1  0  0  0  0
 13 12  1  0  0  0  0
 14 13  2  0  0  0  0
 17 18  1  0  0  0  0
 18 19  2  0  0  0  0
 19 20  1  0  0  0  0
 21 19  1  0  0  0  0
 22 21  2  0  0  0  0
 23 17  2  0  0  0  0
 23 22  1  0  0  0  0
 24 23  1  0  0  0  0
 25 24  1  0  0  0  0
 26  6  1  0  0  0  0
 27 26  1  0  0  0  0
 28 27  1  0  0  0  0
 28 29  1  0  0  0  0
M  END
>  <Pose>
1

>  <Score>
-7.722

$$$$
