MODEL 1
REMARK VINA RESULT:    -8.631      0.000      0.000
REMARK INTER + INTRA:         -10.597
REMARK INTER:                 -10.650
REMARK INTRA:                   0.052
REMARK UNBOUND:                 0.052
REMARK  4 active torsions:
REMARK  status: ('A' for Active; 'I' for Inactive)
REMARK    1  A    between atoms: C_4  and  C_8 
REMARK    2  A    between atoms: C_8  and  C_10 
REMARK    3  A    between atoms: C_10  and  N_11 
REMARK    4  A    between atoms: N_14  and  C_17 
ROOT
ATOM      1  N   UNK d   1      50.565  98.828  28.084  0.00  0.00    -0.402 N 
ATOM      2  C   UNK d   1      51.121 100.116  27.895  0.00  0.00     0.137 C 
ATOM      3  C   UNK d   1      50.382 101.241  28.511  0.00  0.00     0.143 C 
ATOM      4  N   UNK d   1      50.125 100.995  29.894  0.00  0.00    -0.362 N 
ATOM      5  C   UNK d   1      50.146  99.640  30.364  0.00  0.00     0.143 C 
ATOM      6  C   UNK d   1      49.849  98.615  29.294  0.00  0.00     0.137 C 
ENDROOT
BRANCH   4   7
ATOM      7  C   UNK d   1      49.826 102.040  30.808  0.00  0.00     0.135 A 
ATOM      8  C   UNK d   1      48.551 102.396  30.954  0.00  0.00     0.125 A 
ATOM      9  N   UNK d   1      47.320 101.976  30.393  0.00  0.00    -0.291 N 
ATOM     10  C   UNK d   1      48.283 103.487  31.917  0.00  0.00     0.113 A 
ATOM     11  N   UNK d   1      46.339 102.790  31.002  0.00  0.00    -0.300 N 
ATOM     12  C   UNK d   1      47.118 100.938  29.411  0.00  0.00     0.178 C 
ATOM     13  C   UNK d   1      46.972 103.677  31.904  0.00  0.00     0.053 A 
ATOM     14  H   UNK d   1      45.327 102.696  30.772  0.00  0.00     0.187 HD
ATOM     15  C   UNK d   1      46.312 104.704  32.753  0.00  0.00     0.072 C 
ATOM     16  N   UNK d   1      49.360 104.092  32.624  0.00  0.00    -0.240 NA
ATOM     17  C   UNK d   1      50.576 103.709  32.447  0.00  0.00     0.209 A 
ATOM     18  N   UNK d   1      50.891 102.676  31.544  0.00  0.00    -0.335 N 
ATOM     19  H   UNK d   1      51.852 102.335  31.367  0.00  0.00     0.168 HD
ENDBRANCH   4   7
BRANCH   1  20
ATOM     20  C   UNK d   1      51.312  97.736  27.595  0.00  0.00     0.200 C 
BRANCH  20  21
ATOM     21  C   UNK d   1      52.689  97.683  28.088  0.00  0.00     0.176 C 
ATOM     22  O   UNK d   1      52.953  98.164  29.219  0.00  0.00    -0.291 OA
BRANCH  21  23
ATOM     23  C   UNK d   1      53.718  97.073  27.252  0.00  0.00     0.013 A 
ATOM     24  C   UNK d   1      54.868  97.754  26.949  0.00  0.00     0.034 A 
ATOM     25  C   UNK d   1      55.867  97.204  26.156  0.00  0.00     0.011 A 
ATOM     26 Br   UNK d   1      57.463  98.152  25.740  0.00  0.00    -0.051 Br
ATOM     27  C   UNK d   1      55.698  95.932  25.654  0.00  0.00     0.019 A 
ATOM     28  C   UNK d   1      54.528  95.253  25.969  0.00  0.00     0.002 A 
ATOM     29  C   UNK d   1      53.545  95.802  26.753  0.00  0.00     0.015 A 
ENDBRANCH  21  23
ENDBRANCH  20  21
ENDBRANCH   1  20
TORSDOF 4
ENDMDL
