/Users/jonathanwahrer/Desktop/Msc/3_Semester/Drug_Design_Praktikum/waehrer_HTS_screening/HTS_experiment/out/docking_results/vina_output/3npc/0136_docked.pdbqt
 OpenBabel03192219153D

 30 33  0  0  1  0  0  0  0  0999 V2000
   51.1450   98.1370   28.4060 C   0  0  2  0  0  3  0  0  0  0  0  0
   49.6370   97.9800   28.3700 C   0  0  0  0  0  2  0  0  0  0  0  0
   49.1650   99.3200   28.6610 N   0  0  0  0  0  0  0  0  0  0  0  0
   50.2610  100.2680   28.6580 C   0  0  1  0  0  3  0  0  0  0  0  0
   51.3210   99.5180   27.8400 C   0  0  0  0  0  2  0  0  0  0  0  0
   49.8200  101.4880   27.9840 C   0  0  0  0  0  0  0  0  0  0  0  0
   50.4620  101.9790   27.0440 O   0  0  0  0  0  0  0  0  0  0  0  0
   48.6250  102.1030   28.4400 N   0  0  0  0  0  0  0  0  0  0  0  0
   47.6090  101.2960   29.0770 C   0  0  1  0  0  3  0  0  0  0  0  0
   47.8590   99.8440   28.9400 C   0  0  0  0  0  0  0  0  0  0  0  0
   46.9050   99.0320   29.0700 O   0  0  0  0  0  0  0  0  0  0  0  0
   48.4430  103.1260   28.3330 H   0  0  0  0  0  0  0  0  0  0  0  0
   51.8040   97.1160   27.6120 N   0  0  0  0  0  0  0  0  0  0  0  0
   53.1970   97.2340   27.4280 C   0  0  0  0  0  0  0  0  0  0  0  0
   53.8230   98.2250   27.9570 O   0  0  0  0  0  0  0  0  0  0  0  0
   51.2970   96.3280   27.1860 H   0  0  0  0  0  0  0  0  0  0  0  0
   53.9600   96.2710   26.6530 C   0  0  0  0  0  0  0  0  0  0  0  0
   55.2180   96.6010   26.1640 C   0  0  0  0  0  3  0  0  0  0  0  0
   55.9420   95.6950   25.4380 C   0  0  0  0  0  0  0  0  0  0  0  0
   57.6730   96.1620   24.7690 Br  0  0  0  0  0  0  0  0  0  0  0  0
   55.4620   94.4450   25.1720 C   0  0  0  0  0  3  0  0  0  0  0  0
   54.2200   94.1160   25.6550 C   0  0  0  0  0  3  0  0  0  0  0  0
   53.4770   95.0270   26.3910 C   0  0  0  0  0  3  0  0  0  0  0  0
   47.3660  101.6980   30.5160 C   0  0  0  0  0  2  0  0  0  0  0  0
   48.3560  102.6610   31.0260 C   0  0  0  0  0  0  0  0  0  0  0  0
   49.5110  102.2040   31.6350 C   0  0  0  0  0  3  0  0  0  0  0  0
   50.4410  103.0970   32.1140 C   0  0  0  0  0  3  0  0  0  0  0  0
   50.2790  104.4660   32.0160 C   0  0  0  0  0  3  0  0  0  0  0  0
   49.1300  104.9260   31.4090 C   0  0  0  0  0  3  0  0  0  0  0  0
   48.1850  104.0430   30.9220 C   0  0  0  0  0  3  0  0  0  0  0  0
  1 13  1  6  0  0  0
  2  1  1  0  0  0  0
  2  3  1  0  0  0  0
  3 10  1  0  0  0  0
  4  5  1  6  0  0  0
  4  3  1  0  0  0  0
  5  1  1  0  0  0  0
  6  8  1  0  0  0  0
  6  4  1  0  0  0  0
  7  6  2  0  0  0  0
  8  9  1  0  0  0  0
  9 24  1  1  0  0  0
 10 11  2  0  0  0  0
 10  9  1  0  0  0  0
 12  8  1  0  0  0  0
 14 13  1  0  0  0  0
 14 15  2  0  0  0  0
 16 13  1  0  0  0  0
 17 14  1  0  0  0  0
 18 17  2  0  0  0  0
 19 18  1  0  0  0  0
 20 19  1  0  0  0  0
 21 19  2  0  0  0  0
 21 22  1  0  0  0  0
 22 23  2  0  0  0  0
 23 17  1  0  0  0  0
 24 25  1  0  0  0  0
 25 26  1  0  0  0  0
 26 27  2  0  0  0  0
 28 27  1  0  0  0  0
 29 28  2  0  0  0  0
 30 25  2  0  0  0  0
 30 29  1  0  0  0  0
M  END
>  <Pose>
1

>  <Score>
-11.075

$$$$
