MODEL 1
REMARK VINA RESULT:   -11.075      0.000      0.000
REMARK INTER + INTRA:         -13.607
REMARK INTER:                 -13.664
REMARK INTRA:                   0.057
REMARK UNBOUND:                 0.057
REMARK  4 active torsions:
REMARK  status: ('A' for Active; 'I' for Inactive)
REMARK    1  A    between atoms: C_4  and  C_8 
REMARK       I    between atoms: C_8  and  N_10 
REMARK    2  A    between atoms: N_10  and  C_11 
REMARK    3  A    between atoms: C_19  and  C_22 
REMARK    4  A    between atoms: C_22  and  C_23 
ROOT
ATOM      1  C   UNK d   1      51.145  98.137  28.406  0.00  0.00     0.105 C 
ATOM      2  C   UNK d   1      49.637  97.980  28.370  0.00  0.00     0.152 C 
ATOM      3  N   UNK d   1      49.165  99.320  28.661  0.00  0.00    -0.335 N 
ATOM      4  C   UNK d   1      50.261 100.268  28.658  0.00  0.00     0.181 C 
ATOM      5  C   UNK d   1      51.321  99.518  27.840  0.00  0.00     0.061 C 
ATOM      6  C   UNK d   1      49.820 101.488  27.984  0.00  0.00     0.241 C 
ATOM      7  O   UNK d   1      50.462 101.979  27.044  0.00  0.00    -0.271 OA
ATOM      8  N   UNK d   1      48.625 102.103  28.440  0.00  0.00    -0.346 N 
ATOM      9  C   UNK d   1      47.609 101.296  29.077  0.00  0.00     0.181 C 
ATOM     10  C   UNK d   1      47.859  99.844  28.940  0.00  0.00     0.243 C 
ATOM     11  O   UNK d   1      46.905  99.032  29.070  0.00  0.00    -0.271 OA
ATOM     12  H   UNK d   1      48.443 103.126  28.333  0.00  0.00     0.163 HD
ENDROOT
BRANCH   1  13
ATOM     13  N   UNK d   1      51.804  97.116  27.612  0.00  0.00    -0.351 N 
ATOM     14  C   UNK d   1      53.197  97.234  27.428  0.00  0.00     0.252 C 
ATOM     15  O   UNK d   1      53.823  98.225  27.957  0.00  0.00    -0.268 OA
ATOM     16  H   UNK d   1      51.297  96.328  27.186  0.00  0.00     0.163 HD
BRANCH  14  17
ATOM     17  C   UNK d   1      53.960  96.271  26.653  0.00  0.00     0.033 A 
ATOM     18  C   UNK d   1      55.218  96.601  26.164  0.00  0.00     0.036 A 
ATOM     19  C   UNK d   1      55.942  95.695  25.438  0.00  0.00     0.011 A 
ATOM     20 Br   UNK d   1      57.673  96.162  24.769  0.00  0.00    -0.051 Br
ATOM     21  C   UNK d   1      55.462  94.445  25.172  0.00  0.00     0.019 A 
ATOM     22  C   UNK d   1      54.220  94.116  25.655  0.00  0.00     0.002 A 
ATOM     23  C   UNK d   1      53.477  95.027  26.391  0.00  0.00     0.017 A 
ENDBRANCH  14  17
ENDBRANCH   1  13
BRANCH   9  24
ATOM     24  C   UNK d   1      47.366 101.698  30.516  0.00  0.00     0.073 C 
BRANCH  24  25
ATOM     25  C   UNK d   1      48.356 102.661  31.026  0.00  0.00    -0.056 A 
ATOM     26  C   UNK d   1      49.511 102.204  31.635  0.00  0.00     0.007 A 
ATOM     27  C   UNK d   1      50.441 103.097  32.114  0.00  0.00     0.001 A 
ATOM     28  C   UNK d   1      50.279 104.466  32.016  0.00  0.00     0.000 A 
ATOM     29  C   UNK d   1      49.130 104.926  31.409  0.00  0.00     0.001 A 
ATOM     30  C   UNK d   1      48.185 104.043  30.922  0.00  0.00     0.007 A 
ENDBRANCH  24  25
ENDBRANCH   9  24
TORSDOF 4
ENDMDL
