/Users/jonathanwahrer/Desktop/Msc/3_Semester/Drug_Design_Praktikum/waehrer_HTS_screening/HTS_experiment/out/docking_results/vina_output/3npc/0137_docked.pdbqt
 OpenBabel03192219153D

 25 28  0  0  1  0  0  0  0  0999 V2000
   51.7920   97.6400   28.1590 C   0  0  2  0  0  3  0  0  0  0  0  0
   50.2770   97.3390   27.8580 C   0  0  0  0  0  2  0  0  0  0  0  0
   49.5980   98.4580   28.4150 N   0  0  0  0  0  0  0  0  0  0  0  0
   50.5330   99.5650   28.5510 C   0  0  1  0  0  3  0  0  0  0  0  0
   51.7190   99.1520   27.7810 C   0  0  0  0  0  2  0  0  0  0  0  0
   49.8840  100.8300   28.1690 C   0  0  0  0  0  0  0  0  0  0  0  0
   50.5240  101.6720   27.5160 O   0  0  0  0  0  0  0  0  0  0  0  0
   48.5450  101.0860   28.5420 N   0  0  0  0  0  0  0  0  0  0  0  0
   47.6100   99.9880   28.6480 C   0  0  2  0  0  3  0  0  0  0  0  0
   46.6500  100.3760   29.7550 C   0  0  0  0  0  2  0  0  0  0  0  0
   47.0460  101.7590   30.1390 C   0  0  0  0  0  2  0  0  0  0  0  0
   47.7730  102.2750   28.8890 C   0  0  0  0  0  2  0  0  0  0  0  0
   48.2600   98.6950   28.8380 C   0  0  0  0  0  0  0  0  0  0  0  0
   47.6230   97.7370   29.3990 O   0  0  0  0  0  0  0  0  0  0  0  0
   52.6260   96.8730   27.4660 N   0  0  0  0  0  0  0  0  0  0  0  0
   53.4850   96.0750   26.7520 C   0  0  0  0  0  0  0  0  0  0  0  0
   53.3240   94.8970   26.3080 O   0  0  0  0  0  0  0  0  0  0  0  0
   51.6900   95.8630   27.4300 H   0  0  0  0  0  0  0  0  0  0  0  0
   54.8570   96.6050   26.3940 C   0  0  0  0  0  0  0  0  0  0  0  0
   55.6670   95.9360   25.5090 C   0  0  0  0  0  3  0  0  0  0  0  0
   56.9150   96.3920   25.1630 C   0  0  0  0  0  0  0  0  0  0  0  0
   58.0240   95.4830   23.9160 Br  0  0  0  0  0  0  0  0  0  0  0  0
   57.3430   97.5790   25.7510 C   0  0  0  0  0  3  0  0  0  0  0  0
   56.5620   98.2690   26.6350 C   0  0  0  0  0  3  0  0  0  0  0  0
   55.3050   97.7720   26.9580 C   0  0  0  0  0  3  0  0  0  0  0  0
  1 15  1  6  0  0  0
  2  1  1  0  0  0  0
  2  3  1  0  0  0  0
  3  4  1  0  0  0  0
  3 13  1  0  0  0  0
  4  5  1  6  0  0  0
  5  1  1  0  0  0  0
  6  8  1  0  0  0  0
  6  4  1  0  0  0  0
  7  6  2  0  0  0  0
  8  9  1  0  0  0  0
  8 12  1  0  0  0  0
  9 13  1  0  0  0  0
  9 10  1  1  0  0  0
 10 11  1  0  0  0  0
 12 11  1  0  0  0  0
 13 14  2  0  0  0  0
 16 15  1  0  0  0  0
 17 16  2  0  0  0  0
 18 15  1  0  0  0  0
 19 16  1  0  0  0  0
 19 25  1  0  0  0  0
 20 19  2  0  0  0  0
 21 20  1  0  0  0  0
 21 23  2  0  0  0  0
 22 21  1  0  0  0  0
 23 24  1  0  0  0  0
 24 25  2  0  0  0  0
M  END
>  <Pose>
1

>  <Score>
-10.084

$$$$
