/Users/jonathanwahrer/Desktop/Msc/3_Semester/Drug_Design_Praktikum/waehrer_HTS_screening/HTS_experiment/out/docking_results/vina_output/3npc/0141_docked.pdbqt
 OpenBabel03192219153D

 23 26  0  0  1  0  0  0  0  0999 V2000
   50.9640   98.6000   27.9980 N   0  0  0  0  0  0  0  0  0  0  0  0
   49.6360   98.1760   28.3600 C   0  0  0  0  0  0  0  0  0  0  0  0
   49.0520   97.0880   28.0560 O   0  0  0  0  0  0  0  0  0  0  0  0
   49.0280   99.2190   29.1630 C   0  0  1  0  0  3  0  0  0  0  0  0
   50.1850  100.0940   29.6830 C   0  0  2  0  0  3  0  0  0  0  0  0
   49.6960  101.5040   29.6090 C   0  0  2  0  0  3  0  0  0  0  0  0
   48.1700  101.3070   29.5180 C   0  0  0  0  0  2  0  0  0  0  0  0
   48.2870  100.2840   28.3670 C   0  0  1  0  0  3  0  0  0  0  0  0
   49.2290  101.0320   27.4870 C   0  0  0  0  0  2  0  0  0  0  0  0
   49.9000  101.9580   28.1860 C   0  0  0  0  0  2  0  0  0  0  0  0
   51.1710   99.8680   28.5540 C   0  0  0  0  0  0  0  0  0  0  0  0
   52.0260  100.7080   28.1960 O   0  0  0  0  0  0  0  0  0  0  0  0
   51.7980   97.7800   27.2110 N   0  0  0  0  0  0  0  0  0  0  0  0
   53.0130   97.2100   27.6280 C   0  0  0  0  0  0  0  0  0  0  0  0
   53.4520   97.3990   28.7760 O   0  0  0  0  0  0  0  0  0  0  0  0
   51.5120   97.5550   26.2060 H   0  0  0  0  0  0  0  0  0  0  0  0
   53.8020   96.3810   26.7380 C   0  0  0  0  0  0  0  0  0  0  0  0
   55.0500   96.8370   26.3230 C   0  0  0  0  0  3  0  0  0  0  0  0
   55.8330   96.0830   25.4850 C   0  0  0  0  0  0  0  0  0  0  0  0
   57.5260   96.7710   24.9510 Br  0  0  0  0  0  0  0  0  0  0  0  0
   55.4050   94.8430   25.0270 C   0  0  0  0  0  3  0  0  0  0  0  0
   54.1700   94.4140   25.4510 C   0  0  0  0  0  3  0  0  0  0  0  0
   53.3800   95.1670   26.2920 C   0  0  0  0  0  3  0  0  0  0  0  0
  1  2  1  0  0  0  0
  1 11  1  0  0  0  0
  3  2  2  0  0  0  0
  4  2  1  6  0  0  0
  4  5  1  0  0  0  0
  5 11  1  6  0  0  0
  6 10  1  6  0  0  0
  6  5  1  0  0  0  0
  7  6  1  0  0  0  0
  8  9  1  6  0  0  0
  8  4  1  0  0  0  0
  8  7  1  0  0  0  0
  9 10  1  0  0  0  0
 12 11  2  0  0  0  0
 13 14  1  0  0  0  0
 13  1  1  0  0  0  0
 14 15  2  0  0  0  0
 16 13  1  0  0  0  0
 17 14  1  0  0  0  0
 18 17  1  0  0  0  0
 19 18  2  0  0  0  0
 20 19  1  0  0  0  0
 21 22  2  0  0  0  0
 21 19  1  0  0  0  0
 22 23  1  0  0  0  0
 23 17  2  0  0  0  0
M  END
>  <Pose>
1

>  <Score>
-9.630

$$$$
