MODEL 1
REMARK VINA RESULT:    -9.630      0.000      0.000
REMARK INTER + INTRA:         -11.162
REMARK INTER:                 -10.756
REMARK INTRA:                  -0.406
REMARK UNBOUND:                -0.406
REMARK  2 active torsions:
REMARK  status: ('A' for Active; 'I' for Inactive)
REMARK    1  A    between atoms: C_4  and  C_8 
REMARK       I    between atoms: C_8  and  N_10 
REMARK    2  A    between atoms: N_10  and  N_11 
ROOT
ATOM      1  N   UNK d   1      50.964  98.600  27.998  0.00  0.00    -0.187 N 
ATOM      2  C   UNK d   1      49.636  98.176  28.360  0.00  0.00     0.251 C 
ATOM      3  O   UNK d   1      49.052  97.088  28.056  0.00  0.00    -0.271 OA
ATOM      4  C   UNK d   1      49.028  99.219  29.163  0.00  0.00     0.101 C 
ATOM      5  C   UNK d   1      50.185 100.094  29.683  0.00  0.00     0.101 C 
ATOM      6  C   UNK d   1      49.696 101.504  29.609  0.00  0.00     0.022 C 
ATOM      7  C   UNK d   1      48.170 101.307  29.518  0.00  0.00     0.018 C 
ATOM      8  C   UNK d   1      48.287 100.284  28.367  0.00  0.00     0.022 C 
ATOM      9  C   UNK d   1      49.229 101.032  27.487  0.00  0.00    -0.025 C 
ATOM     10  C   UNK d   1      49.900 101.958  28.186  0.00  0.00    -0.025 C 
ATOM     11  C   UNK d   1      51.171  99.868  28.554  0.00  0.00     0.251 C 
ATOM     12  O   UNK d   1      52.026 100.708  28.196  0.00  0.00    -0.271 OA
ENDROOT
BRANCH   1  13
ATOM     13  N   UNK d   1      51.798  97.780  27.211  0.00  0.00    -0.254 N 
ATOM     14  C   UNK d   1      53.013  97.210  27.628  0.00  0.00     0.270 C 
ATOM     15  O   UNK d   1      53.452  97.399  28.776  0.00  0.00    -0.266 OA
ATOM     16  H   UNK d   1      51.512  97.555  26.206  0.00  0.00     0.191 HD
BRANCH  14  17
ATOM     17  C   UNK d   1      53.802  96.381  26.738  0.00  0.00     0.035 A 
ATOM     18  C   UNK d   1      55.050  96.837  26.323  0.00  0.00     0.036 A 
ATOM     19  C   UNK d   1      55.833  96.083  25.485  0.00  0.00     0.011 A 
ATOM     20 Br   UNK d   1      57.526  96.771  24.951  0.00  0.00    -0.051 Br
ATOM     21  C   UNK d   1      55.405  94.843  25.027  0.00  0.00     0.019 A 
ATOM     22  C   UNK d   1      54.170  94.414  25.451  0.00  0.00     0.002 A 
ATOM     23  C   UNK d   1      53.380  95.167  26.292  0.00  0.00     0.017 A 
ENDBRANCH  14  17
ENDBRANCH   1  13
TORSDOF 2
ENDMDL
