MODEL 1
REMARK VINA RESULT:    -8.669      0.000      0.000
REMARK INTER + INTRA:         -12.964
REMARK INTER:                 -11.963
REMARK INTRA:                  -1.002
REMARK UNBOUND:                -1.002
REMARK  7 active torsions:
REMARK  status: ('A' for Active; 'I' for Inactive)
REMARK    1  A    between atoms: C_4  and  C_8 
REMARK    2  A    between atoms: N_9  and  N_10 
REMARK       I    between atoms: N_10  and  C_11 
REMARK    3  A    between atoms: C_11  and  C_13 
REMARK    4  A    between atoms: N_16  and  C_26 
REMARK    5  A    between atoms: C_17  and  C_18 
REMARK    6  A    between atoms: C_18  and  N_19 
REMARK    7  A    between atoms: C_30  and  N_31 
ROOT
ATOM      1  C   UNK d   1      55.042  86.371  23.963  0.00  0.00     0.169 A 
ATOM      2  N   UNK d   1      55.281  87.078  25.014  0.00  0.00    -0.152 NA
ATOM      3  N   UNK d   1      54.662  86.551  26.066  0.00  0.00     0.012 NA
ATOM      4  N   UNK d   1      53.981  85.447  25.660  0.00  0.00    -0.215 N 
ATOM      5  C   UNK d   1      54.199  85.275  24.399  0.00  0.00     0.087 A 
ENDROOT
BRANCH   1   6
ATOM      6  C   UNK d   1      55.336  86.622  22.490  0.00  0.00     0.293 C 
ATOM      7  N   UNK d   1      54.622  87.638  21.925  0.00  0.00    -0.242 N 
ATOM      8  H   UNK d   1      54.033  88.125  22.881  0.00  0.00     0.192 HD
ATOM      9  O   UNK d   1      56.201  85.893  21.957  0.00  0.00    -0.264 OA
BRANCH   7  10
ATOM     10  N   UNK d   1      54.248  88.426  20.941  0.00  0.00    -0.183 NA
ATOM     11  C   UNK d   1      55.004  89.107  20.125  0.00  0.00     0.150 C 
BRANCH  11  12
ATOM     12  C   UNK d   1      54.454  89.977  19.068  0.00  0.00    -0.016 A 
ATOM     13  C   UNK d   1      53.151  90.433  19.012  0.00  0.00     0.032 A 
ATOM     14  C   UNK d   1      52.795  91.362  18.035  0.00  0.00     0.011 A 
ATOM     15 Br   UNK d   1      51.017  92.074  17.926  0.00  0.00    -0.051 Br
ATOM     16  C   UNK d   1      53.687  91.867  17.096  0.00  0.00     0.019 A 
ATOM     17  C   UNK d   1      54.960  91.368  17.194  0.00  0.00     0.002 A 
ATOM     18  C   UNK d   1      55.353  90.462  18.136  0.00  0.00     0.013 A 
ENDBRANCH  11  12
ENDBRANCH   7  10
ENDBRANCH   1   6
BRANCH   5  19
ATOM     19  C   UNK d   1      53.832  84.278  23.399  0.00  0.00     0.178 C 
BRANCH  19  20
ATOM     20  N   UNK d   1      52.601  83.629  23.379  0.00  0.00    -0.404 N 
ATOM     21  C   UNK d   1      51.329  83.974  23.122  0.00  0.00     0.136 C 
ATOM     22  C   UNK d   1      50.914  83.341  21.766  0.00  0.00     0.135 C 
ATOM     23  N   UNK d   1      52.101  83.138  21.015  0.00  0.00    -0.414 N 
ATOM     24  C   UNK d   1      52.887  82.079  21.571  0.00  0.00     0.135 C 
ATOM     25  C   UNK d   1      52.063  83.226  19.616  0.00  0.00     0.143 C 
ATOM     26  C   UNK d   1      52.778  82.173  23.099  0.00  0.00     0.136 C 
ENDBRANCH  19  20
ENDBRANCH   5  19
BRANCH   4  27
ATOM     27  C   UNK d   1      52.884  85.008  26.510  0.00  0.00     0.225 A 
ATOM     28  N   UNK d   1      53.230  83.901  27.369  0.00  0.00    -0.081 NA
ATOM     29  O   UNK d   1      52.258  83.557  28.072  0.00  0.00    -0.103 OA
ATOM     30  N   UNK d   1      51.242  84.314  27.791  0.00  0.00    -0.083 NA
ATOM     31  C   UNK d   1      51.650  85.219  26.813  0.00  0.00     0.201 A 
BRANCH  31  32
ATOM     32  N   UNK d   1      50.731  86.171  26.327  0.00  0.00    -0.379 N 
ATOM     33  H   UNK d   1      50.502  86.937  27.053  0.00  0.00     0.158 HD
ATOM     34  H   UNK d   1      50.259  86.266  25.449  0.00  0.00     0.158 HD
ENDBRANCH  31  32
ENDBRANCH   4  27
TORSDOF 7
ENDMDL
