MODEL 1
REMARK VINA RESULT:    -9.389      0.000      0.000
REMARK INTER + INTRA:         -12.922
REMARK INTER:                 -12.134
REMARK INTRA:                  -0.788
REMARK UNBOUND:                -0.788
REMARK  5 active torsions:
REMARK  status: ('A' for Active; 'I' for Inactive)
REMARK    1  A    between atoms: C_4  and  C_8 
REMARK    2  A    between atoms: N_9  and  N_10 
REMARK    3  A    between atoms: N_10  and  C_11 
REMARK    4  A    between atoms: C_13  and  N_23 
REMARK    5  A    between atoms: C_15  and  N_17 
ROOT
ATOM      1  C   UNK d   1      54.956  91.201  21.593  0.00  0.00     0.774 A 
ATOM      2  N   UNK d   1      55.448  90.485  22.609  0.00  0.00     0.133 NA
ATOM      3  C   UNK d   1      55.426  89.124  22.638  0.00  0.00     0.756 A 
ATOM      4  N   UNK d   1      54.868  88.527  21.563  0.00  0.00     0.131 NA
ATOM      5  C   UNK d   1      54.357  89.191  20.512  0.00  0.00     0.756 A 
ATOM      6  N   UNK d   1      54.421  90.544  20.566  0.00  0.00     0.133 NA
ENDROOT
BRANCH   1   7
ATOM      7  N   UNK d   1      55.013  92.622  21.627  0.00  0.00    -0.105 N 
ATOM      8  H   UNK d   1      55.376  93.155  20.810  0.00  0.00     0.208 HD
BRANCH   7   9
ATOM      9  N   UNK d   1      54.590  93.342  22.748  0.00  0.00    -0.172 NA
ATOM     10  C   UNK d   1      55.362  93.978  23.539  0.00  0.00     0.150 C 
BRANCH  10  11
ATOM     11  C   UNK d   1      54.892  94.719  24.702  0.00  0.00    -0.016 A 
ATOM     12  C   UNK d   1      55.640  95.730  25.280  0.00  0.00     0.032 A 
ATOM     13  C   UNK d   1      55.226  96.446  26.376  0.00  0.00     0.011 A 
ATOM     14 Br   UNK d   1      56.310  97.835  27.127  0.00  0.00    -0.051 Br
ATOM     15  C   UNK d   1      54.001  96.149  26.938  0.00  0.00     0.019 A 
ATOM     16  C   UNK d   1      53.219  95.149  26.399  0.00  0.00     0.002 A 
ATOM     17  C   UNK d   1      53.674  94.446  25.287  0.00  0.00     0.013 A 
ENDBRANCH  10  11
ENDBRANCH   7   9
ENDBRANCH   1   7
BRANCH   3  18
ATOM     18  N   UNK d   1      55.952  88.389  23.723  0.00  0.00    -0.209 N 
ATOM     19  C   UNK d   1      55.205  88.241  24.941  0.00  0.00     0.167 C 
ATOM     20  C   UNK d   1      55.118  86.746  25.227  0.00  0.00     0.188 C 
ATOM     21  O   UNK d   1      56.430  86.297  25.359  0.00  0.00    -0.388 OA
ATOM     22  C   UNK d   1      57.123  86.343  24.163  0.00  0.00     0.188 C 
ATOM     23  C   UNK d   1      57.247  87.771  23.642  0.00  0.00     0.167 C 
ENDBRANCH   3  18
BRANCH   5  24
ATOM     24  N   UNK d   1      53.781  88.545  19.405  0.00  0.00    -0.209 N 
ATOM     25  C   UNK d   1      53.106  87.280  19.524  0.00  0.00     0.167 C 
ATOM     26  C   UNK d   1      51.911  87.352  18.564  0.00  0.00     0.188 C 
ATOM     27  O   UNK d   1      51.514  88.675  18.385  0.00  0.00    -0.388 OA
ATOM     28  C   UNK d   1      52.409  89.440  17.682  0.00  0.00     0.188 C 
ATOM     29  C   UNK d   1      53.855  89.146  18.104  0.00  0.00     0.167 C 
ENDBRANCH   5  24
TORSDOF 5
ENDMDL
