/Users/jonathanwahrer/Desktop/Msc/3_Semester/Drug_Design_Praktikum/waehrer_HTS_screening/HTS_experiment/out/docking_results/vina_output/3npc/0156_docked.pdbqt
 OpenBabel03192219163D

 29 32  0  0  0  0  0  0  0  0999 V2000
   54.9560   91.2010   21.5930 C   0  0  0  0  0  0  0  0  0  0  0  0
   55.4480   90.4850   22.6090 N   0  0  0  0  0  4  0  0  0  0  0  0
   55.4260   89.1240   22.6380 C   0  0  0  0  0  0  0  0  0  0  0  0
   54.8680   88.5270   21.5630 N   0  0  0  0  0  0  0  0  0  0  0  0
   54.3570   89.1910   20.5120 C   0  0  0  0  0  0  0  0  0  0  0  0
   54.4210   90.5440   20.5660 N   0  0  0  0  0  2  0  0  0  0  0  0
   55.0130   92.6220   21.6270 N   0  0  0  0  0  0  0  0  0  0  0  0
   55.3760   93.1550   20.8100 H   0  0  0  0  0  0  0  0  0  0  0  0
   54.5900   93.3420   22.7480 N   0  0  0  0  0  0  0  0  0  0  0  0
   55.3620   93.9780   23.5390 C   0  0  0  0  0  3  0  0  0  0  0  0
   54.8920   94.7190   24.7020 C   0  0  0  0  0  0  0  0  0  0  0  0
   55.6400   95.7300   25.2800 C   0  0  0  0  0  3  0  0  0  0  0  0
   55.2260   96.4460   26.3760 C   0  0  0  0  0  0  0  0  0  0  0  0
   56.3100   97.8350   27.1270 Br  0  0  0  0  0  0  0  0  0  0  0  0
   54.0010   96.1490   26.9380 C   0  0  0  0  0  3  0  0  0  0  0  0
   53.2190   95.1490   26.3990 C   0  0  0  0  0  3  0  0  0  0  0  0
   53.6740   94.4460   25.2870 C   0  0  0  0  0  3  0  0  0  0  0  0
   55.9520   88.3890   23.7230 N   0  0  0  0  0  0  0  0  0  0  0  0
   55.2050   88.2410   24.9410 C   0  0  0  0  0  2  0  0  0  0  0  0
   55.1180   86.7460   25.2270 C   0  0  0  0  0  2  0  0  0  0  0  0
   56.4300   86.2970   25.3590 O   0  0  0  0  0  0  0  0  0  0  0  0
   57.1230   86.3430   24.1630 C   0  0  0  0  0  2  0  0  0  0  0  0
   57.2470   87.7710   23.6420 C   0  0  0  0  0  2  0  0  0  0  0  0
   53.7810   88.5450   19.4050 N   0  0  0  0  0  0  0  0  0  0  0  0
   53.1060   87.2800   19.5240 C   0  0  0  0  0  2  0  0  0  0  0  0
   51.9110   87.3520   18.5640 C   0  0  0  0  0  2  0  0  0  0  0  0
   51.5140   88.6750   18.3850 O   0  0  0  0  0  0  0  0  0  0  0  0
   52.4090   89.4400   17.6820 C   0  0  0  0  0  2  0  0  0  0  0  0
   53.8550   89.1460   18.1040 C   0  0  0  0  0  2  0  0  0  0  0  0
  1  7  1  0  0  0  0
  1  2  2  0  0  0  0
  2  3  2  0  0  0  0
  3 18  1  0  0  0  0
  4  3  1  0  0  0  0
  5  6  1  0  0  0  0
  5  4  2  0  0  0  0
  6  1  1  0  0  0  0
  7  9  1  0  0  0  0
  8  7  1  0  0  0  0
  9 10  2  0  0  0  0
 10 11  1  0  0  0  0
 11 12  2  0  0  0  0
 11 17  1  0  0  0  0
 12 13  1  0  0  0  0
 13 15  2  0  0  0  0
 13 14  1  0  0  0  0
 16 15  1  0  0  0  0
 17 16  2  0  0  0  0
 18 19  1  0  0  0  0
 19 20  1  0  0  0  0
 20 21  1  0  0  0  0
 22 21  1  0  0  0  0
 23 18  1  0  0  0  0
 23 22  1  0  0  0  0
 24 25  1  0  0  0  0
 24  5  1  0  0  0  0
 26 25  1  0  0  0  0
 27 26  1  0  0  0  0
 28 29  1  0  0  0  0
 28 27  1  0  0  0  0
 29 24  1  0  0  0  0
M  END
>  <Pose>
1

>  <Score>
-9.389

$$$$
