MODEL 1
REMARK VINA RESULT:    -6.955      0.000      0.000
REMARK INTER + INTRA:         -11.530
REMARK INTER:                  -9.801
REMARK INTRA:                  -1.729
REMARK UNBOUND:                -1.729
REMARK  7 active torsions:
REMARK  status: ('A' for Active; 'I' for Inactive)
REMARK    1  A    between atoms: C_4  and  C_8 
REMARK    2  A    between atoms: N_9  and  C_28 
REMARK    3  A    between atoms: C_15  and  C_17 
REMARK    4  A    between atoms: C_20  and  C_23 
REMARK    5  A    between atoms: C_23  and  O_25 
REMARK    6  A    between atoms: C_28  and  C_29 
REMARK    7  A    between atoms: C_29  and  N_30 
ROOT
ATOM      1  C   UNK d   1      52.490  84.995  25.836  0.00  0.00     0.161 C 
ATOM      2  N   UNK d   1      53.902  84.768  26.073  0.00  0.00    -0.331 N 
ATOM      3  C   UNK d   1      53.992  83.550  26.798  0.00  0.00     0.295 C 
ATOM      4  O   UNK d   1      54.961  82.759  26.841  0.00  0.00    -0.264 OA
ATOM      5  C   UNK d   1      52.704  83.378  27.507  0.00  0.00     0.250 C 
ATOM      6  O   UNK d   1      52.373  82.437  28.261  0.00  0.00    -0.282 OA
ATOM      7  C   UNK d   1      51.903  84.540  27.146  0.00  0.00     0.062 C 
ATOM      8  C   UNK d   1      50.944  85.053  27.854  0.00  0.00     0.132 C 
ATOM      9  O   UNK d   1      50.318  86.222  27.374  0.00  0.00    -0.190 OA
ENDROOT
BRANCH   1  10
ATOM     10  C   UNK d   1      52.050  84.102  24.738  0.00  0.00    -0.029 A 
ATOM     11  C   UNK d   1      52.730  84.046  23.528  0.00  0.00     0.028 A 
ATOM     12  C   UNK d   1      52.322  83.224  22.499  0.00  0.00     0.011 A 
ATOM     13 Br   UNK d   1      53.302  83.196  20.863  0.00  0.00    -0.051 Br
ATOM     14  C   UNK d   1      51.213  82.416  22.626  0.00  0.00     0.019 A 
ATOM     15  C   UNK d   1      50.522  82.455  23.817  0.00  0.00     0.002 A 
ATOM     16  C   UNK d   1      50.938  83.280  24.840  0.00  0.00     0.009 A 
ENDBRANCH   1  10
BRANCH   8  17
ATOM     17  C   UNK d   1      50.442  84.524  29.114  0.00  0.00     0.032 A 
ATOM     18  C   UNK d   1      50.776  84.727  30.411  0.00  0.00     0.019 A 
ATOM     19  N   UNK d   1      49.933  84.008  31.181  0.00  0.00    -0.354 N 
ATOM     20  C   UNK d   1      51.906  85.553  30.953  0.00  0.00     0.069 C 
ATOM     21  C   UNK d   1      49.051  83.331  30.434  0.00  0.00     0.115 A 
ATOM     22  H   UNK d   1      49.974  83.985  32.241  0.00  0.00     0.166 HD
ATOM     23  C   UNK d   1      49.347  83.637  29.132  0.00  0.00    -0.014 A 
ATOM     24  C   UNK d   1      48.624  83.111  27.936  0.00  0.00     0.052 C 
BRANCH  21  25
ATOM     25  C   UNK d   1      47.978  82.438  30.915  0.00  0.00     0.310 C 
ATOM     26  O   UNK d   1      48.187  81.217  30.970  0.00  0.00    -0.258 OA
BRANCH  25  27
ATOM     27  O   UNK d   1      46.754  82.950  31.301  0.00  0.00    -0.321 OA
ATOM     28  C   UNK d   1      45.552  82.714  30.605  0.00  0.00     0.213 C 
ENDBRANCH  25  27
ENDBRANCH  21  25
ENDBRANCH   8  17
BRANCH   2  29
ATOM     29  C   UNK d   1      55.022  85.616  25.658  0.00  0.00     0.155 C 
BRANCH  29  30
ATOM     30  C   UNK d   1      54.573  87.046  25.446  0.00  0.00     0.255 C 
BRANCH  30  31
ATOM     31  N   UNK d   1      54.812  87.539  24.129  0.00  0.00    -0.066 N 
ATOM     32  C   UNK d   1      55.358  86.542  23.216  0.00  0.00     0.261 C 
ATOM     33  C   UNK d   1      55.129  87.039  21.814  0.00  0.00     0.195 C 
ATOM     34  O   UNK d   1      54.992  88.404  21.831  0.00  0.00    -0.388 OA
ATOM     35  C   UNK d   1      55.898  89.059  22.647  0.00  0.00     0.195 C 
ATOM     36  C   UNK d   1      55.767  88.640  24.111  0.00  0.00     0.261 C 
ATOM     37  H   UNK d   1      53.933  87.928  23.744  0.00  0.00     0.280 HD
ENDBRANCH  30  31
ENDBRANCH  29  30
ENDBRANCH   2  29
TORSDOF 7
ENDMDL
