MODEL 1
REMARK VINA RESULT:    -8.288      0.000      0.000
REMARK INTER + INTRA:         -11.770
REMARK INTER:                 -11.680
REMARK INTRA:                  -0.090
REMARK UNBOUND:                -0.090
REMARK  7 active torsions:
REMARK  status: ('A' for Active; 'I' for Inactive)
REMARK    1  A    between atoms: C_4  and  C_8 
REMARK    2  A    between atoms: N_9  and  C_26 
REMARK    3  A    between atoms: C_15  and  C_17 
REMARK    4  A    between atoms: C_20  and  O_23 
REMARK    5  A    between atoms: C_26  and  C_27 
REMARK    6  A    between atoms: C_27  and  C_28 
REMARK    7  A    between atoms: C_28  and  N_29 
ROOT
ATOM      1  C   UNK d   1      52.513  84.587  19.308  0.00  0.00     0.161 C 
ATOM      2  N   UNK d   1      52.557  84.044  20.652  0.00  0.00    -0.332 N 
ATOM      3  C   UNK d   1      53.457  84.773  21.457  0.00  0.00     0.295 C 
ATOM      4  O   UNK d   1      54.018  84.481  22.544  0.00  0.00    -0.264 OA
ATOM      5  C   UNK d   1      53.664  86.066  20.757  0.00  0.00     0.250 C 
ATOM      6  O   UNK d   1      54.404  86.973  21.188  0.00  0.00    -0.282 OA
ATOM      7  C   UNK d   1      52.861  86.031  19.548  0.00  0.00     0.062 C 
ATOM      8  C   UNK d   1      52.479  87.069  18.850  0.00  0.00     0.130 C 
ATOM      9  O   UNK d   1      51.641  86.877  17.738  0.00  0.00    -0.190 OA
ENDROOT
BRANCH   1  10
ATOM     10  C   UNK d   1      53.466  83.941  18.389  0.00  0.00    -0.029 A 
ATOM     11  C   UNK d   1      54.163  82.806  18.739  0.00  0.00     0.028 A 
ATOM     12  C   UNK d   1      55.059  82.212  17.857  0.00  0.00     0.011 A 
ATOM     13 Br   UNK d   1      56.014  80.644  18.362  0.00  0.00    -0.051 Br
ATOM     14  C   UNK d   1      55.259  82.764  16.601  0.00  0.00     0.019 A 
ATOM     15  C   UNK d   1      54.556  83.899  16.261  0.00  0.00     0.002 A 
ATOM     16  C   UNK d   1      53.668  84.485  17.140  0.00  0.00     0.009 A 
ENDBRANCH   1  10
BRANCH   8  17
ATOM     17  C   UNK d   1      52.892  88.408  19.172  0.00  0.00     0.002 A 
ATOM     18  C   UNK d   1      54.273  88.652  19.205  0.00  0.00     0.024 A 
ATOM     19  C   UNK d   1      54.757  89.886  19.542  0.00  0.00    -0.028 A 
ATOM     20  C   UNK d   1      53.915  90.943  19.864  0.00  0.00     0.074 A 
ATOM     21  C   UNK d   1      56.235  90.129  19.573  0.00  0.00     0.051 C 
ATOM     22  C   UNK d   1      52.580  90.683  19.827  0.00  0.00     0.038 A 
ATOM     23  C   UNK d   1      52.074  89.444  19.490  0.00  0.00     0.017 A 
BRANCH  20  24
ATOM     24  O   UNK d   1      54.482  92.157  20.193  0.00  0.00    -0.355 OA
ATOM     25  C   UNK d   1      54.596  92.564  21.548  0.00  0.00     0.210 C 
ENDBRANCH  20  24
ENDBRANCH   8  17
BRANCH   2  26
ATOM     26  C   UNK d   1      51.777  82.897  21.144  0.00  0.00     0.129 C 
BRANCH  26  27
ATOM     27  C   UNK d   1      50.634  83.383  21.991  0.00  0.00     0.048 C 
BRANCH  27  28
ATOM     28  C   UNK d   1      50.646  82.907  23.403  0.00  0.00     0.236 C 
BRANCH  28  29
ATOM     29  N   UNK d   1      51.846  83.267  24.127  0.00  0.00    -0.067 N 
ATOM     30  C   UNK d   1      51.641  84.433  24.964  0.00  0.00     0.261 C 
ATOM     31  C   UNK d   1      51.786  84.079  26.419  0.00  0.00     0.195 C 
ATOM     32  O   UNK d   1      53.101  83.611  26.618  0.00  0.00    -0.388 OA
ATOM     33  C   UNK d   1      53.310  82.430  25.910  0.00  0.00     0.195 C 
ATOM     34  C   UNK d   1      52.222  82.105  24.938  0.00  0.00     0.261 C 
ATOM     35  H   UNK d   1      52.666  83.441  23.509  0.00  0.00     0.280 HD
ENDBRANCH  28  29
ENDBRANCH  27  28
ENDBRANCH  26  27
ENDBRANCH   2  26
TORSDOF 7
ENDMDL
