MODEL 1
REMARK VINA RESULT:    -9.047      0.000      0.000
REMARK INTER + INTRA:         -12.440
REMARK INTER:                 -11.692
REMARK INTRA:                  -0.749
REMARK UNBOUND:                -0.749
REMARK  5 active torsions:
REMARK  status: ('A' for Active; 'I' for Inactive)
REMARK    1  A    between atoms: C_4  and  C_8 
REMARK    2  A    between atoms: N_9  and  C_24 
REMARK    3  A    between atoms: C_15  and  C_17 
REMARK    4  A    between atoms: C_24  and  C_25 
REMARK    5  A    between atoms: C_25  and  N_26 
ROOT
ATOM      1  C   UNK d   1      54.066  85.046  21.044  0.00  0.00     0.161 C 
ATOM      2  N   UNK d   1      54.134  86.476  20.984  0.00  0.00    -0.331 N 
ATOM      3  C   UNK d   1      53.301  86.869  19.903  0.00  0.00     0.295 C 
ATOM      4  O   UNK d   1      52.825  88.017  19.723  0.00  0.00    -0.264 OA
ATOM      5  C   UNK d   1      53.078  85.707  19.011  0.00  0.00     0.250 C 
ATOM      6  O   UNK d   1      52.407  85.666  17.966  0.00  0.00    -0.282 OA
ATOM      7  C   UNK d   1      53.815  84.617  19.622  0.00  0.00     0.062 C 
ATOM      8  C   UNK d   1      54.233  83.505  19.057  0.00  0.00     0.130 C 
ATOM      9  O   UNK d   1      54.985  82.607  19.783  0.00  0.00    -0.190 OA
ENDROOT
BRANCH   2  10
ATOM     10  C   UNK d   1      54.899  87.392  21.852  0.00  0.00     0.155 C 
BRANCH  10  11
ATOM     11  C   UNK d   1      56.021  86.598  22.459  0.00  0.00     0.255 C 
BRANCH  11  12
ATOM     12  N   UNK d   1      56.009  86.516  23.875  0.00  0.00    -0.066 N 
ATOM     13  C   UNK d   1      57.277  86.294  24.505  0.00  0.00     0.261 C 
ATOM     14  C   UNK d   1      58.008  87.552  24.886  0.00  0.00     0.195 C 
ATOM     15  O   UNK d   1      57.197  88.525  25.426  0.00  0.00    -0.388 OA
ATOM     16  C   UNK d   1      56.158  88.862  24.589  0.00  0.00     0.195 C 
ATOM     17  C   UNK d   1      55.292  87.643  24.417  0.00  0.00     0.261 C 
ATOM     18  H   UNK d   1      55.403  85.677  24.122  0.00  0.00     0.280 HD
ENDBRANCH  11  12
ENDBRANCH  10  11
ENDBRANCH   2  10
BRANCH   1  19
ATOM     19  C   UNK d   1      52.971  84.556  21.928  0.00  0.00    -0.029 A 
ATOM     20  C   UNK d   1      53.018  84.679  23.301  0.00  0.00     0.028 A 
ATOM     21  C   UNK d   1      51.998  84.222  24.128  0.00  0.00     0.011 A 
ATOM     22 Br   UNK d   1      52.104  84.413  26.026  0.00  0.00    -0.051 Br
ATOM     23  C   UNK d   1      50.910  83.632  23.565  0.00  0.00     0.019 A 
ATOM     24  C   UNK d   1      50.818  83.487  22.204  0.00  0.00     0.002 A 
ATOM     25  C   UNK d   1      51.841  83.946  21.402  0.00  0.00     0.009 A 
ENDBRANCH   1  19
BRANCH   8  26
ATOM     26  C   UNK d   1      53.921  83.189  17.687  0.00  0.00     0.001 A 
ATOM     27  C   UNK d   1      54.554  83.666  16.576  0.00  0.00     0.015 A 
ATOM     28  C   UNK d   1      54.173  83.243  15.316  0.00  0.00     0.007 A 
ATOM     29  C   UNK d   1      53.159  82.339  15.093  0.00  0.00    -0.062 A 
ATOM     30  C   UNK d   1      52.519  81.859  16.215  0.00  0.00     0.007 A 
ATOM     31  C   UNK d   1      52.768  81.900  13.724  0.00  0.00     0.048 C 
ATOM     32  C   UNK d   1      52.882  82.266  17.475  0.00  0.00     0.015 A 
ENDBRANCH   8  26
TORSDOF 5
ENDMDL
