/Users/jonathanwahrer/Desktop/Msc/3_Semester/Drug_Design_Praktikum/waehrer_HTS_screening/HTS_experiment/out/docking_results/vina_output/3npc/0175_docked.pdbqt
 OpenBabel03192219193D

 32 35  0  0  1  0  0  0  0  0999 V2000
   54.0660   85.0460   21.0440 C   0  0  2  0  0  3  0  0  0  0  0  0
   54.1340   86.4760   20.9840 N   0  0  0  0  0  0  0  0  0  0  0  0
   53.3010   86.8690   19.9030 C   0  0  0  0  0  0  0  0  0  0  0  0
   52.8250   88.0170   19.7230 O   0  0  0  0  0  0  0  0  0  0  0  0
   53.0780   85.7070   19.0110 C   0  0  0  0  0  0  0  0  0  0  0  0
   52.4070   85.6660   17.9660 O   0  0  0  0  0  0  0  0  0  0  0  0
   53.8150   84.6170   19.6220 C   0  0  0  0  0  0  0  0  0  0  0  0
   54.2330   83.5050   19.0570 C   0  0  0  0  0  0  0  0  0  0  0  0
   54.9850   82.6070   19.7830 O   0  0  0  0  0  1  0  0  0  0  0  0
   54.8990   87.3920   21.8520 C   0  0  0  0  0  2  0  0  0  0  0  0
   56.0210   86.5980   22.4590 C   0  0  0  0  0  2  0  0  0  0  0  0
   56.0090   86.5160   23.8750 N   0  0  0  0  0  4  0  0  0  0  0  0
   57.2770   86.2940   24.5050 C   0  0  0  0  0  2  0  0  0  0  0  0
   58.0080   87.5520   24.8860 C   0  0  0  0  0  2  0  0  0  0  0  0
   57.1970   88.5250   25.4260 O   0  0  0  0  0  0  0  0  0  0  0  0
   56.1580   88.8620   24.5890 C   0  0  0  0  0  2  0  0  0  0  0  0
   55.2920   87.6430   24.4170 C   0  0  0  0  0  2  0  0  0  0  0  0
   55.4030   85.6770   24.1220 H   0  0  0  0  0  0  0  0  0  0  0  0
   52.9710   84.5560   21.9280 C   0  0  0  0  0  0  0  0  0  0  0  0
   53.0180   84.6790   23.3010 C   0  0  0  0  0  3  0  0  0  0  0  0
   51.9980   84.2220   24.1280 C   0  0  0  0  0  0  0  0  0  0  0  0
   52.1040   84.4130   26.0260 Br  0  0  0  0  0  0  0  0  0  0  0  0
   50.9100   83.6320   23.5650 C   0  0  0  0  0  3  0  0  0  0  0  0
   50.8180   83.4870   22.2040 C   0  0  0  0  0  3  0  0  0  0  0  0
   51.8410   83.9460   21.4020 C   0  0  0  0  0  3  0  0  0  0  0  0
   53.9210   83.1890   17.6870 C   0  0  0  0  0  0  0  0  0  0  0  0
   54.5540   83.6660   16.5760 C   0  0  0  0  0  3  0  0  0  0  0  0
   54.1730   83.2430   15.3160 C   0  0  0  0  0  3  0  0  0  0  0  0
   53.1590   82.3390   15.0930 C   0  0  0  0  0  0  0  0  0  0  0  0
   52.5190   81.8590   16.2150 C   0  0  0  0  0  3  0  0  0  0  0  0
   52.7680   81.9000   13.7240 C   0  0  0  0  0  1  0  0  0  0  0  0
   52.8820   82.2660   17.4750 C   0  0  0  0  0  3  0  0  0  0  0  0
  1 19  1  1  0  0  0
  2  1  1  0  0  0  0
  2 10  1  0  0  0  0
  3  2  1  0  0  0  0
  4  3  2  0  0  0  0
  5  7  1  0  0  0  0
  5  3  1  0  0  0  0
  6  5  2  0  0  0  0
  7  1  1  0  0  0  0
  8  7  2  0  0  0  0
  8  9  1  0  0  0  0
 10 11  1  0  0  0  0
 11 12  1  0  0  0  0
 12 18  1  0  0  0  0
 12 17  1  0  0  0  0
 12 13  1  0  0  0  0
 13 14  1  0  0  0  0
 14 15  1  0  0  0  0
 16 15  1  0  0  0  0
 17 16  1  0  0  0  0
 19 20  1  0  0  0  0
 20 21  2  0  0  0  0
 21 22  1  0  0  0  0
 23 21  1  0  0  0  0
 24 23  2  0  0  0  0
 25 19  2  0  0  0  0
 25 24  1  0  0  0  0
 26  8  1  0  0  0  0
 27 26  2  0  0  0  0
 28 27  1  0  0  0  0
 29 28  2  0  0  0  0
 29 30  1  0  0  0  0
 30 32  2  0  0  0  0
 31 29  1  0  0  0  0
 32 26  1  0  0  0  0
M  END
>  <Pose>
1

>  <Score>
-9.047

$$$$
