MODEL 1
REMARK VINA RESULT:    -7.561      0.000      0.000
REMARK INTER + INTRA:         -10.730
REMARK INTER:                  -9.771
REMARK INTRA:                  -0.958
REMARK UNBOUND:                -0.958
REMARK  5 active torsions:
REMARK  status: ('A' for Active; 'I' for Inactive)
REMARK    1  A    between atoms: C_4  and  C_8 
REMARK    2  A    between atoms: N_9  and  C_28 
REMARK    3  A    between atoms: C_15  and  C_17 
REMARK    4  A    between atoms: C_28  and  C_29 
REMARK    5  A    between atoms: C_29  and  N_30 
ROOT
ATOM      1  C   UNK d   1      52.820  84.992  21.036  0.00  0.00     0.161 C 
ATOM      2  N   UNK d   1      52.220  84.189  22.044  0.00  0.00    -0.331 N 
ATOM      3  C   UNK d   1      51.385  83.256  21.281  0.00  0.00     0.295 C 
ATOM      4  O   UNK d   1      50.349  82.703  21.681  0.00  0.00    -0.264 OA
ATOM      5  C   UNK d   1      52.026  83.117  19.962  0.00  0.00     0.251 C 
ATOM      6  O   UNK d   1      51.657  82.415  18.994  0.00  0.00    -0.282 OA
ATOM      7  C   UNK d   1      53.205  83.978  20.011  0.00  0.00     0.064 C 
ATOM      8  C   UNK d   1      54.317  83.827  19.339  0.00  0.00     0.149 C 
ATOM      9  O   UNK d   1      55.353  84.750  19.596  0.00  0.00    -0.189 OA
ENDROOT
BRANCH   1  10
ATOM     10  C   UNK d   1      53.799  85.983  21.368  0.00  0.00    -0.029 A 
ATOM     11  C   UNK d   1      53.846  87.181  20.627  0.00  0.00     0.028 A 
ATOM     12  C   UNK d   1      54.757  88.176  20.868  0.00  0.00     0.011 A 
ATOM     13 Br   UNK d   1      54.760  89.779  19.819  0.00  0.00    -0.051 Br
ATOM     14  C   UNK d   1      55.689  88.056  21.863  0.00  0.00     0.019 A 
ATOM     15  C   UNK d   1      55.682  86.903  22.614  0.00  0.00     0.002 A 
ATOM     16  C   UNK d   1      54.758  85.914  22.354  0.00  0.00     0.009 A 
ENDBRANCH   1  10
BRANCH   8  17
ATOM     17  C   UNK d   1      54.512  82.773  18.354  0.00  0.00     0.102 A 
ATOM     18  N   UNK d   1      54.440  82.775  17.015  0.00  0.00    -0.302 N 
ATOM     19  C   UNK d   1      54.659  81.541  16.551  0.00  0.00     0.140 A 
ATOM     20  C   UNK d   1      54.205  83.833  16.191  0.00  0.00     0.099 A 
ATOM     21  N   UNK d   1      54.876  80.739  17.626  0.00  0.00    -0.233 NA
ATOM     22  C   UNK d   1      54.656  81.261  15.187  0.00  0.00    -0.015 A 
ATOM     23  C   UNK d   1      54.795  81.457  18.754  0.00  0.00     0.063 A 
ATOM     24  C   UNK d   1      54.969  80.962  20.149  0.00  0.00     0.073 C 
ATOM     25  C   UNK d   1      54.420  82.317  14.327  0.00  0.00     0.012 A 
ATOM     26  C   UNK d   1      54.903  79.872  14.729  0.00  0.00     0.052 C 
ATOM     27  C   UNK d   1      54.199  83.581  14.840  0.00  0.00     0.018 A 
ENDBRANCH   8  17
BRANCH   2  28
ATOM     28  C   UNK d   1      52.255  84.180  23.496  0.00  0.00     0.155 C 
BRANCH  28  29
ATOM     29  C   UNK d   1      52.959  83.018  24.108  0.00  0.00     0.255 C 
BRANCH  29  30
ATOM     30  N   UNK d   1      53.118  83.145  25.543  0.00  0.00    -0.066 N 
ATOM     31  C   UNK d   1      53.693  81.951  26.120  0.00  0.00     0.261 C 
ATOM     32  C   UNK d   1      55.178  81.865  25.752  0.00  0.00     0.195 C 
ATOM     33  O   UNK d   1      55.791  82.947  26.393  0.00  0.00    -0.388 OA
ATOM     34  C   UNK d   1      55.357  84.095  25.697  0.00  0.00     0.195 C 
ATOM     35  C   UNK d   1      53.878  84.330  25.891  0.00  0.00     0.261 C 
ATOM     36  H   UNK d   1      52.171  83.260  25.981  0.00  0.00     0.280 HD
ENDBRANCH  29  30
ENDBRANCH  28  29
ENDBRANCH   2  28
TORSDOF 5
ENDMDL
