MODEL 1
REMARK VINA RESULT:    -6.845      0.000      0.000
REMARK INTER + INTRA:         -10.168
REMARK INTER:                  -9.246
REMARK INTRA:                  -0.921
REMARK UNBOUND:                -0.921
REMARK  6 active torsions:
REMARK  status: ('A' for Active; 'I' for Inactive)
REMARK    1  A    between atoms: C_4  and  C_8 
REMARK    2  A    between atoms: N_9  and  C_27 
REMARK    3  A    between atoms: C_15  and  C_17 
REMARK    4  A    between atoms: C_27  and  C_28 
REMARK    5  A    between atoms: C_28  and  C_29 
REMARK    6  A    between atoms: C_29  and  N_30 
ROOT
ATOM      1  C   UNK d   1      50.835  83.398  24.225  0.00  0.00     0.161 C 
ATOM      2  N   UNK d   1      49.916  82.288  24.387  0.00  0.00    -0.332 N 
ATOM      3  C   UNK d   1      49.417  82.021  23.069  0.00  0.00     0.295 C 
ATOM      4  O   UNK d   1      48.338  81.485  22.760  0.00  0.00    -0.264 OA
ATOM      5  C   UNK d   1      50.425  82.498  22.130  0.00  0.00     0.251 C 
ATOM      6  O   UNK d   1      50.440  82.486  20.863  0.00  0.00    -0.282 OA
ATOM      7  C   UNK d   1      51.507  83.041  22.936  0.00  0.00     0.064 C 
ATOM      8  C   UNK d   1      52.757  83.199  22.549  0.00  0.00     0.149 C 
ATOM      9  O   UNK d   1      53.617  83.804  23.476  0.00  0.00    -0.189 OA
ENDROOT
BRANCH   1  10
ATOM     10  C   UNK d   1      51.808  83.555  25.313  0.00  0.00    -0.029 A 
ATOM     11  C   UNK d   1      52.517  82.537  25.856  0.00  0.00     0.028 A 
ATOM     12  C   UNK d   1      53.418  82.773  26.895  0.00  0.00     0.011 A 
ATOM     13 Br   UNK d   1      54.393  81.318  27.630  0.00  0.00    -0.051 Br
ATOM     14  C   UNK d   1      53.620  84.047  27.405  0.00  0.00     0.019 A 
ATOM     15  C   UNK d   1      52.889  85.069  26.838  0.00  0.00     0.002 A 
ATOM     16  C   UNK d   1      52.008  84.843  25.822  0.00  0.00     0.009 A 
ENDBRANCH   1  10
BRANCH   8  17
ATOM     17  C   UNK d   1      53.294  82.792  21.259  0.00  0.00     0.102 A 
ATOM     18  N   UNK d   1      53.329  83.507  20.124  0.00  0.00    -0.302 N 
ATOM     19  C   UNK d   1      53.946  82.813  19.134  0.00  0.00     0.134 A 
ATOM     20  C   UNK d   1      52.855  84.749  19.808  0.00  0.00     0.099 A 
ATOM     21  N   UNK d   1      54.296  81.626  19.703  0.00  0.00    -0.233 NA
ATOM     22  C   UNK d   1      54.108  83.313  17.852  0.00  0.00     0.051 A 
ATOM     23  C   UNK d   1      53.925  81.573  20.970  0.00  0.00     0.063 A 
ATOM     24  C   UNK d   1      54.079  80.511  21.990  0.00  0.00     0.073 C 
ATOM     25  C   UNK d   1      53.628  84.569  17.541  0.00  0.00     0.005 A 
ATOM     26  C   UNK d   1      52.996  85.272  18.560  0.00  0.00     0.018 A 
ENDBRANCH   8  17
BRANCH   2  27
ATOM     27  C   UNK d   1      49.545  81.585  25.617  0.00  0.00     0.129 C 
BRANCH  27  28
ATOM     28  C   UNK d   1      48.338  82.140  26.278  0.00  0.00     0.048 C 
BRANCH  28  29
ATOM     29  C   UNK d   1      48.430  82.539  27.693  0.00  0.00     0.235 C 
BRANCH  29  30
ATOM     30  N   UNK d   1      49.298  83.623  27.996  0.00  0.00    -0.079 N 
ATOM     31  C   UNK d   1      50.318  83.198  28.924  0.00  0.00     0.269 C 
ATOM     32  C   UNK d   1      48.536  84.676  28.693  0.00  0.00     0.269 C 
ATOM     33  H   UNK d   1      49.689  84.111  27.160  0.00  0.00     0.278 HD
ENDBRANCH  29  30
ENDBRANCH  28  29
ENDBRANCH  27  28
ENDBRANCH   2  27
TORSDOF 6
ENDMDL
