MODEL 1
REMARK VINA RESULT:    -7.815      0.000      0.000
REMARK INTER + INTRA:         -12.214
REMARK INTER:                 -11.012
REMARK INTRA:                  -1.202
REMARK UNBOUND:                -1.202
REMARK  7 active torsions:
REMARK  status: ('A' for Active; 'I' for Inactive)
REMARK    1  A    between atoms: C_4  and  C_8 
REMARK    2  A    between atoms: N_9  and  C_28 
REMARK    3  A    between atoms: C_15  and  C_17 
REMARK    4  A    between atoms: C_25  and  O_26 
REMARK    5  A    between atoms: C_28  and  C_29 
REMARK    6  A    between atoms: C_29  and  C_30 
REMARK    7  A    between atoms: C_30  and  N_31 
ROOT
ATOM      1  C   UNK d   1      52.550  84.655  19.531  0.00  0.00     0.161 C 
ATOM      2  N   UNK d   1      52.699  86.094  19.440  0.00  0.00    -0.332 N 
ATOM      3  C   UNK d   1      53.755  86.436  20.364  0.00  0.00     0.295 C 
ATOM      4  O   UNK d   1      54.458  87.474  20.313  0.00  0.00    -0.264 OA
ATOM      5  C   UNK d   1      53.825  85.348  21.343  0.00  0.00     0.251 C 
ATOM      6  O   UNK d   1      54.600  85.230  22.327  0.00  0.00    -0.282 OA
ATOM      7  C   UNK d   1      52.808  84.364  20.990  0.00  0.00     0.064 C 
ATOM      8  C   UNK d   1      52.269  83.442  21.770  0.00  0.00     0.153 C 
ATOM      9  O   UNK d   1      51.332  82.586  21.248  0.00  0.00    -0.188 OA
ENDROOT
BRANCH   1  10
ATOM     10  C   UNK d   1      53.503  83.908  18.671  0.00  0.00    -0.029 A 
ATOM     11  C   UNK d   1      54.109  82.729  19.111  0.00  0.00     0.028 A 
ATOM     12  C   UNK d   1      54.993  82.013  18.356  0.00  0.00     0.011 A 
ATOM     13 Br   UNK d   1      55.777  80.397  19.047  0.00  0.00    -0.051 Br
ATOM     14  C   UNK d   1      55.322  82.442  17.104  0.00  0.00     0.019 A 
ATOM     15  C   UNK d   1      54.758  83.589  16.623  0.00  0.00     0.002 A 
ATOM     16  C   UNK d   1      53.858  84.311  17.403  0.00  0.00     0.009 A 
ENDBRANCH   1  10
BRANCH   8  17
ATOM     17  C   UNK d   1      52.651  83.317  23.189  0.00  0.00     0.114 A 
ATOM     18  O   UNK d   1      53.658  82.622  23.644  0.00  0.00    -0.304 OA
ATOM     19  C   UNK d   1      53.783  82.671  24.928  0.00  0.00     0.119 A 
ATOM     20  C   UNK d   1      52.769  83.473  25.394  0.00  0.00     0.003 A 
ATOM     21  C   UNK d   1      54.711  82.077  25.772  0.00  0.00     0.102 A 
ATOM     22  C   UNK d   1      52.052  83.881  24.289  0.00  0.00     0.054 A 
ATOM     23  C   UNK d   1      52.680  83.687  26.752  0.00  0.00     0.014 A 
ATOM     24  C   UNK d   1      53.575  83.121  27.637  0.00  0.00     0.004 A 
ATOM     25  C   UNK d   1      54.591  82.312  27.119  0.00  0.00     0.040 A 
BRANCH  21  26
ATOM     26  O   UNK d   1      55.724  81.279  25.305  0.00  0.00    -0.353 OA
ATOM     27  C   UNK d   1      55.591  80.088  24.597  0.00  0.00     0.210 C 
ENDBRANCH  21  26
ENDBRANCH   8  17
BRANCH   2  28
ATOM     28  C   UNK d   1      51.982  87.021  18.599  0.00  0.00     0.129 C 
BRANCH  28  29
ATOM     29  C   UNK d   1      51.609  88.276  19.350  0.00  0.00     0.048 C 
BRANCH  29  30
ATOM     30  C   UNK d   1      52.053  89.546  18.719  0.00  0.00     0.235 C 
BRANCH  30  31
ATOM     31  N   UNK d   1      53.463  89.779  18.753  0.00  0.00    -0.079 N 
ATOM     32  C   UNK d   1      53.773  90.960  19.563  0.00  0.00     0.269 C 
ATOM     33  C   UNK d   1      54.034  89.930  17.450  0.00  0.00     0.269 C 
ATOM     34  H   UNK d   1      53.990  88.995  19.235  0.00  0.00     0.278 HD
ENDBRANCH  30  31
ENDBRANCH  29  30
ENDBRANCH  28  29
ENDBRANCH   2  28
TORSDOF 7
ENDMDL
