MODEL 1
REMARK VINA RESULT:    -8.967      0.000      0.000
REMARK INTER + INTRA:         -10.266
REMARK INTER:                 -10.015
REMARK INTRA:                  -0.251
REMARK UNBOUND:                -0.251
REMARK  2 active torsions:
REMARK  status: ('A' for Active; 'I' for Inactive)
REMARK    1  A    between atoms: C_4  and  N_8 
REMARK    2  A    between atoms: N_8  and  C_9 
ROOT
ATOM      1  C   UNK d   1      51.555  98.743  28.527  0.00  0.00     0.180 A 
ATOM      2  N   UNK d   1      50.623  97.936  29.023  0.00  0.00    -0.202 NA
ATOM      3  C   UNK d   1      49.304  98.186  29.029  0.00  0.00     0.231 A 
ATOM      4  N   UNK d   1      48.195  97.555  29.454  0.00  0.00    -0.081 NA
ATOM      5  O   UNK d   1      47.132  98.255  29.210  0.00  0.00    -0.103 OA
ATOM      6  N   UNK d   1      47.507  99.340  28.632  0.00  0.00    -0.081 NA
ATOM      7  C   UNK d   1      48.842  99.375  28.481  0.00  0.00     0.229 A 
ATOM      8  N   UNK d   1      49.745 100.224  27.968  0.00  0.00    -0.196 N 
ATOM      9  N   UNK d   1      49.552 101.409  27.396  0.00  0.00     0.004 NA
ATOM     10  N   UNK d   1      50.758 101.879  27.043  0.00  0.00     0.018 NA
ATOM     11  N   UNK d   1      51.673 100.976  27.402  0.00  0.00    -0.138 NA
ATOM     12  C   UNK d   1      51.057  99.941  27.979  0.00  0.00     0.212 A 
ENDROOT
BRANCH   1  13
ATOM     13  N   UNK d   1      52.952  98.522  28.499  0.00  0.00    -0.338 N 
ATOM     14  H   UNK d   1      53.575  99.023  29.194  0.00  0.00     0.167 HD
BRANCH  13  15
ATOM     15  C   UNK d   1      53.611  97.663  27.594  0.00  0.00     0.035 A 
ATOM     16  C   UNK d   1      54.815  97.884  26.982  0.00  0.00     0.048 A 
ATOM     17  C   UNK d   1      55.428  97.013  26.097  0.00  0.00     0.013 A 
ATOM     18 Br   UNK d   1      57.111  97.417  25.298  0.00  0.00    -0.051 Br
ATOM     19  C   UNK d   1      54.800  95.833  25.796  0.00  0.00     0.019 A 
ATOM     20  C   UNK d   1      53.585  95.548  26.378  0.00  0.00     0.004 A 
ATOM     21  C   UNK d   1      53.005  96.435  27.251  0.00  0.00     0.029 A 
ENDBRANCH  13  15
ENDBRANCH   1  13
TORSDOF 2
ENDMDL
