/Users/jonathanwahrer/Desktop/Msc/3_Semester/Drug_Design_Praktikum/waehrer_HTS_screening/HTS_experiment/out/docking_results/vina_output/3npc/0201_docked.pdbqt
 OpenBabel03192219213D

 25 28  0  0  0  0  0  0  0  0999 V2000
   50.2060  100.5610   28.1120 C   0  0  0  0  0  0  0  0  0  0  0  0
   50.4670  101.5960   27.4510 O   0  0  0  0  0  0  0  0  0  0  0  0
   48.9130  100.4060   28.6540 N   0  0  0  0  0  0  0  0  0  0  0  0
   48.7150   99.5390   29.2010 H   0  0  0  0  0  0  0  0  0  0  0  0
   51.2590   99.5680   28.2830 C   0  0  0  0  0  0  0  0  0  0  0  0
   51.6750   98.9850   29.4340 N   0  0  0  0  0  0  0  0  0  0  0  0
   52.6540   98.1440   29.1420 N   0  0  0  0  0  0  0  0  0  0  0  0
   52.8980   98.1490   27.8580 N   0  0  0  0  0  0  0  0  0  0  0  0
   52.0490   99.0240   27.2960 C   0  0  0  0  0  3  0  0  0  0  0  0
   53.8670   97.3970   27.1130 C   0  0  0  0  0  0  0  0  0  0  0  0
   55.0590   97.9310   26.6880 C   0  0  0  0  0  3  0  0  0  0  0  0
   55.9720   97.1560   25.9650 C   0  0  0  0  0  0  0  0  0  0  0  0
   57.6280   97.8930   25.3730 Br  0  0  0  0  0  0  0  0  0  0  0  0
   55.6970   95.8410   25.6610 C   0  0  0  0  0  3  0  0  0  0  0  0
   54.5060   95.2960   26.0820 C   0  0  0  0  0  3  0  0  0  0  0  0
   53.6010   96.0810   26.8050 C   0  0  0  0  0  3  0  0  0  0  0  0
   47.8440  101.3670   28.5060 C   0  0  0  0  0  2  0  0  0  0  0  0
   47.4350  101.9320   29.8390 C   0  0  0  0  0  0  0  0  0  0  0  0
   48.1130  102.8030   30.6240 N   0  0  0  0  0  0  0  0  0  0  0  0
   47.4010  103.0560   31.7280 C   0  0  0  0  0  0  0  0  0  0  0  0
   49.3690  103.5330   30.6270 C   0  0  0  0  0  2  0  0  0  0  0  0
   46.2670  102.3240   31.6150 N   0  0  0  0  0  0  0  0  0  0  0  0
   48.1250  104.0240   32.6300 C   0  0  0  0  0  2  0  0  0  0  0  0
   46.2870  101.6510   30.4820 N   0  0  0  0  0  0  0  0  0  0  0  0
   49.5340  103.9220   32.0840 C   0  0  0  0  0  2  0  0  0  0  0  0
  1  5  1  0  0  0  0
  1  3  1  0  0  0  0
  2  1  2  0  0  0  0
  3  4  1  0  0  0  0
  5  6  1  0  0  0  0
  7  6  2  0  0  0  0
  8  7  1  0  0  0  0
  9  8  1  0  0  0  0
  9  5  2  0  0  0  0
 10  8  1  0  0  0  0
 11 10  2  0  0  0  0
 12 11  1  0  0  0  0
 13 12  1  0  0  0  0
 14 12  2  0  0  0  0
 14 15  1  0  0  0  0
 15 16  2  0  0  0  0
 16 10  1  0  0  0  0
 17  3  1  0  0  0  0
 17 18  1  0  0  0  0
 18 24  2  0  0  0  0
 18 19  1  0  0  0  0
 19 21  1  0  0  0  0
 19 20  1  0  0  0  0
 20 23  1  0  0  0  0
 21 25  1  0  0  0  0
 22 20  2  0  0  0  0
 24 22  1  0  0  0  0
 25 23  1  0  0  0  0
M  END
>  <Pose>
1

>  <Score>
-8.680

$$$$
