MODEL 1
REMARK VINA RESULT:    -8.680      0.000      0.000
REMARK INTER + INTRA:         -11.262
REMARK INTER:                 -10.709
REMARK INTRA:                  -0.553
REMARK UNBOUND:                -0.553
REMARK  4 active torsions:
REMARK  status: ('A' for Active; 'I' for Inactive)
REMARK    1  A    between atoms: C_4  and  N_8 
REMARK    2  A    between atoms: C_11  and  C_13 
REMARK       I    between atoms: C_13  and  N_15 
REMARK    3  A    between atoms: N_15  and  C_16 
REMARK    4  A    between atoms: C_16  and  C_17 
ROOT
ATOM      1  C   UNK d   1      50.206 100.561  28.112  0.00  0.00     0.273 C 
ATOM      2  O   UNK d   1      50.467 101.596  27.451  0.00  0.00    -0.266 OA
ATOM      3  N   UNK d   1      48.913 100.406  28.654  0.00  0.00    -0.348 N 
ATOM      4  H   UNK d   1      48.715  99.539  29.201  0.00  0.00     0.163 HD
ENDROOT
BRANCH   1   5
ATOM      5  C   UNK d   1      51.259  99.568  28.283  0.00  0.00     0.165 A 
ATOM      6  N   UNK d   1      51.675  98.985  29.434  0.00  0.00    -0.125 NA
ATOM      7  N   UNK d   1      52.654  98.144  29.142  0.00  0.00    -0.060 NA
ATOM      8  N   UNK d   1      52.898  98.149  27.858  0.00  0.00    -0.224 N 
ATOM      9  C   UNK d   1      52.049  99.024  27.296  0.00  0.00     0.159 A 
BRANCH   8  10
ATOM     10  C   UNK d   1      53.867  97.397  27.113  0.00  0.00     0.060 A 
ATOM     11  C   UNK d   1      55.059  97.931  26.688  0.00  0.00     0.050 A 
ATOM     12  C   UNK d   1      55.972  97.156  25.965  0.00  0.00     0.013 A 
ATOM     13 Br   UNK d   1      57.628  97.893  25.373  0.00  0.00    -0.051 Br
ATOM     14  C   UNK d   1      55.697  95.841  25.661  0.00  0.00     0.019 A 
ATOM     15  C   UNK d   1      54.506  95.296  26.082  0.00  0.00     0.004 A 
ATOM     16  C   UNK d   1      53.601  96.081  26.805  0.00  0.00     0.032 A 
ENDBRANCH   8  10
ENDBRANCH   1   5
BRANCH   3  17
ATOM     17  C   UNK d   1      47.844 101.367  28.506  0.00  0.00     0.203 C 
BRANCH  17  18
ATOM     18  C   UNK d   1      47.435 101.932  29.839  0.00  0.00     0.148 A 
ATOM     19  N   UNK d   1      48.113 102.803  30.624  0.00  0.00    -0.319 N 
ATOM     20  C   UNK d   1      47.401 103.056  31.728  0.00  0.00     0.130 A 
ATOM     21  C   UNK d   1      49.369 103.533  30.627  0.00  0.00     0.132 C 
ATOM     22  N   UNK d   1      46.267 102.324  31.615  0.00  0.00    -0.135 NA
ATOM     23  C   UNK d   1      48.125 104.024  32.630  0.00  0.00     0.082 C 
ATOM     24  N   UNK d   1      46.287 101.651  30.482  0.00  0.00    -0.133 NA
ATOM     25  C   UNK d   1      49.534 103.922  32.084  0.00  0.00     0.028 C 
ENDBRANCH  17  18
ENDBRANCH   3  17
TORSDOF 4
ENDMDL
