MODEL 1
REMARK VINA RESULT:    -9.032      0.000      0.000
REMARK INTER + INTRA:         -10.599
REMARK INTER:                 -10.088
REMARK INTRA:                  -0.511
REMARK UNBOUND:                -0.511
REMARK  2 active torsions:
REMARK  status: ('A' for Active; 'I' for Inactive)
REMARK    1  A    between atoms: C_4  and  N_8 
REMARK    2  A    between atoms: C_14  and  C_18 
ROOT
ATOM      1  N   UNK d   1      53.718  88.367  19.516  0.00  0.00    -0.246 N 
ATOM      2  C   UNK d   1      52.914  87.170  19.545  0.00  0.00     0.268 C 
ATOM      3  O   UNK d   1      51.742  87.102  19.076  0.00  0.00    -0.269 OA
ATOM      4  C   UNK d   1      53.672  86.097  20.185  0.00  0.00     0.285 C 
ATOM      5  O   UNK d   1      52.991  85.207  20.968  0.00  0.00    -0.260 OA
ATOM      6  N   UNK d   1      53.923  84.919  21.963  0.00  0.00    -0.264 N 
ATOM      7  C   UNK d   1      54.594  86.111  22.293  0.00  0.00     0.083 C 
ATOM      8  C   UNK d   1      54.457  86.886  21.208  0.00  0.00     0.080 C 
ATOM      9  C   UNK d   1      54.683  88.175  20.564  0.00  0.00     0.266 C 
ATOM     10  O   UNK d   1      55.578  88.988  20.878  0.00  0.00    -0.267 OA
ATOM     11  H   UNK d   1      54.090  83.996  22.383  0.00  0.00     0.194 HD
ENDROOT
BRANCH   1  12
ATOM     12  C   UNK d   1      53.611  89.498  18.675  0.00  0.00     0.047 A 
ATOM     13  C   UNK d   1      52.463  90.286  18.641  0.00  0.00     0.049 A 
ATOM     14  C   UNK d   1      52.319  91.392  17.842  0.00  0.00     0.013 A 
ATOM     15 Br   UNK d   1      50.729  92.446  17.820  0.00  0.00    -0.051 Br
ATOM     16  C   UNK d   1      53.345  91.783  17.007  0.00  0.00     0.019 A 
ATOM     17  C   UNK d   1      54.501  91.007  17.027  0.00  0.00     0.004 A 
ATOM     18  C   UNK d   1      54.634  89.901  17.831  0.00  0.00     0.030 A 
ENDBRANCH   1  12
BRANCH   7  19
ATOM     19  C   UNK d   1      55.331  86.450  23.500  0.00  0.00     0.036 A 
ATOM     20  C   UNK d   1      56.713  86.655  23.556  0.00  0.00     0.040 A 
ATOM     21  N   UNK d   1      57.037  86.969  24.794  0.00  0.00    -0.278 N 
ATOM     22  C   UNK d   1      57.663  86.516  22.427  0.00  0.00     0.071 C 
ATOM     23  N   UNK d   1      55.929  86.974  25.531  0.00  0.00    -0.184 NA
ATOM     24  C   UNK d   1      58.377  87.261  25.302  0.00  0.00     0.179 C 
ATOM     25  C   UNK d   1      54.889  86.663  24.776  0.00  0.00     0.154 A 
ENDBRANCH   7  19
TORSDOF 2
ENDMDL
