/Users/jonathanwahrer/Desktop/Msc/3_Semester/Drug_Design_Praktikum/waehrer_HTS_screening/HTS_experiment/out/docking_results/vina_output/3npc/0205_docked.pdbqt
 OpenBabel03192219213D

 25 28  0  0  1  0  0  0  0  0999 V2000
   53.7180   88.3670   19.5160 N   0  0  0  0  0  0  0  0  0  0  0  0
   52.9140   87.1700   19.5450 C   0  0  0  0  0  0  0  0  0  0  0  0
   51.7420   87.1020   19.0760 O   0  0  0  0  0  0  0  0  0  0  0  0
   53.6720   86.0970   20.1850 C   0  0  2  0  0  3  0  0  0  0  0  0
   52.9910   85.2070   20.9680 O   0  0  0  0  0  0  0  0  0  0  0  0
   53.9230   84.9190   21.9630 N   0  0  0  0  0  0  0  0  0  0  0  0
   54.5940   86.1110   22.2930 C   0  0  0  0  0  0  0  0  0  0  0  0
   54.4570   86.8860   21.2080 C   0  0  0  0  0  0  0  0  0  0  0  0
   54.6830   88.1750   20.5640 C   0  0  0  0  0  0  0  0  0  0  0  0
   55.5780   88.9880   20.8780 O   0  0  0  0  0  0  0  0  0  0  0  0
   54.0900   83.9960   22.3830 H   0  0  0  0  0  0  0  0  0  0  0  0
   53.6110   89.4980   18.6750 C   0  0  0  0  0  0  0  0  0  0  0  0
   52.4630   90.2860   18.6410 C   0  0  0  0  0  3  0  0  0  0  0  0
   52.3190   91.3920   17.8420 C   0  0  0  0  0  0  0  0  0  0  0  0
   50.7290   92.4460   17.8200 Br  0  0  0  0  0  0  0  0  0  0  0  0
   53.3450   91.7830   17.0070 C   0  0  0  0  0  3  0  0  0  0  0  0
   54.5010   91.0070   17.0270 C   0  0  0  0  0  3  0  0  0  0  0  0
   54.6340   89.9010   17.8310 C   0  0  0  0  0  3  0  0  0  0  0  0
   55.3310   86.4500   23.5000 C   0  0  0  0  0  0  0  0  0  0  0  0
   56.7130   86.6550   23.5560 C   0  0  0  0  0  0  0  0  0  0  0  0
   57.0370   86.9690   24.7940 N   0  0  0  0  0  0  0  0  0  0  0  0
   57.6630   86.5160   22.4270 C   0  0  0  0  0  1  0  0  0  0  0  0
   55.9290   86.9740   25.5310 N   0  0  0  0  0  0  0  0  0  0  0  0
   58.3770   87.2610   25.3020 C   0  0  0  0  0  1  0  0  0  0  0  0
   54.8890   86.6630   24.7760 C   0  0  0  0  0  3  0  0  0  0  0  0
  1  2  1  0  0  0  0
  1  9  1  0  0  0  0
  3  2  2  0  0  0  0
  4  2  1  1  0  0  0
  4  5  1  0  0  0  0
  4  8  1  0  0  0  0
  5  6  1  0  0  0  0
  6  7  1  0  0  0  0
  6 11  1  0  0  0  0
  7 19  1  0  0  0  0
  8  7  2  0  0  0  0
  9 10  2  0  0  0  0
  9  8  1  0  0  0  0
 12  1  1  0  0  0  0
 13 12  1  0  0  0  0
 14 13  2  0  0  0  0
 15 14  1  0  0  0  0
 16 17  2  0  0  0  0
 16 14  1  0  0  0  0
 17 18  1  0  0  0  0
 18 12  2  0  0  0  0
 19 20  2  0  0  0  0
 19 25  1  0  0  0  0
 20 21  1  0  0  0  0
 21 24  1  0  0  0  0
 21 23  1  0  0  0  0
 22 20  1  0  0  0  0
 25 23  2  0  0  0  0
M  END
>  <Pose>
1

>  <Score>
-9.032

$$$$
