/Users/jonathanwahrer/Desktop/Msc/3_Semester/Drug_Design_Praktikum/waehrer_HTS_screening/HTS_experiment/out/docking_results/vina_output/3npc/0211_docked.pdbqt
 OpenBabel03192219213D

 22 25  0  0  1  0  0  0  0  0999 V2000
   49.1030  100.1890   28.6640 N   0  0  0  0  0  0  0  0  0  0  0  0
   49.6290  100.5010   27.3820 C   0  0  0  0  0  0  0  0  0  0  0  0
   49.3320  101.5530   26.7050 O   0  0  0  0  0  0  0  0  0  0  0  0
   50.5540   99.4340   26.9720 C   0  0  1  0  0  3  0  0  0  0  0  0
   51.9390   99.8260   27.3840 C   0  0  1  0  0  0  0  0  0  0  0  0
   51.8170   99.6890   28.7910 O   0  0  0  0  0  0  0  0  0  0  0  0
   51.5080   98.3020   28.7840 C   0  0  1  0  0  3  0  0  0  0  0  0
   50.2570   98.3100   27.9250 C   0  0  1  0  0  3  0  0  0  0  0  0
   49.1570   98.7780   28.7910 C   0  0  0  0  0  0  0  0  0  0  0  0
   48.4170   98.0490   29.5010 O   0  0  0  0  0  0  0  0  0  0  0  0
   52.6670   97.7890   28.0190 C   0  0  0  0  0  2  0  0  0  0  0  0
   52.9560   98.7680   27.1410 C   0  0  0  0  0  2  0  0  0  0  0  0
   48.6070  101.1290   29.6450 C   0  0  0  0  0  0  0  0  0  0  0  0
   49.4590  101.8320   30.4840 C   0  0  0  0  0  3  0  0  0  0  0  0
   49.0530  102.7260   31.4220 C   0  0  0  0  0  0  0  0  0  0  0  0
   50.3450  103.6190   32.5090 Br  0  0  0  0  0  0  0  0  0  0  0  0
   47.7000  102.9670   31.5640 C   0  0  0  0  0  3  0  0  0  0  0  0
   46.8120  102.2930   30.7520 C   0  0  0  0  0  3  0  0  0  0  0  0
   47.2630  101.3780   29.7970 C   0  0  0  0  0  3  0  0  0  0  0  0
   52.3680  101.1800   26.9630 C   0  0  0  0  0  2  0  0  0  0  0  0
   51.8840  101.4240   25.6770 O   0  0  0  0  0  0  0  0  0  0  0  0
   52.3330  100.8310   25.0230 H   0  0  0  0  0  0  0  0  0  0  0  0
  1  9  1  0  0  0  0
  1 13  1  0  0  0  0
  2  1  1  0  0  0  0
  3  2  2  0  0  0  0
  4  2  1  1  0  0  0
  4  5  1  0  0  0  0
  4  8  1  0  0  0  0
  5 20  1  6  0  0  0
  5  6  1  0  0  0  0
  7 11  1  6  0  0  0
  7  6  1  0  0  0  0
  8  7  1  0  0  0  0
  8  9  1  1  0  0  0
  9 10  2  0  0  0  0
 12  5  1  0  0  0  0
 12 11  1  0  0  0  0
 13 19  2  0  0  0  0
 13 14  1  0  0  0  0
 14 15  2  0  0  0  0
 15 17  1  0  0  0  0
 15 16  1  0  0  0  0
 18 17  2  0  0  0  0
 19 18  1  0  0  0  0
 21 20  1  0  0  0  0
 22 21  1  0  0  0  0
M  END
>  <Pose>
1

>  <Score>
-8.048

$$$$
