/Users/jonathanwahrer/Desktop/Msc/3_Semester/Drug_Design_Praktikum/waehrer_HTS_screening/HTS_experiment/out/docking_results/vina_output/3npc/0213_docked.pdbqt
 OpenBabel03192219223D

 25 28  0  0  1  0  0  0  0  0999 V2000
   54.8310   89.3740   20.1990 N   0  0  0  0  0  0  0  0  0  0  0  0
   55.8250   89.7350   21.1830 C   0  0  0  0  0  0  0  0  0  0  0  0
   56.1650   90.8670   21.5440 O   0  0  0  0  0  0  0  0  0  0  0  0
   56.4030   88.4700   21.7220 C   0  0  1  0  0  3  0  0  0  0  0  0
   56.7220   88.5170   23.0670 O   0  0  0  0  0  0  0  0  0  0  0  0
   56.5220   87.2100   23.4440 N   0  0  0  0  0  0  0  0  0  0  0  0
   55.2770   86.8450   22.8230 C   0  0  0  0  0  0  0  0  0  0  0  0
   55.1620   87.5990   21.7560 C   0  0  0  0  0  0  0  0  0  0  0  0
   54.4240   88.0370   20.5660 C   0  0  0  0  0  0  0  0  0  0  0  0
   53.5870   87.3230   20.0020 O   0  0  0  0  0  0  0  0  0  0  0  0
   57.1080   86.6070   24.0320 H   0  0  0  0  0  0  0  0  0  0  0  0
   54.3880   90.1840   19.1290 C   0  0  0  0  0  0  0  0  0  0  0  0
   53.1090   90.6920   19.1290 C   0  0  0  0  0  3  0  0  0  0  0  0
   52.6440   91.4910   18.0790 C   0  0  0  0  0  0  0  0  0  0  0  0
   50.8700   92.1790   18.1050 Br  0  0  0  0  0  0  0  0  0  0  0  0
   53.4500   91.8000   17.0090 C   0  0  0  0  0  3  0  0  0  0  0  0
   54.7310   91.2930   17.0070 C   0  0  0  0  0  3  0  0  0  0  0  0
   55.1940   90.4920   18.0610 C   0  0  0  0  0  3  0  0  0  0  0  0
   54.3130   85.8680   23.2510 C   0  0  0  0  0  0  0  0  0  0  0  0
   53.7000   84.9830   22.3660 C   0  0  0  0  0  3  0  0  0  0  0  0
   52.8610   84.1790   23.0430 N   0  0  0  0  0  0  0  0  0  0  0  0
   52.9500   84.5520   24.3090 N   0  0  0  0  0  0  0  0  0  0  0  0
   52.0220   83.1100   22.4780 C   0  0  0  0  0  1  0  0  0  0  0  0
   53.8030   85.5570   24.4910 C   0  0  0  0  0  0  0  0  0  0  0  0
   54.1730   86.2400   25.7760 C   0  0  0  0  0  1  0  0  0  0  0  0
  1  9  1  0  0  0  0
  1  2  1  0  0  0  0
  2  3  2  0  0  0  0
  4  2  1  1  0  0  0
  4  8  1  0  0  0  0
  4  5  1  0  0  0  0
  5  6  1  0  0  0  0
  6 11  1  0  0  0  0
  7 19  1  0  0  0  0
  7  6  1  0  0  0  0
  8  7  2  0  0  0  0
  9  8  1  0  0  0  0
 10  9  2  0  0  0  0
 12  1  1  0  0  0  0
 13 12  1  0  0  0  0
 14 15  1  0  0  0  0
 14 13  2  0  0  0  0
 16 14  1  0  0  0  0
 17 16  2  0  0  0  0
 17 18  1  0  0  0  0
 18 12  2  0  0  0  0
 19 24  1  0  0  0  0
 20 21  1  0  0  0  0
 20 19  2  0  0  0  0
 21 22  1  0  0  0  0
 22 24  2  0  0  0  0
 23 21  1  0  0  0  0
 24 25  1  0  0  0  0
M  END
>  <Pose>
1

>  <Score>
-8.988

$$$$
