MODEL 1
REMARK VINA RESULT:    -8.988      0.000      0.000
REMARK INTER + INTRA:         -10.602
REMARK INTER:                 -10.039
REMARK INTRA:                  -0.563
REMARK UNBOUND:                -0.563
REMARK  2 active torsions:
REMARK  status: ('A' for Active; 'I' for Inactive)
REMARK    1  A    between atoms: C_4  and  N_8 
REMARK    2  A    between atoms: C_14  and  C_18 
ROOT
ATOM      1  N   UNK d   1      54.831  89.374  20.199  0.00  0.00    -0.246 N 
ATOM      2  C   UNK d   1      55.825  89.735  21.183  0.00  0.00     0.268 C 
ATOM      3  O   UNK d   1      56.165  90.867  21.544  0.00  0.00    -0.269 OA
ATOM      4  C   UNK d   1      56.403  88.470  21.722  0.00  0.00     0.285 C 
ATOM      5  O   UNK d   1      56.722  88.517  23.067  0.00  0.00    -0.260 OA
ATOM      6  N   UNK d   1      56.522  87.210  23.444  0.00  0.00    -0.264 N 
ATOM      7  C   UNK d   1      55.277  86.845  22.823  0.00  0.00     0.083 C 
ATOM      8  C   UNK d   1      55.162  87.599  21.756  0.00  0.00     0.080 C 
ATOM      9  C   UNK d   1      54.424  88.037  20.566  0.00  0.00     0.266 C 
ATOM     10  O   UNK d   1      53.587  87.323  20.002  0.00  0.00    -0.267 OA
ATOM     11  H   UNK d   1      57.108  86.607  24.032  0.00  0.00     0.194 HD
ENDROOT
BRANCH   1  12
ATOM     12  C   UNK d   1      54.388  90.184  19.129  0.00  0.00     0.047 A 
ATOM     13  C   UNK d   1      53.109  90.692  19.129  0.00  0.00     0.049 A 
ATOM     14  C   UNK d   1      52.644  91.491  18.079  0.00  0.00     0.013 A 
ATOM     15 Br   UNK d   1      50.870  92.179  18.105  0.00  0.00    -0.051 Br
ATOM     16  C   UNK d   1      53.450  91.800  17.009  0.00  0.00     0.019 A 
ATOM     17  C   UNK d   1      54.731  91.293  17.007  0.00  0.00     0.004 A 
ATOM     18  C   UNK d   1      55.194  90.492  18.061  0.00  0.00     0.030 A 
ENDBRANCH   1  12
BRANCH   7  19
ATOM     19  C   UNK d   1      54.313  85.868  23.251  0.00  0.00     0.036 A 
ATOM     20  C   UNK d   1      53.700  84.983  22.366  0.00  0.00     0.127 A 
ATOM     21  N   UNK d   1      52.861  84.179  23.043  0.00  0.00    -0.284 N 
ATOM     22  N   UNK d   1      52.950  84.552  24.309  0.00  0.00    -0.177 NA
ATOM     23  C   UNK d   1      52.022  83.110  22.478  0.00  0.00     0.179 C 
ATOM     24  C   UNK d   1      53.803  85.557  24.491  0.00  0.00     0.065 A 
ATOM     25  C   UNK d   1      54.173  86.240  25.776  0.00  0.00     0.073 C 
ENDBRANCH   7  19
TORSDOF 2
ENDMDL
