MODEL 1
REMARK VINA RESULT:    -7.780      0.000      0.000
REMARK INTER + INTRA:         -11.025
REMARK INTER:                 -10.054
REMARK INTRA:                  -0.972
REMARK UNBOUND:                -0.972
REMARK  5 active torsions:
REMARK  status: ('A' for Active; 'I' for Inactive)
REMARK    1  A    between atoms: C_4  and  N_8 
REMARK    2  A    between atoms: C_10  and  C_14 
REMARK       I    between atoms: C_14  and  N_16 
REMARK    3  A    between atoms: N_19  and  C_22 
REMARK    4  A    between atoms: C_22  and  C_23 
REMARK    5  A    between atoms: C_23  and  N_24 
ROOT
ATOM      1  C   UNK d   1      53.174  83.559  22.060  0.00  0.00     0.226 C 
ATOM      2  O   UNK d   1      53.846  82.644  21.522  0.00  0.00    -0.273 OA
ATOM      3  N   UNK d   1      52.711  83.459  23.389  0.00  0.00    -0.348 N 
ATOM      4  C   UNK d   1      51.931  84.499  24.046  0.00  0.00     0.156 C 
ATOM      5  C   UNK d   1      52.185  84.430  25.546  0.00  0.00     0.292 C 
ATOM      6  N   UNK d   1      53.486  83.879  25.871  0.00  0.00     0.093 N 
ATOM      7  C   UNK d   1      53.511  82.501  25.524  0.00  0.00     0.292 C 
ATOM      8  C   UNK d   1      53.043  82.237  24.133  0.00  0.00     0.156 C 
ENDROOT
BRANCH   1   9
ATOM      9  C   UNK d   1      52.878  84.743  21.279  0.00  0.00     0.105 C 
ATOM     10  C   UNK d   1      54.154  85.480  20.823  0.00  0.00     0.146 C 
ATOM     11  N   UNK d   1      53.488  86.519  20.051  0.00  0.00    -0.317 N 
ATOM     12  C   UNK d   1      52.541  85.790  19.278  0.00  0.00     0.225 C 
ATOM     13  C   UNK d   1      52.322  84.446  19.881  0.00  0.00     0.119 C 
ATOM     14  O   UNK d   1      51.977  86.217  18.245  0.00  0.00    -0.273 OA
BRANCH  11  15
ATOM     15  C   UNK d   1      53.784  87.899  20.135  0.00  0.00     0.038 A 
ATOM     16  C   UNK d   1      52.990  88.814  19.469  0.00  0.00     0.048 A 
ATOM     17  C   UNK d   1      53.233  90.183  19.506  0.00  0.00     0.013 A 
ATOM     18 Br   UNK d   1      52.088  91.350  18.561  0.00  0.00    -0.051 Br
ATOM     19  C   UNK d   1      54.322  90.645  20.243  0.00  0.00     0.019 A 
ATOM     20  C   UNK d   1      55.140  89.769  20.923  0.00  0.00     0.004 A 
ATOM     21  C   UNK d   1      54.841  88.425  20.844  0.00  0.00     0.030 A 
ENDBRANCH  11  15
ENDBRANCH   1   9
BRANCH   6  22
ATOM     22  C   UNK d   1      54.553  84.688  25.399  0.00  0.00     0.292 C 
BRANCH  22  23
ATOM     23  C   UNK d   1      54.462  86.133  25.820  0.00  0.00     0.159 C 
BRANCH  23  24
ATOM     24  N   UNK d   1      55.383  86.999  25.143  0.00  0.00    -0.348 N 
ATOM     25  C   UNK d   1      55.276  88.309  24.913  0.00  0.00     0.209 A 
ATOM     26  N   UNK d   1      56.362  88.738  24.235  0.00  0.00    -0.255 NA
ATOM     27  C   UNK d   1      57.168  87.690  24.031  0.00  0.00     0.135 A 
ATOM     28  C   UNK d   1      56.545  86.605  24.603  0.00  0.00     0.111 A 
ENDBRANCH  23  24
ENDBRANCH  22  23
ENDBRANCH   6  22
TORSDOF 5
ENDMDL
