/Users/jonathanwahrer/Desktop/Msc/3_Semester/Drug_Design_Praktikum/waehrer_HTS_screening/HTS_experiment/out/docking_results/vina_output/3npc/0216_docked.pdbqt
 OpenBabel03192219223D

 28 31  0  0  1  0  0  0  0  0999 V2000
   53.1740   83.5590   22.0600 C   0  0  0  0  0  0  0  0  0  0  0  0
   53.8460   82.6440   21.5220 O   0  0  0  0  0  0  0  0  0  0  0  0
   52.7110   83.4590   23.3890 N   0  0  0  0  0  0  0  0  0  0  0  0
   51.9310   84.4990   24.0460 C   0  0  0  0  0  2  0  0  0  0  0  0
   52.1850   84.4300   25.5460 C   0  0  0  0  0  2  0  0  0  0  0  0
   53.4860   83.8790   25.8710 N   0  0  0  0  0  0  0  0  0  0  0  0
   53.5110   82.5010   25.5240 C   0  0  0  0  0  2  0  0  0  0  0  0
   53.0430   82.2370   24.1330 C   0  0  0  0  0  2  0  0  0  0  0  0
   52.8780   84.7430   21.2790 C   0  0  1  0  0  3  0  0  0  0  0  0
   54.1540   85.4800   20.8230 C   0  0  0  0  0  2  0  0  0  0  0  0
   53.4880   86.5190   20.0510 N   0  0  0  0  0  0  0  0  0  0  0  0
   52.5410   85.7900   19.2780 C   0  0  0  0  0  0  0  0  0  0  0  0
   52.3220   84.4460   19.8810 C   0  0  0  0  0  2  0  0  0  0  0  0
   51.9770   86.2170   18.2450 O   0  0  0  0  0  0  0  0  0  0  0  0
   53.7840   87.8990   20.1350 C   0  0  0  0  0  0  0  0  0  0  0  0
   52.9900   88.8140   19.4690 C   0  0  0  0  0  3  0  0  0  0  0  0
   53.2330   90.1830   19.5060 C   0  0  0  0  0  0  0  0  0  0  0  0
   52.0880   91.3500   18.5610 Br  0  0  0  0  0  0  0  0  0  0  0  0
   54.3220   90.6450   20.2430 C   0  0  0  0  0  3  0  0  0  0  0  0
   55.1400   89.7690   20.9230 C   0  0  0  0  0  3  0  0  0  0  0  0
   54.8410   88.4250   20.8440 C   0  0  0  0  0  3  0  0  0  0  0  0
   54.5530   84.6880   25.3990 C   0  0  0  0  0  2  0  0  0  0  0  0
   54.4620   86.1330   25.8200 C   0  0  0  0  0  2  0  0  0  0  0  0
   55.3830   86.9990   25.1430 N   0  0  0  0  0  0  0  0  0  0  0  0
   55.2760   88.3090   24.9130 C   0  0  0  0  0  3  0  0  0  0  0  0
   56.3620   88.7380   24.2350 N   0  0  0  0  0  0  0  0  0  0  0  0
   57.1680   87.6900   24.0310 C   0  0  0  0  0  3  0  0  0  0  0  0
   56.5450   86.6050   24.6030 C   0  0  0  0  0  3  0  0  0  0  0  0
  1  3  1  0  0  0  0
  2  1  2  0  0  0  0
  3  4  1  0  0  0  0
  3  8  1  0  0  0  0
  4  5  1  0  0  0  0
  5  6  1  0  0  0  0
  7  6  1  0  0  0  0
  8  7  1  0  0  0  0
  9  1  1  6  0  0  0
 10  9  1  0  0  0  0
 11 15  1  0  0  0  0
 11 10  1  0  0  0  0
 12 13  1  0  0  0  0
 12 11  1  0  0  0  0
 13  9  1  0  0  0  0
 14 12  2  0  0  0  0
 15 21  1  0  0  0  0
 16 17  1  0  0  0  0
 16 15  2  0  0  0  0
 17 19  2  0  0  0  0
 18 17  1  0  0  0  0
 19 20  1  0  0  0  0
 21 20  2  0  0  0  0
 22 23  1  0  0  0  0
 22  6  1  0  0  0  0
 24 23  1  0  0  0  0
 25 24  1  0  0  0  0
 26 25  2  0  0  0  0
 27 26  1  0  0  0  0
 27 28  2  0  0  0  0
 28 24  1  0  0  0  0
M  END
>  <Pose>
1

>  <Score>
-7.780

$$$$
