/Users/jonathanwahrer/Desktop/Msc/3_Semester/Drug_Design_Praktikum/waehrer_HTS_screening/HTS_experiment/out/docking_results/vina_output/3npc/0219_docked.pdbqt
 OpenBabel03192219223D

 27 30  0  0  1  0  0  0  0  0999 V2000
   53.5490   85.6620   20.9460 N   0  0  0  0  0  0  0  0  0  0  0  0
   54.6960   86.4530   21.2340 C   0  0  0  0  0  0  0  0  0  0  0  0
   55.8060   85.8160   21.2300 O   0  0  0  0  0  0  0  0  0  0  0  0
   52.6180   86.1300   20.9310 H   0  0  0  0  0  0  0  0  0  0  0  0
   54.6760   87.9010   21.5240 C   0  0  0  0  0  2  0  0  0  0  0  0
   54.3950   88.7380   20.3890 N   0  0  0  0  0  0  0  0  0  0  0  0
   55.2200   89.8650   20.0500 C   0  0  0  0  0  0  0  0  0  0  0  0
   56.0560   90.4550   20.7790 O   0  0  0  0  0  0  0  0  0  0  0  0
   54.9200   90.2320   18.6660 C   0  0  1  0  0  3  0  0  0  0  0  0
   53.8490   89.2450   18.1620 C   0  0  2  0  0  3  0  0  0  0  0  0
   54.1850   91.5340   18.5000 C   0  0  1  0  0  3  0  0  0  0  0  0
   52.7710   90.0750   17.5580 C   0  0  2  0  0  3  0  0  0  0  0  0
   53.3420   88.6380   19.4210 C   0  0  0  0  0  0  0  0  0  0  0  0
   53.5780   91.3080   17.1010 C   0  0  0  0  0  2  0  0  0  0  0  0
   52.0240   90.7130   18.6710 C   0  0  0  0  0  2  0  0  0  0  0  0
   52.9190   91.4630   19.3060 C   0  0  0  0  0  2  0  0  0  0  0  0
   52.2250   88.1340   19.6290 O   0  0  0  0  0  0  0  0  0  0  0  0
   53.6240   84.2580   20.6790 C   0  0  0  0  0  2  0  0  0  0  0  0
   52.4960   83.8320   19.7260 C   0  0  0  0  0  2  0  0  0  0  0  0
   52.9340   83.5980   18.5320 O   0  0  0  0  0  0  0  0  0  0  0  0
   53.2800   83.3440   17.3240 C   0  0  0  0  0  0  0  0  0  0  0  0
   52.6490   82.3080   16.6120 C   0  0  0  0  0  3  0  0  0  0  0  0
   52.9680   81.9830   15.3220 C   0  0  0  0  0  0  0  0  0  0  0  0
   52.0900   80.5690   14.3870 Br  0  0  0  0  0  0  0  0  0  0  0  0
   53.9440   82.6790   14.6620 C   0  0  0  0  0  3  0  0  0  0  0  0
   54.6000   83.7080   15.3090 C   0  0  0  0  0  3  0  0  0  0  0  0
   54.2770   84.0320   16.6040 C   0  0  0  0  0  3  0  0  0  0  0  0
  1  2  1  0  0  0  0
  2  5  1  0  0  0  0
  3  2  2  0  0  0  0
  4  1  1  0  0  0  0
  6  5  1  0  0  0  0
  7  6  1  0  0  0  0
  7  8  2  0  0  0  0
  9  7  1  1  0  0  0
 10  9  1  0  0  0  0
 10 13  1  1  0  0  0
 11 14  1  6  0  0  0
 11  9  1  0  0  0  0
 11 16  1  0  0  0  0
 12 14  1  6  0  0  0
 12 10  1  0  0  0  0
 12 15  1  0  0  0  0
 13 17  2  0  0  0  0
 13  6  1  0  0  0  0
 15 16  1  0  0  0  0
 18  1  1  0  0  0  0
 19 18  1  0  0  0  0
 20 19  1  0  0  0  0
 21 20  1  0  0  0  0
 22 21  1  0  0  0  0
 23 22  2  0  0  0  0
 24 23  1  0  0  0  0
 25 26  2  0  0  0  0
 25 23  1  0  0  0  0
 26 27  1  0  0  0  0
 27 21  2  0  0  0  0
M  END
>  <Pose>
1

>  <Score>
-8.789

$$$$
