/Users/jonathanwahrer/Desktop/Msc/3_Semester/Drug_Design_Praktikum/waehrer_HTS_screening/HTS_experiment/out/docking_results/vina_output/3npc/0226_docked.pdbqt
 OpenBabel03192219223D

 30 33  0  0  0  0  0  0  0  0999 V2000
   53.2310   83.5130   19.7070 N   0  0  0  0  0  0  0  0  0  0  0  0
   54.0270   82.9870   18.7610 C   0  0  0  0  0  0  0  0  0  0  0  0
   54.5120   81.7650   19.1850 C   0  0  0  0  0  0  0  0  0  0  0  0
   53.9810   81.5850   20.4010 N   0  0  0  0  0  0  0  0  0  0  0  0
   53.2020   82.6270   20.7420 C   0  0  0  0  0  0  0  0  0  0  0  0
   55.3330   81.0520   18.3940 N   0  0  0  0  0  0  0  0  0  0  0  0
   55.6940   81.5160   17.1840 C   0  0  0  0  0  0  0  0  0  0  0  0
   56.4580   80.8830   16.4140 O   0  0  0  0  0  0  0  0  0  0  0  0
   55.2230   82.7180   16.7530 N   0  0  0  0  0  0  0  0  0  0  0  0
   54.4000   83.4680   17.5080 C   0  0  0  0  0  0  0  0  0  0  0  0
   53.9830   84.5890   17.0700 O   0  0  0  0  0  0  0  0  0  0  0  0
   55.8590   79.7680   18.8100 C   0  0  0  0  0  1  0  0  0  0  0  0
   55.5270   83.0420   15.8060 H   0  0  0  0  0  0  0  0  0  0  0  0
   52.5260   84.7620   19.6560 C   0  0  0  0  0  2  0  0  0  0  0  0
   53.3720   85.9310   20.0540 C   0  0  0  0  0  0  0  0  0  0  0  0
   54.3590   85.7780   20.7920 O   0  0  0  0  0  0  0  0  0  0  0  0
   53.0560   87.2770   19.5810 C   0  0  0  0  0  0  0  0  0  0  0  0
   53.8010   88.3670   19.9600 C   0  0  0  0  0  3  0  0  0  0  0  0
   53.4980   89.6420   19.5120 C   0  0  0  0  0  3  0  0  0  0  0  0
   52.4270   89.8780   18.6620 C   0  0  0  0  0  0  0  0  0  0  0  0
   52.0440   91.6440   18.0710 Br  0  0  0  0  0  0  0  0  0  0  0  0
   51.6780   88.7860   18.2820 C   0  0  0  0  0  3  0  0  0  0  0  0
   51.9910   87.5250   18.7340 C   0  0  0  0  0  3  0  0  0  0  0  0
   52.4580   82.8280   21.9300 N   0  0  0  0  0  0  0  0  0  0  0  0
   53.0580   83.5400   23.0110 C   0  0  0  0  0  2  0  0  0  0  0  0
   52.1560   84.0370   24.0790 C   0  0  0  0  0  2  0  0  0  0  0  0
   50.9220   83.3250   24.2350 N   0  0  0  0  0  0  0  0  0  0  0  0
   50.2880   83.2370   22.9340 C   0  0  0  0  0  2  0  0  0  0  0  0
   51.0700   82.0470   24.8710 C   0  0  0  0  0  1  0  0  0  0  0  0
   51.1220   82.3260   22.0320 C   0  0  0  0  0  2  0  0  0  0  0  0
  1  5  1  0  0  0  0
  2  3  2  0  0  0  0
  2  1  1  0  0  0  0
  3  4  1  0  0  0  0
  4  5  2  0  0  0  0
  5 24  1  0  0  0  0
  6 12  1  0  0  0  0
  6  3  1  0  0  0  0
  7  6  1  0  0  0  0
  8  7  2  0  0  0  0
  9  7  1  0  0  0  0
  9 10  1  0  0  0  0
 10  2  1  0  0  0  0
 11 10  2  0  0  0  0
 13  9  1  0  0  0  0
 14  1  1  0  0  0  0
 14 15  1  0  0  0  0
 15 16  2  0  0  0  0
 17 18  1  0  0  0  0
 17 15  1  0  0  0  0
 19 18  2  0  0  0  0
 20 19  1  0  0  0  0
 21 20  1  0  0  0  0
 22 20  2  0  0  0  0
 22 23  1  0  0  0  0
 23 17  2  0  0  0  0
 24 30  1  0  0  0  0
 24 25  1  0  0  0  0
 25 26  1  0  0  0  0
 26 27  1  0  0  0  0
 27 29  1  0  0  0  0
 28 27  1  0  0  0  0
 30 28  1  0  0  0  0
M  END
>  <Pose>
1

>  <Score>
-7.845

$$$$
