MODEL 1
REMARK VINA RESULT:    -7.845      0.000      0.000
REMARK INTER + INTRA:         -10.639
REMARK INTER:                  -9.680
REMARK INTRA:                  -0.959
REMARK UNBOUND:                -0.959
REMARK  4 active torsions:
REMARK  status: ('A' for Active; 'I' for Inactive)
REMARK    1  A    between atoms: C_5  and  C_8 
REMARK    2  A    between atoms: C_8  and  C_10 
REMARK    3  A    between atoms: C_10  and  N_11 
REMARK    4  A    between atoms: C_15  and  N_16 
ROOT
ATOM      1  N   UNK d   1      53.231  83.513  19.707  0.00  0.00    -0.165 N 
ATOM      2  C   UNK d   1      54.027  82.987  18.761  0.00  0.00     0.167 A 
ATOM      3  C   UNK d   1      54.512  81.765  19.185  0.00  0.00     0.185 A 
ATOM      4  N   UNK d   1      53.981  81.585  20.401  0.00  0.00    -0.044 NA
ATOM      5  C   UNK d   1      53.202  82.627  20.742  0.00  0.00     0.708 A 
ATOM      6  N   UNK d   1      55.333  81.052  18.394  0.00  0.00    -0.286 N 
ATOM      7  C   UNK d   1      55.694  81.516  17.184  0.00  0.00     0.330 A 
ATOM      8  O   UNK d   1      56.458  80.883  16.414  0.00  0.00    -0.246 OA
ATOM      9  N   UNK d   1      55.223  82.718  16.753  0.00  0.00    -0.273 N 
ATOM     10  C   UNK d   1      54.400  83.468  17.508  0.00  0.00     0.280 A 
ATOM     11  O   UNK d   1      53.983  84.589  17.070  0.00  0.00    -0.265 OA
ATOM     12  C   UNK d   1      55.859  79.768  18.810  0.00  0.00     0.163 C 
ATOM     13  H   UNK d   1      55.527  83.042  15.806  0.00  0.00     0.173 HD
ENDROOT
BRANCH   1  14
ATOM     14  C   UNK d   1      52.526  84.762  19.656  0.00  0.00     0.232 C 
BRANCH  14  15
ATOM     15  C   UNK d   1      53.372  85.931  20.054  0.00  0.00     0.178 C 
ATOM     16  O   UNK d   1      54.359  85.778  20.792  0.00  0.00    -0.290 OA
BRANCH  15  17
ATOM     17  C   UNK d   1      53.056  87.277  19.581  0.00  0.00     0.011 A 
ATOM     18  C   UNK d   1      53.801  88.367  19.960  0.00  0.00     0.016 A 
ATOM     19  C   UNK d   1      53.498  89.642  19.512  0.00  0.00     0.020 A 
ATOM     20  C   UNK d   1      52.427  89.878  18.662  0.00  0.00     0.011 A 
ATOM     21 Br   UNK d   1      52.044  91.644  18.071  0.00  0.00    -0.051 Br
ATOM     22  C   UNK d   1      51.678  88.786  18.282  0.00  0.00     0.020 A 
ATOM     23  C   UNK d   1      51.991  87.525  18.734  0.00  0.00     0.016 A 
ENDBRANCH  15  17
ENDBRANCH  14  15
ENDBRANCH   1  14
BRANCH   5  24
ATOM     24  N   UNK d   1      52.458  82.828  21.930  0.00  0.00    -0.212 N 
ATOM     25  C   UNK d   1      53.058  83.540  23.011  0.00  0.00     0.171 C 
ATOM     26  C   UNK d   1      52.156  84.037  24.079  0.00  0.00     0.292 C 
ATOM     27  N   UNK d   1      50.922  83.325  24.235  0.00  0.00     0.087 N 
ATOM     28  C   UNK d   1      50.288  83.237  22.934  0.00  0.00     0.292 C 
ATOM     29  C   UNK d   1      51.070  82.047  24.871  0.00  0.00     0.310 C 
ATOM     30  C   UNK d   1      51.122  82.326  22.032  0.00  0.00     0.171 C 
ENDBRANCH   5  24
TORSDOF 4
ENDMDL
