MODEL 1
REMARK VINA RESULT:    -7.416      0.000      0.000
REMARK INTER + INTRA:         -10.872
REMARK INTER:                 -10.451
REMARK INTRA:                  -0.420
REMARK UNBOUND:                -0.420
REMARK  7 active torsions:
REMARK  status: ('A' for Active; 'I' for Inactive)
REMARK    1  A    between atoms: C_5  and  C_8 
REMARK    2  A    between atoms: C_8  and  C_10 
REMARK    3  A    between atoms: C_11  and  C_25 
REMARK    4  A    between atoms: N_12  and  C_17 
REMARK    5  A    between atoms: C_17  and  C_18 
REMARK    6  A    between atoms: C_18  and  N_19 
REMARK    7  A    between atoms: C_27  and  O_32 
ROOT
ATOM      1  C   UNK d   1      52.740  84.374  22.374  0.00  0.00     0.167 C 
ATOM      2  C   UNK d   1      52.827  85.182  23.646  0.00  0.00     0.140 C 
ATOM      3  N   UNK d   1      52.132  84.337  24.591  0.00  0.00    -0.334 N 
ATOM      4  C   UNK d   1      52.417  82.995  24.212  0.00  0.00     0.291 C 
ATOM      5  O   UNK d   1      52.109  81.955  24.873  0.00  0.00    -0.264 OA
ATOM      6  C   UNK d   1      53.131  83.022  22.921  0.00  0.00     0.230 C 
ATOM      7  O   UNK d   1      53.858  82.138  22.441  0.00  0.00    -0.286 OA
ENDROOT
BRANCH   1   8
ATOM      8  C   UNK d   1      53.619  84.809  21.305  0.00  0.00     0.173 C 
ATOM      9  O   UNK d   1      54.713  84.244  21.096  0.00  0.00    -0.291 OA
BRANCH   8  10
ATOM     10  C   UNK d   1      53.234  85.920  20.454  0.00  0.00     0.011 A 
ATOM     11  C   UNK d   1      53.918  87.139  20.515  0.00  0.00     0.016 A 
ATOM     12  C   UNK d   1      53.568  88.204  19.726  0.00  0.00     0.020 A 
ATOM     13  C   UNK d   1      52.520  88.079  18.847  0.00  0.00     0.011 A 
ATOM     14 Br   UNK d   1      52.051  89.564  17.763  0.00  0.00    -0.051 Br
ATOM     15  C   UNK d   1      51.811  86.912  18.739  0.00  0.00     0.020 A 
ATOM     16  C   UNK d   1      52.192  85.860  19.551  0.00  0.00     0.016 A 
ENDBRANCH   8  10
ENDBRANCH   1   8
BRANCH   2  17
ATOM     17  C   UNK d   1      54.180  85.540  24.042  0.00  0.00    -0.031 A 
ATOM     18  C   UNK d   1      54.809  86.702  23.574  0.00  0.00     0.049 A 
ATOM     19  C   UNK d   1      56.091  87.037  23.957  0.00  0.00     0.105 A 
ATOM     20  C   UNK d   1      56.808  86.235  24.826  0.00  0.00     0.140 A 
ATOM     21  C   UNK d   1      56.208  85.088  25.300  0.00  0.00     0.043 A 
ATOM     22  O   UNK d   1      58.101  86.549  25.228  0.00  0.00    -0.189 OA
ATOM     23  C   UNK d   1      54.920  84.765  24.904  0.00  0.00     0.012 A 
BRANCH  19  24
ATOM     24  O   UNK d   1      56.718  88.182  23.498  0.00  0.00    -0.353 OA
ATOM     25  C   UNK d   1      56.090  89.141  22.685  0.00  0.00     0.210 C 
ENDBRANCH  19  24
ENDBRANCH   2  17
BRANCH   3  26
ATOM     26  C   UNK d   1      51.300  84.693  25.713  0.00  0.00     0.154 C 
BRANCH  26  27
ATOM     27  C   UNK d   1      52.044  84.758  27.013  0.00  0.00     0.255 C 
BRANCH  27  28
ATOM     28  N   UNK d   1      52.039  83.571  27.778  0.00  0.00    -0.066 N 
ATOM     29  C   UNK d   1      51.459  83.878  29.089  0.00  0.00     0.261 C 
ATOM     30  C   UNK d   1      52.358  84.722  29.931  0.00  0.00     0.195 C 
ATOM     31  O   UNK d   1      53.655  84.804  29.486  0.00  0.00    -0.388 OA
ATOM     32  C   UNK d   1      54.124  83.577  29.087  0.00  0.00     0.195 C 
ATOM     33  C   UNK d   1      53.296  82.948  27.999  0.00  0.00     0.261 C 
ATOM     34  H   UNK d   1      51.386  82.851  27.361  0.00  0.00     0.280 HD
ENDBRANCH  27  28
ENDBRANCH  26  27
ENDBRANCH   3  26
TORSDOF 7
ENDMDL
