MODEL 1
REMARK VINA RESULT:    -7.065      0.000      0.000
REMARK INTER + INTRA:          -7.752
REMARK INTER:                  -8.304
REMARK INTRA:                   0.552
REMARK UNBOUND:                 0.552
REMARK  3 active torsions:
REMARK  status: ('A' for Active; 'I' for Inactive)
REMARK    1  A    between atoms: C_5  and  C_8 
REMARK    2  A    between atoms: C_8  and  C_10 
REMARK    3  A    between atoms: N_21  and  C_24 
ROOT
ATOM      1  C   UNK d   1      52.468  83.903  21.460  0.00  0.00     0.193 C 
ATOM      2  N   UNK d   1      52.970  82.546  21.611  0.00  0.00    -0.283 N 
ATOM      3  N   UNK d   1      54.052  81.814  21.170  0.00  0.00    -0.188 NA
ATOM      4  C   UNK d   1      54.313  80.618  21.567  0.00  0.00     0.138 A 
ATOM      5  C   UNK d   1      53.436  79.974  22.517  0.00  0.00     0.019 A 
ATOM      6  C   UNK d   1      52.369  80.596  22.963  0.00  0.00     0.002 A 
ATOM      7  C   UNK d   1      52.011  81.932  22.526  0.00  0.00     0.142 A 
ATOM      8  C   UNK d   1      51.917  82.971  23.587  0.00  0.00     0.122 C 
ATOM      9  C   UNK d   1      52.292  84.294  22.911  0.00  0.00     0.126 C 
ATOM     10  C   UNK d   1      53.546  84.678  23.556  0.00  0.00     0.234 C 
ATOM     11  O   UNK d   1      54.348  85.557  23.136  0.00  0.00    -0.272 OA
ATOM     12  N   UNK d   1      53.715  83.902  24.726  0.00  0.00    -0.288 N 
ATOM     13  C   UNK d   1      52.854  82.771  24.699  0.00  0.00     0.234 C 
ATOM     14  O   UNK d   1      52.881  81.784  25.474  0.00  0.00    -0.272 OA
ENDROOT
BRANCH   1  15
ATOM     15  C   UNK d   1      53.432  84.755  20.750  0.00  0.00     0.184 C 
ATOM     16  O   UNK d   1      54.623  84.311  20.660  0.00  0.00    -0.290 OA
BRANCH  15  17
ATOM     17  C   UNK d   1      53.137  86.039  20.154  0.00  0.00     0.012 A 
ATOM     18  C   UNK d   1      53.917  87.146  20.363  0.00  0.00     0.016 A 
ATOM     19  C   UNK d   1      53.591  88.342  19.765  0.00  0.00     0.020 A 
ATOM     20  C   UNK d   1      52.496  88.504  18.945  0.00  0.00     0.011 A 
ATOM     21 Br   UNK d   1      52.099  90.192  18.146  0.00  0.00    -0.051 Br
ATOM     22  C   UNK d   1      51.714  87.389  18.737  0.00  0.00     0.020 A 
ATOM     23  C   UNK d   1      52.032  86.189  19.330  0.00  0.00     0.016 A 
ENDBRANCH  15  17
ENDBRANCH   1  15
BRANCH  12  24
ATOM     24  C   UNK d   1      54.624  84.195  25.810  0.00  0.00     0.130 C 
ATOM     25  C   UNK d   1      54.223  85.390  26.621  0.00  0.00     0.027 C 
ENDBRANCH  12  24
TORSDOF 3
ENDMDL
