/Users/jonathanwahrer/Desktop/Msc/3_Semester/Drug_Design_Praktikum/waehrer_HTS_screening/HTS_experiment/out/docking_results/vina_output/3npc/0235_docked.pdbqt
 OpenBabel03192219233D

 25 28  0  0  1  0  0  0  0  0999 V2000
   52.4680   83.9030   21.4600 C   0  0  1  0  0  3  0  0  0  0  0  0
   52.9700   82.5460   21.6110 N   0  0  0  0  0  0  0  0  0  0  0  0
   54.0520   81.8140   21.1700 N   0  0  0  0  0  2  0  0  0  0  0  0
   54.3130   80.6180   21.5670 C   0  0  0  0  0  3  0  0  0  0  0  0
   53.4360   79.9740   22.5170 C   0  0  0  0  0  3  0  0  0  0  0  0
   52.3690   80.5960   22.9630 C   0  0  0  0  0  3  0  0  0  0  0  0
   52.0110   81.9320   22.5260 C   0  0  0  0  0  0  0  0  0  0  0  0
   51.9170   82.9710   23.5870 C   0  0  2  0  0  3  0  0  0  0  0  0
   52.2920   84.2940   22.9110 C   0  0  1  0  0  3  0  0  0  0  0  0
   53.5460   84.6780   23.5560 C   0  0  0  0  0  0  0  0  0  0  0  0
   54.3480   85.5570   23.1360 O   0  0  0  0  0  0  0  0  0  0  0  0
   53.7150   83.9020   24.7260 N   0  0  0  0  0  0  0  0  0  0  0  0
   52.8540   82.7710   24.6990 C   0  0  0  0  0  0  0  0  0  0  0  0
   52.8810   81.7840   25.4740 O   0  0  0  0  0  0  0  0  0  0  0  0
   53.4320   84.7550   20.7500 C   0  0  0  0  0  0  0  0  0  0  0  0
   54.6230   84.3110   20.6600 O   0  0  0  0  0  0  0  0  0  0  0  0
   53.1370   86.0390   20.1540 C   0  0  0  0  0  0  0  0  0  0  0  0
   53.9170   87.1460   20.3630 C   0  0  0  0  0  3  0  0  0  0  0  0
   53.5910   88.3420   19.7650 C   0  0  0  0  0  3  0  0  0  0  0  0
   52.4960   88.5040   18.9450 C   0  0  0  0  0  0  0  0  0  0  0  0
   52.0990   90.1920   18.1460 Br  0  0  0  0  0  0  0  0  0  0  0  0
   51.7140   87.3890   18.7370 C   0  0  0  0  0  3  0  0  0  0  0  0
   52.0320   86.1890   19.3300 C   0  0  0  0  0  3  0  0  0  0  0  0
   54.6240   84.1950   25.8100 C   0  0  0  0  0  2  0  0  0  0  0  0
   54.2230   85.3900   26.6210 C   0  0  0  0  0  1  0  0  0  0  0  0
  1 15  1  1  0  0  0
  1  2  1  0  0  0  0
  1  9  1  0  0  0  0
  2  7  1  0  0  0  0
  3  4  1  0  0  0  0
  3  2  1  0  0  0  0
  4  5  2  0  0  0  0
  5  6  1  0  0  0  0
  7  6  2  0  0  0  0
  8  7  1  6  0  0  0
  8 13  1  0  0  0  0
  9 10  1  1  0  0  0
  9  8  1  0  0  0  0
 10 12  1  0  0  0  0
 11 10  2  0  0  0  0
 12 24  1  0  0  0  0
 13 12  1  0  0  0  0
 13 14  2  0  0  0  0
 16 15  2  0  0  0  0
 17 18  1  0  0  0  0
 17 15  1  0  0  0  0
 19 18  2  0  0  0  0
 20 19  1  0  0  0  0
 21 20  1  0  0  0  0
 22 20  2  0  0  0  0
 22 23  1  0  0  0  0
 23 17  2  0  0  0  0
 24 25  1  0  0  0  0
M  END
>  <Pose>
1

>  <Score>
-7.065

$$$$
