/Users/jonathanwahrer/Desktop/Msc/3_Semester/Drug_Design_Praktikum/waehrer_HTS_screening/HTS_experiment/out/docking_results/vina_output/3npc/0243_docked.pdbqt
 OpenBabel03192219233D

 30 33  0  0  1  0  0  0  0  0999 V2000
   56.4330   87.4170   24.9550 C   0  0  2  0  0  3  0  0  0  0  0  0
   56.0970   88.8510   24.6270 C   0  0  0  0  0  2  0  0  0  0  0  0
   56.0650   88.8880   23.1810 N   0  0  0  0  0  0  0  0  0  0  0  0
   56.7680   87.7380   22.6390 C   0  0  1  0  0  3  0  0  0  0  0  0
   57.1730   86.8590   23.7700 C   0  0  0  0  0  2  0  0  0  0  0  0
   55.8290   87.0920   21.6950 C   0  0  0  0  0  0  0  0  0  0  0  0
   55.6430   85.8570   21.7620 O   0  0  0  0  0  0  0  0  0  0  0  0
   55.1720   87.9090   20.7430 N   0  0  0  0  0  0  0  0  0  0  0  0
   55.0510   89.3440   20.8640 C   0  0  1  0  0  3  0  0  0  0  0  0
   55.5150   89.7740   22.2140 C   0  0  0  0  0  0  0  0  0  0  0  0
   55.4240   91.0090   22.5520 O   0  0  0  0  0  0  0  0  0  0  0  0
   54.7570   87.4110   19.9120 H   0  0  0  0  0  0  0  0  0  0  0  0
   55.2590   86.6110   25.1670 N   0  0  0  0  0  0  0  0  0  0  0  0
   55.3610   85.2330   25.3770 C   0  0  0  0  0  0  0  0  0  0  0  0
   56.5010   84.6560   25.3870 O   0  0  0  0  0  0  0  0  0  0  0  0
   54.3350   87.0750   25.1600 H   0  0  0  0  0  0  0  0  0  0  0  0
   54.2010   84.3580   25.5980 C   0  0  0  0  0  0  0  0  0  0  0  0
   54.3000   83.1910   26.3270 C   0  0  0  0  0  3  0  0  0  0  0  0
   53.2110   82.3700   26.5350 C   0  0  0  0  0  3  0  0  0  0  0  0
   51.9640   82.6700   26.0240 C   0  0  0  0  0  0  0  0  0  0  0  0
   50.4380   81.5690   26.2860 Br  0  0  0  0  0  0  0  0  0  0  0  0
   51.8670   83.8470   25.2900 C   0  0  0  0  0  3  0  0  0  0  0  0
   52.9580   84.6580   25.0890 C   0  0  0  0  0  3  0  0  0  0  0  0
   55.7850   90.0510   19.7500 C   0  0  0  0  0  2  0  0  0  0  0  0
   54.8400   90.7420   18.8280 C   0  0  0  0  0  0  0  0  0  0  0  0
   55.0920   90.7820   17.4560 C   0  0  0  0  0  3  0  0  0  0  0  0
   54.1840   91.4340   16.6510 C   0  0  0  0  0  3  0  0  0  0  0  0
   53.0420   92.0440   17.1410 C   0  0  0  0  0  3  0  0  0  0  0  0
   52.8380   91.9770   18.5000 C   0  0  0  0  0  3  0  0  0  0  0  0
   53.7100   91.3410   19.3550 C   0  0  0  0  0  3  0  0  0  0  0  0
  1 13  1  6  0  0  0
  2  1  1  0  0  0  0
  3  2  1  0  0  0  0
  4  3  1  0  0  0  0
  4  5  1  1  0  0  0
  5  1  1  0  0  0  0
  6  7  2  0  0  0  0
  6  4  1  0  0  0  0
  8  9  1  0  0  0  0
  8  6  1  0  0  0  0
  9 24  1  6  0  0  0
  9 10  1  0  0  0  0
 10 11  2  0  0  0  0
 10  3  1  0  0  0  0
 12  8  1  0  0  0  0
 13 14  1  0  0  0  0
 14 15  2  0  0  0  0
 14 17  1  0  0  0  0
 16 13  1  0  0  0  0
 17 18  1  0  0  0  0
 18 19  2  0  0  0  0
 20 21  1  0  0  0  0
 20 19  1  0  0  0  0
 22 20  2  0  0  0  0
 23 22  1  0  0  0  0
 23 17  2  0  0  0  0
 25 30  1  0  0  0  0
 25 24  1  0  0  0  0
 26 25  2  0  0  0  0
 27 28  2  0  0  0  0
 27 26  1  0  0  0  0
 28 29  1  0  0  0  0
 29 30  2  0  0  0  0
M  END
>  <Pose>
1

>  <Score>
-9.165

$$$$
