MODEL 1
REMARK VINA RESULT:    -8.705      0.000      0.000
REMARK INTER + INTRA:         -10.135
REMARK INTER:                  -9.723
REMARK INTRA:                  -0.412
REMARK UNBOUND:                -0.412
REMARK  2 active torsions:
REMARK  status: ('A' for Active; 'I' for Inactive)
REMARK    1  A    between atoms: C_5  and  C_8 
REMARK       I    between atoms: C_8  and  N_10 
REMARK    2  A    between atoms: N_10  and  N_11 
ROOT
ATOM      1  N   UNK d   1      51.220  98.865  28.117  0.00  0.00    -0.187 N 
ATOM      2  C   UNK d   1      51.251  99.991  28.986  0.00  0.00     0.251 C 
ATOM      3  O   UNK d   1      52.340 100.609  29.240  0.00  0.00    -0.271 OA
ATOM      4  C   UNK d   1      49.890 100.290  29.503  0.00  0.00     0.101 C 
ATOM      5  C   UNK d   1      49.034  99.320  28.712  0.00  0.00     0.101 C 
ATOM      6  C   UNK d   1      48.511 100.230  27.622  0.00  0.00     0.022 C 
ATOM      7  C   UNK d   1      48.014 101.367  28.539  0.00  0.00     0.018 C 
ATOM      8  C   UNK d   1      49.430 101.655  29.072  0.00  0.00     0.022 C 
ATOM      9  C   UNK d   1      50.094 101.914  27.746  0.00  0.00    -0.025 C 
ATOM     10  C   UNK d   1      49.622 100.961  26.952  0.00  0.00    -0.025 C 
ATOM     11  C   UNK d   1      49.936  98.279  28.189  0.00  0.00     0.251 C 
ATOM     12  O   UNK d   1      49.604  97.114  27.878  0.00  0.00    -0.271 OA
ENDROOT
BRANCH   1  13
ATOM     13  N   UNK d   1      52.248  98.349  27.286  0.00  0.00    -0.254 N 
ATOM     14  C   UNK d   1      53.337  97.631  27.824  0.00  0.00     0.270 C 
ATOM     15  O   UNK d   1      53.443  97.412  29.074  0.00  0.00    -0.266 OA
ATOM     16  H   UNK d   1      52.183  98.504  26.264  0.00  0.00     0.191 HD
BRANCH  14  17
ATOM     17  C   UNK d   1      54.374  97.115  26.963  0.00  0.00     0.033 A 
ATOM     18  C   UNK d   1      55.565  97.824  26.842  0.00  0.00     0.018 A 
ATOM     19  C   UNK d   1      56.580  97.376  26.023  0.00  0.00     0.020 A 
ATOM     20  C   UNK d   1      56.436  96.222  25.309  0.00  0.00     0.011 A 
ATOM     21 Br   UNK d   1      57.856  95.623  24.176  0.00  0.00    -0.051 Br
ATOM     22  C   UNK d   1      55.249  95.499  25.419  0.00  0.00     0.020 A 
ATOM     23  C   UNK d   1      54.247  95.954  26.236  0.00  0.00     0.018 A 
ENDBRANCH  14  17
ENDBRANCH   1  13
TORSDOF 2
ENDMDL
