/Users/jonathanwahrer/Desktop/Msc/3_Semester/Drug_Design_Praktikum/waehrer_HTS_screening/HTS_experiment/out/docking_results/vina_output/3npc/0257_docked.pdbqt
 OpenBabel03192219243D

 31 34  0  0  1  0  0  0  0  0999 V2000
   53.5430   86.0870   20.3140 C   0  0  2  0  0  3  0  0  0  0  0  0
   53.9170   87.3130   21.0900 C   0  0  2  0  0  3  0  0  0  0  0  0
   54.2740   88.2230   20.0070 N   0  0  0  0  0  0  0  0  0  0  0  0
   53.2910   87.9640   18.9850 C   0  0  0  0  0  0  0  0  0  0  0  0
   52.9430   88.7850   18.1210 O   0  0  0  0  0  0  0  0  0  0  0  0
   52.8030   86.5870   19.1660 C   0  0  0  0  0  0  0  0  0  0  0  0
   51.9380   85.9760   18.4850 O   0  0  0  0  0  0  0  0  0  0  0  0
   53.7840   84.8350   20.6050 C   0  0  2  0  0  3  0  0  0  0  0  0
   54.9170   84.2170   20.0390 O   0  0  0  0  0  1  0  0  0  0  0  0
   52.8930   84.1080   21.4920 C   0  0  0  0  0  0  0  0  0  0  0  0
   51.7840   83.4380   20.9600 C   0  0  0  0  0  3  0  0  0  0  0  0
   50.9050   82.7640   21.7800 C   0  0  0  0  0  3  0  0  0  0  0  0
   51.0640   82.7130   23.1480 C   0  0  0  0  0  0  0  0  0  0  0  0
   49.8630   81.7890   24.3030 Br  0  0  0  0  0  0  0  0  0  0  0  0
   52.1500   83.3660   23.6920 C   0  0  0  0  0  3  0  0  0  0  0  0
   53.0380   84.0470   22.8620 C   0  0  0  0  0  3  0  0  0  0  0  0
   55.0480   87.0320   22.0070 C   0  0  0  0  0  0  0  0  0  0  0  0
   54.7940   86.9930   23.3250 N   0  0  0  0  0  0  0  0  0  0  0  0
   55.7290   86.7380   24.2440 C   0  0  0  0  0  3  0  0  0  0  0  0
   57.0140   86.5050   23.8120 C   0  0  0  0  0  3  0  0  0  0  0  0
   57.3200   86.5360   22.4720 C   0  0  0  0  0  3  0  0  0  0  0  0
   56.3230   86.8020   21.5690 C   0  0  0  0  0  3  0  0  0  0  0  0
   55.3540   89.1650   19.9870 C   0  0  0  0  0  2  0  0  0  0  0  0
   55.1050   90.3410   20.9190 C   0  0  0  0  0  2  0  0  0  0  0  0
   55.1390   91.6150   20.0750 C   0  0  0  0  0  2  0  0  0  0  0  0
   53.9430   91.7540   19.2680 N   0  0  0  0  0  0  0  0  0  0  0  0
   53.8660   91.8440   17.9200 C   0  0  0  0  0  2  0  0  0  0  0  0
   52.5750   91.9610   17.5650 N   0  0  0  0  0  0  0  0  0  0  0  0
   51.8040   91.9490   18.6620 C   0  0  0  0  0  3  0  0  0  0  0  0
   52.2010   92.0490   16.5780 H   0  0  0  0  0  0  0  0  0  0  0  0
   52.6810   91.8180   19.7190 C   0  0  0  0  0  3  0  0  0  0  0  0
  1  8  1  1  0  0  0
  1  2  1  0  0  0  0
  2 17  1  1  0  0  0
  3  2  1  0  0  0  0
  4  6  1  0  0  0  0
  4  3  1  0  0  0  0
  5  4  2  0  0  0  0
  6  1  1  0  0  0  0
  7  6  2  0  0  0  0
  8  9  1  6  0  0  0
  8 10  1  0  0  0  0
 10 16  1  0  0  0  0
 11 10  2  0  0  0  0
 11 12  1  0  0  0  0
 12 13  2  0  0  0  0
 13 15  1  0  0  0  0
 13 14  1  0  0  0  0
 16 15  2  0  0  0  0
 17 18  1  0  0  0  0
 18 19  2  0  0  0  0
 20 19  1  0  0  0  0
 21 20  2  0  0  0  0
 22 17  2  0  0  0  0
 22 21  1  0  0  0  0
 23  3  1  0  0  0  0
 23 24  1  0  0  0  0
 25 24  1  0  0  0  0
 26 31  1  0  0  0  0
 26 25  1  0  0  0  0
 27 26  1  0  0  0  0
 28 27  1  0  0  0  0
 28 29  1  0  0  0  0
 29 31  2  0  0  0  0
 30 28  1  0  0  0  0
M  END
>  <Pose>
1

>  <Score>
-7.272

$$$$
