MODEL 1
REMARK VINA RESULT:    -7.272      0.000      0.000
REMARK INTER + INTRA:         -11.450
REMARK INTER:                 -10.248
REMARK INTRA:                  -1.202
REMARK UNBOUND:                -1.202
REMARK  7 active torsions:
REMARK  status: ('A' for Active; 'I' for Inactive)
REMARK    1  A    between atoms: C_5  and  C_8 
REMARK    2  A    between atoms: C_8  and  C_9 
REMARK    3  A    between atoms: C_10  and  C_24 
REMARK    4  A    between atoms: N_11  and  C_16 
REMARK    5  A    between atoms: C_16  and  C_17 
REMARK    6  A    between atoms: C_17  and  C_18 
REMARK    7  A    between atoms: C_18  and  N_19 
ROOT
ATOM      1  C   UNK d   1      53.543  86.087  20.314  0.00  0.00     0.064 C 
ATOM      2  C   UNK d   1      53.917  87.313  21.090  0.00  0.00     0.180 C 
ATOM      3  N   UNK d   1      54.274  88.223  20.007  0.00  0.00    -0.331 N 
ATOM      4  C   UNK d   1      53.291  87.964  18.985  0.00  0.00     0.295 C 
ATOM      5  O   UNK d   1      52.943  88.785  18.121  0.00  0.00    -0.264 OA
ATOM      6  C   UNK d   1      52.803  86.587  19.166  0.00  0.00     0.251 C 
ATOM      7  O   UNK d   1      51.938  85.976  18.485  0.00  0.00    -0.282 OA
ENDROOT
BRANCH   1   8
ATOM      8  C   UNK d   1      53.784  84.835  20.605  0.00  0.00     0.130 C 
ATOM      9  O   UNK d   1      54.917  84.217  20.039  0.00  0.00    -0.190 OA
BRANCH   8  10
ATOM     10  C   UNK d   1      52.893  84.108  21.492  0.00  0.00     0.001 A 
ATOM     11  C   UNK d   1      51.784  83.438  20.960  0.00  0.00     0.015 A 
ATOM     12  C   UNK d   1      50.905  82.764  21.780  0.00  0.00     0.020 A 
ATOM     13  C   UNK d   1      51.064  82.713  23.148  0.00  0.00     0.011 A 
ATOM     14 Br   UNK d   1      49.863  81.789  24.303  0.00  0.00    -0.051 Br
ATOM     15  C   UNK d   1      52.150  83.366  23.692  0.00  0.00     0.020 A 
ATOM     16  C   UNK d   1      53.038  84.047  22.862  0.00  0.00     0.015 A 
ENDBRANCH   8  10
ENDBRANCH   1   8
BRANCH   2  17
ATOM     17  C   UNK d   1      55.048  87.032  22.007  0.00  0.00     0.061 A 
ATOM     18  N   UNK d   1      54.794  86.993  23.325  0.00  0.00    -0.263 NA
ATOM     19  C   UNK d   1      55.729  86.738  24.244  0.00  0.00     0.117 A 
ATOM     20  C   UNK d   1      57.014  86.505  23.812  0.00  0.00     0.019 A 
ATOM     21  C   UNK d   1      57.320  86.536  22.472  0.00  0.00     0.003 A 
ATOM     22  C   UNK d   1      56.323  86.802  21.569  0.00  0.00     0.029 A 
ENDBRANCH   2  17
BRANCH   3  23
ATOM     23  C   UNK d   1      55.354  89.165  19.987  0.00  0.00     0.129 C 
BRANCH  23  24
ATOM     24  C   UNK d   1      55.105  90.341  20.919  0.00  0.00     0.040 C 
BRANCH  24  25
ATOM     25  C   UNK d   1      55.139  91.615  20.075  0.00  0.00     0.131 C 
BRANCH  25  26
ATOM     26  N   UNK d   1      53.943  91.754  19.268  0.00  0.00    -0.352 N 
ATOM     27  C   UNK d   1      53.866  91.844  17.920  0.00  0.00     0.182 A 
ATOM     28  N   UNK d   1      52.575  91.961  17.565  0.00  0.00    -0.361 N 
ATOM     29  C   UNK d   1      51.804  91.949  18.662  0.00  0.00     0.106 A 
ATOM     30  H   UNK d   1      52.201  92.049  16.578  0.00  0.00     0.166 HD
ATOM     31  C   UNK d   1      52.681  91.818  19.719  0.00  0.00     0.108 A 
ENDBRANCH  25  26
ENDBRANCH  24  25
ENDBRANCH  23  24
ENDBRANCH   3  23
TORSDOF 7
ENDMDL
