/Users/jonathanwahrer/Desktop/Msc/3_Semester/Drug_Design_Praktikum/waehrer_HTS_screening/HTS_experiment/out/docking_results/vina_output/3npc/0263_docked.pdbqt
 OpenBabel03192219253D

 34 37  0  0  1  0  0  0  0  0999 V2000
   54.7530   88.1470   21.1940 C   0  0  0  0  0  0  0  0  0  0  0  0
   53.9800   87.1540   20.8420 C   0  0  0  0  0  0  0  0  0  0  0  0
   52.8540   87.1870   19.8420 C   0  0  2  0  0  3  0  0  0  0  0  0
   52.8740   85.8790   19.2820 N   0  0  0  0  0  0  0  0  0  0  0  0
   53.3730   84.9860   20.3070 C   0  0  0  0  0  0  0  0  0  0  0  0
   53.2400   83.7400   20.3630 O   0  0  0  0  0  0  0  0  0  0  0  0
   54.0790   85.7870   21.3010 C   0  0  0  0  0  0  0  0  0  0  0  0
   54.6530   85.3290   22.3460 O   0  0  0  0  0  0  0  0  0  0  0  0
   54.5410   89.4040   20.5840 O   0  0  0  0  0  1  0  0  0  0  0  0
   55.8030   87.9700   22.1840 C   0  0  0  0  0  0  0  0  0  0  0  0
   55.5930   88.6060   23.4060 C   0  0  0  0  0  3  0  0  0  0  0  0
   56.4910   88.4730   24.4280 C   0  0  0  0  0  3  0  0  0  0  0  0
   57.6110   87.6970   24.2290 C   0  0  0  0  0  0  0  0  0  0  0  0
   58.8530   87.5310   25.6880 Br  0  0  0  0  0  0  0  0  0  0  0  0
   57.8230   87.0650   23.0220 C   0  0  0  0  0  3  0  0  0  0  0  0
   56.9090   87.2080   22.0000 C   0  0  0  0  0  3  0  0  0  0  0  0
   52.9780   88.3220   18.9360 C   0  0  0  0  0  0  0  0  0  0  0  0
   52.2360   89.4710   18.9820 C   0  0  0  0  0  3  0  0  0  0  0  0
   52.4210   90.5000   18.0960 C   0  0  0  0  0  0  0  0  0  0  0  0
   53.3770   90.3880   17.1230 C   0  0  0  0  0  3  0  0  0  0  0  0
   54.1620   89.2430   17.0250 C   0  0  0  0  0  3  0  0  0  0  0  0
   53.9510   88.2330   17.9280 C   0  0  0  0  0  3  0  0  0  0  0  0
   51.6220   91.6560   18.2030 N   0  0  0  0  0  0  0  0  0  0  0  0
   50.5830   91.8210   17.5130 O   0  0  0  0  0  0  0  0  0  0  0  0
   51.9980   92.6330   19.0960 O   0  0  0  0  0  0  0  0  0  0  0  0
   52.4690   85.3340   18.0000 C   0  0  0  0  0  2  0  0  0  0  0  0
   53.5600   84.7080   17.1930 C   0  0  0  0  0  2  0  0  0  0  0  0
   53.1110   83.5510   16.4360 N   0  0  0  0  0  4  0  0  0  0  0  0
   53.3720   82.3130   17.1760 C   0  0  0  0  0  2  0  0  0  0  0  0
   52.7100   81.2080   16.3410 C   0  0  0  0  0  2  0  0  0  0  0  0
   53.2350   81.1250   15.0750 O   0  0  0  0  0  0  0  0  0  0  0  0
   53.2470   82.3260   14.3850 C   0  0  0  0  0  2  0  0  0  0  0  0
   53.8470   83.4450   15.2010 C   0  0  0  0  0  2  0  0  0  0  0  0
   52.1090   83.5450   16.2290 H   0  0  0  0  0  0  0  0  0  0  0  0
  1 10  1  0  0  0  0
  2  1  2  0  0  0  0
  2  7  1  0  0  0  0
  3 17  1  6  0  0  0
  3  2  1  0  0  0  0
  4  3  1  0  0  0  0
  4  5  1  0  0  0  0
  5  6  2  0  0  0  0
  5  7  1  0  0  0  0
  7  8  2  0  0  0  0
  9  1  1  0  0  0  0
 10 11  1  0  0  0  0
 11 12  2  0  0  0  0
 13 12  1  0  0  0  0
 13 14  1  0  0  0  0
 15 13  2  0  0  0  0
 16 10  2  0  0  0  0
 16 15  1  0  0  0  0
 17 18  1  0  0  0  0
 19 23  1  0  0  0  0
 19 18  2  0  0  0  0
 20 19  1  0  0  0  0
 21 20  2  0  0  0  0
 21 22  1  0  0  0  0
 22 17  2  0  0  0  0
 23 25  2  0  0  0  0
 24 23  2  0  0  0  0
 26  4  1  0  0  0  0
 27 26  1  0  0  0  0
 28 29  1  0  0  0  0
 28 27  1  0  0  0  0
 30 29  1  0  0  0  0
 31 30  1  0  0  0  0
 32 31  1  0  0  0  0
 32 33  1  0  0  0  0
 33 28  1  0  0  0  0
 34 28  1  0  0  0  0
M  END
>  <Pose>
1

>  <Score>
-9.004

$$$$
