MODEL 1
REMARK VINA RESULT:    -9.004      0.000      0.000
REMARK INTER + INTRA:         -11.799
REMARK INTER:                 -12.162
REMARK INTRA:                   0.363
REMARK UNBOUND:                 0.363
REMARK  6 active torsions:
REMARK  status: ('A' for Active; 'I' for Inactive)
REMARK    1  A    between atoms: C_5  and  C_8 
REMARK    2  A    between atoms: C_10  and  C_24 
REMARK    3  A    between atoms: N_11  and  C_16 
REMARK    4  A    between atoms: C_16  and  C_17 
REMARK    5  A    between atoms: C_17  and  N_18 
REMARK    6  A    between atoms: C_26  and  N_30 
ROOT
ATOM      1  C   UNK d   1      54.753  88.147  21.194  0.00  0.00     0.130 C 
ATOM      2  C   UNK d   1      53.980  87.154  20.842  0.00  0.00     0.062 C 
ATOM      3  C   UNK d   1      52.854  87.187  19.842  0.00  0.00     0.161 C 
ATOM      4  N   UNK d   1      52.874  85.879  19.282  0.00  0.00    -0.331 N 
ATOM      5  C   UNK d   1      53.373  84.986  20.307  0.00  0.00     0.295 C 
ATOM      6  O   UNK d   1      53.240  83.740  20.363  0.00  0.00    -0.264 OA
ATOM      7  C   UNK d   1      54.079  85.787  21.301  0.00  0.00     0.250 C 
ATOM      8  O   UNK d   1      54.653  85.329  22.346  0.00  0.00    -0.282 OA
ATOM      9  O   UNK d   1      54.541  89.404  20.584  0.00  0.00    -0.190 OA
ENDROOT
BRANCH   1  10
ATOM     10  C   UNK d   1      55.803  87.970  22.184  0.00  0.00     0.001 A 
ATOM     11  C   UNK d   1      55.593  88.606  23.406  0.00  0.00     0.015 A 
ATOM     12  C   UNK d   1      56.491  88.473  24.428  0.00  0.00     0.020 A 
ATOM     13  C   UNK d   1      57.611  87.697  24.229  0.00  0.00     0.011 A 
ATOM     14 Br   UNK d   1      58.853  87.531  25.688  0.00  0.00    -0.051 Br
ATOM     15  C   UNK d   1      57.823  87.065  23.022  0.00  0.00     0.020 A 
ATOM     16  C   UNK d   1      56.909  87.208  22.000  0.00  0.00     0.015 A 
ENDBRANCH   1  10
BRANCH   3  17
ATOM     17  C   UNK d   1      52.978  88.322  18.936  0.00  0.00    -0.028 A 
ATOM     18  C   UNK d   1      52.236  89.471  18.982  0.00  0.00     0.045 A 
ATOM     19  C   UNK d   1      52.421  90.500  18.096  0.00  0.00     0.103 A 
ATOM     20  C   UNK d   1      53.377  90.388  17.123  0.00  0.00     0.036 A 
ATOM     21  C   UNK d   1      54.162  89.243  17.025  0.00  0.00     0.003 A 
ATOM     22  C   UNK d   1      53.951  88.233  17.928  0.00  0.00     0.010 A 
BRANCH  19  23
ATOM     23  N   UNK d   1      51.622  91.656  18.203  0.00  0.00    -0.116 N 
ATOM     24  O   UNK d   1      50.583  91.821  17.513  0.00  0.00    -0.532 OA
ATOM     25  O   UNK d   1      51.998  92.633  19.096  0.00  0.00    -0.532 OA
ENDBRANCH  19  23
ENDBRANCH   3  17
BRANCH   4  26
ATOM     26  C   UNK d   1      52.469  85.334  18.000  0.00  0.00     0.155 C 
BRANCH  26  27
ATOM     27  C   UNK d   1      53.560  84.708  17.193  0.00  0.00     0.255 C 
BRANCH  27  28
ATOM     28  N   UNK d   1      53.111  83.551  16.436  0.00  0.00    -0.066 N 
ATOM     29  C   UNK d   1      53.372  82.313  17.176  0.00  0.00     0.261 C 
ATOM     30  C   UNK d   1      52.710  81.208  16.341  0.00  0.00     0.195 C 
ATOM     31  O   UNK d   1      53.235  81.125  15.075  0.00  0.00    -0.388 OA
ATOM     32  C   UNK d   1      53.247  82.326  14.385  0.00  0.00     0.195 C 
ATOM     33  C   UNK d   1      53.847  83.445  15.201  0.00  0.00     0.261 C 
ATOM     34  H   UNK d   1      52.109  83.545  16.229  0.00  0.00     0.280 HD
ENDBRANCH  27  28
ENDBRANCH  26  27
ENDBRANCH   4  26
TORSDOF 6
ENDMDL
