MODEL 1
REMARK VINA RESULT:    -8.027      0.000      0.000
REMARK INTER + INTRA:         -12.332
REMARK INTER:                 -11.311
REMARK INTRA:                  -1.020
REMARK UNBOUND:                -1.020
REMARK  7 active torsions:
REMARK  status: ('A' for Active; 'I' for Inactive)
REMARK    1  A    between atoms: C_5  and  C_8 
REMARK    2  A    between atoms: C_10  and  C_24 
REMARK    3  A    between atoms: N_11  and  C_16 
REMARK    4  A    between atoms: C_16  and  C_17 
REMARK    5  A    between atoms: C_17  and  N_18 
REMARK    6  A    between atoms: C_27  and  C_30 
REMARK    7  A    between atoms: C_30  and  O_32 
ROOT
ATOM      1  C   UNK d   1      52.478  86.709  18.843  0.00  0.00     0.130 C 
ATOM      2  C   UNK d   1      52.940  86.058  19.888  0.00  0.00     0.062 A 
ATOM      3  C   UNK d   1      52.644  84.622  20.237  0.00  0.00     0.161 A 
ATOM      4  N   UNK d   1      53.284  84.379  21.483  0.00  0.00    -0.331 N 
ATOM      5  C   UNK d   1      54.081  85.511  21.889  0.00  0.00     0.295 A 
ATOM      6  O   UNK d   1      54.820  85.625  22.877  0.00  0.00    -0.264 OA
ATOM      7  C   UNK d   1      53.862  86.569  20.876  0.00  0.00     0.250 A 
ATOM      8  O   UNK d   1      54.406  87.720  20.897  0.00  0.00    -0.282 OA
ATOM      9  O   UNK d   1      51.635  85.966  17.984  0.00  0.00    -0.190 OA
ENDROOT
BRANCH   3  10
ATOM     10  C   UNK d   1      53.272  83.833  19.133  0.00  0.00    -0.030 A 
ATOM     11  C   UNK d   1      52.522  82.883  18.515  0.00  0.00     0.011 A 
ATOM     12  C   UNK d   1      53.053  82.122  17.494  0.00  0.00     0.018 A 
ATOM     13  C   UNK d   1      54.346  82.322  17.094  0.00  0.00     0.039 A 
ATOM     14  C   UNK d   1      55.100  83.282  17.718  0.00  0.00     0.018 A 
ATOM     15  C   UNK d   1      54.573  84.049  18.744  0.00  0.00     0.011 A 
BRANCH  13  16
ATOM     16  C   UNK d   1      54.922  81.519  16.013  0.00  0.00     0.292 C 
ATOM     17  O   UNK d   1      55.800  80.659  16.282  0.00  0.00    -0.259 OA
BRANCH  16  18
ATOM     18  O   UNK d   1      54.553  81.654  14.703  0.00  0.00    -0.323 OA
ATOM     19  C   UNK d   1      54.883  80.709  13.710  0.00  0.00     0.213 C 
ENDBRANCH  16  18
ENDBRANCH  13  16
ENDBRANCH   3  10
BRANCH   4  20
ATOM     20  C   UNK d   1      53.216  83.196  22.298  0.00  0.00     0.155 C 
BRANCH  20  21
ATOM     21  C   UNK d   1      52.433  83.333  23.558  0.00  0.00     0.255 C 
BRANCH  21  22
ATOM     22  N   UNK d   1      51.244  82.539  23.633  0.00  0.00    -0.066 N 
ATOM     23  C   UNK d   1      51.489  81.111  23.656  0.00  0.00     0.261 C 
ATOM     24  C   UNK d   1      50.161  80.436  23.932  0.00  0.00     0.195 C 
ATOM     25  O   UNK d   1      49.368  80.665  22.782  0.00  0.00    -0.388 OA
ATOM     26  C   UNK d   1      49.081  82.032  22.787  0.00  0.00     0.195 C 
ATOM     27  C   UNK d   1      50.369  82.774  22.467  0.00  0.00     0.261 C 
ATOM     28  H   UNK d   1      50.631  82.821  24.444  0.00  0.00     0.280 HD
ENDBRANCH  21  22
ENDBRANCH  20  21
ENDBRANCH   4  20
BRANCH   1  29
ATOM     29  C   UNK d   1      52.789  88.100  18.553  0.00  0.00     0.001 A 
ATOM     30  C   UNK d   1      53.829  88.421  17.671  0.00  0.00     0.015 A 
ATOM     31  C   UNK d   1      54.148  89.719  17.331  0.00  0.00     0.020 A 
ATOM     32  C   UNK d   1      53.438  90.776  17.858  0.00  0.00     0.011 A 
ATOM     33 Br   UNK d   1      53.903  92.567  17.372  0.00  0.00    -0.051 Br
ATOM     34  C   UNK d   1      52.412  90.487  18.726  0.00  0.00     0.020 A 
ATOM     35  C   UNK d   1      52.092  89.167  19.068  0.00  0.00     0.015 A 
ENDBRANCH   1  29
TORSDOF 7
ENDMDL
