MODEL 1
REMARK VINA RESULT:    -8.303      0.000      0.000
REMARK INTER + INTRA:         -12.129
REMARK INTER:                 -11.216
REMARK INTRA:                  -0.913
REMARK UNBOUND:                -0.913
REMARK  6 active torsions:
REMARK  status: ('A' for Active; 'I' for Inactive)
REMARK    1  A    between atoms: C_5  and  C_8 
REMARK    2  A    between atoms: C_8  and  N_9 
REMARK    3  A    between atoms: N_12  and  C_15 
REMARK    4  A    between atoms: N_16  and  C_27 
REMARK    5  A    between atoms: C_27  and  C_28 
REMARK    6  A    between atoms: C_28  and  O_29 
ROOT
ATOM      1  C   UNK d   1      54.315  85.782  24.152  0.00  0.00     0.707 A 
ATOM      2  N   UNK d   1      53.362  85.194  24.893  0.00  0.00    -0.170 N 
ATOM      3  C   UNK d   1      52.656  84.340  24.116  0.00  0.00     0.166 A 
ATOM      4  C   UNK d   1      53.169  84.382  22.838  0.00  0.00     0.185 A 
ATOM      5  N   UNK d   1      54.170  85.262  22.887  0.00  0.00    -0.044 NA
ATOM      6  N   UNK d   1      52.626  83.609  21.879  0.00  0.00    -0.286 N 
ATOM      7  C   UNK d   1      51.593  82.794  22.129  0.00  0.00     0.330 A 
ATOM      8  O   UNK d   1      51.107  82.076  21.196  0.00  0.00    -0.246 OA
ATOM      9  N   UNK d   1      51.078  82.737  23.369  0.00  0.00    -0.273 N 
ATOM     10  C   UNK d   1      51.594  83.494  24.347  0.00  0.00     0.280 A 
ATOM     11  O   UNK d   1      51.112  83.439  25.505  0.00  0.00    -0.265 OA
ATOM     12  C   UNK d   1      53.203  83.677  20.532  0.00  0.00     0.163 C 
ATOM     13  H   UNK d   1      50.259  82.094  23.574  0.00  0.00     0.173 HD
ENDROOT
BRANCH   1  14
ATOM     14  N   UNK d   1      55.296  86.700  24.565  0.00  0.00    -0.213 N 
ATOM     15  C   UNK d   1      55.092  88.106  24.606  0.00  0.00     0.160 C 
ATOM     16  C   UNK d   1      56.092  88.734  23.640  0.00  0.00     0.137 C 
ATOM     17  N   UNK d   1      56.979  87.794  23.098  0.00  0.00    -0.405 N 
ATOM     18  C   UNK d   1      57.552  86.788  23.894  0.00  0.00     0.137 C 
ATOM     19  C   UNK d   1      56.602  86.229  24.959  0.00  0.00     0.160 C 
BRANCH  17  20
ATOM     20  C   UNK d   1      56.863  87.552  21.698  0.00  0.00     0.155 C 
BRANCH  20  21
ATOM     21  C   UNK d   1      55.976  88.490  20.984  0.00  0.00    -0.041 A 
ATOM     22  C   UNK d   1      56.512  89.669  20.529  0.00  0.00     0.010 A 
ATOM     23  C   UNK d   1      55.720  90.575  19.842  0.00  0.00     0.019 A 
ATOM     24  C   UNK d   1      54.386  90.310  19.605  0.00  0.00     0.011 A 
ATOM     25 Br   UNK d   1      53.292  91.568  18.648  0.00  0.00    -0.051 Br
ATOM     26  C   UNK d   1      53.869  89.123  20.071  0.00  0.00     0.019 A 
ATOM     27  C   UNK d   1      54.645  88.210  20.757  0.00  0.00     0.010 A 
ENDBRANCH  20  21
ENDBRANCH  17  20
ENDBRANCH   1  14
BRANCH   2  28
ATOM     28  C   UNK d   1      53.042  85.414  26.278  0.00  0.00     0.174 C 
BRANCH  28  29
ATOM     29  C   UNK d   1      53.964  84.653  27.204  0.00  0.00     0.187 C 
BRANCH  29  30
ATOM     30  O   UNK d   1      53.846  85.011  28.532  0.00  0.00    -0.394 OA
ATOM     31  C   UNK d   1      52.674  84.372  28.999  0.00  0.00     0.201 C 
ENDBRANCH  29  30
ENDBRANCH  28  29
ENDBRANCH   2  28
TORSDOF 6
ENDMDL
