MODEL 1
REMARK VINA RESULT:    -8.329      0.000      0.000
REMARK INTER + INTRA:         -10.715
REMARK INTER:                  -9.790
REMARK INTRA:                  -0.925
REMARK UNBOUND:                -0.925
REMARK  3 active torsions:
REMARK  status: ('A' for Active; 'I' for Inactive)
REMARK    1  A    between atoms: C_5  and  C_8 
REMARK    2  A    between atoms: C_16  and  C_17 
REMARK    3  A    between atoms: C_17  and  N_18 
ROOT
ATOM      1  C   UNK d   1      52.088  86.597  18.331  0.00  0.00     0.053 C 
ATOM      2  C   UNK d   1      52.598  87.758  18.758  0.00  0.00     0.127 A 
ATOM      3  O   UNK d   1      53.685  87.847  19.612  0.00  0.00    -0.305 OA
ATOM      4  C   UNK d   1      54.008  89.170  19.896  0.00  0.00     0.101 A 
ATOM      5  C   UNK d   1      53.131  89.970  19.228  0.00  0.00     0.051 A 
ATOM      6  C   UNK d   1      53.227  91.342  19.336  0.00  0.00     0.021 A 
ATOM      7  C   UNK d   1      54.225  91.846  20.129  0.00  0.00     0.041 A 
ATOM      8  C   UNK d   1      55.129  91.026  20.817  0.00  0.00     0.118 A 
ATOM      9  C   UNK d   1      55.048  89.659  20.723  0.00  0.00     0.039 A 
ATOM     10  O   UNK d   1      56.116  91.619  21.604  0.00  0.00    -0.191 OA
ATOM     11  C   UNK d   1      52.201  89.112  18.481  0.00  0.00     0.218 A 
ATOM     12  O   UNK d   1      51.244  89.452  17.739  0.00  0.00    -0.284 OA
ENDROOT
BRANCH   1  13
ATOM     13  C   UNK d   1      52.687  85.342  18.771  0.00  0.00    -0.033 A 
ATOM     14  C   UNK d   1      53.539  84.640  17.935  0.00  0.00     0.013 A 
ATOM     15  C   UNK d   1      54.120  83.447  18.319  0.00  0.00     0.020 A 
ATOM     16  C   UNK d   1      53.875  82.904  19.560  0.00  0.00     0.011 A 
ATOM     17 Br   UNK d   1      54.687  81.246  20.095  0.00  0.00    -0.051 Br
ATOM     18  C   UNK d   1      53.029  83.589  20.406  0.00  0.00     0.020 A 
ATOM     19  C   UNK d   1      52.444  84.795  20.011  0.00  0.00     0.013 A 
ENDBRANCH   1  13
BRANCH   9  20
ATOM     20  C   UNK d   1      55.916  88.675  21.381  0.00  0.00     0.279 C 
BRANCH  20  21
ATOM     21  N   UNK d   1      55.372  87.884  22.416  0.00  0.00    -0.063 N 
ATOM     22  C   UNK d   1      56.171  86.708  22.692  0.00  0.00     0.261 C 
ATOM     23  C   UNK d   1      57.262  87.060  23.687  0.00  0.00     0.195 C 
ATOM     24  O   UNK d   1      56.691  87.105  24.949  0.00  0.00    -0.388 OA
ATOM     25  C   UNK d   1      55.393  87.610  24.815  0.00  0.00     0.195 C 
ATOM     26  C   UNK d   1      55.345  88.628  23.687  0.00  0.00     0.261 C 
ATOM     27  H   UNK d   1      54.376  87.638  22.242  0.00  0.00     0.280 HD
ENDBRANCH  20  21
ENDBRANCH   9  20
TORSDOF 3
ENDMDL
