MODEL 1
REMARK VINA RESULT:   -10.771      0.000      0.000
REMARK INTER + INTRA:         -16.347
REMARK INTER:                 -15.179
REMARK INTRA:                  -1.168
REMARK UNBOUND:                -1.168
REMARK  8 active torsions:
REMARK  status: ('A' for Active; 'I' for Inactive)
REMARK    1  A    between atoms: C_5  and  C_8 
REMARK    2  A    between atoms: N_9  and  N_10 
REMARK       I    between atoms: N_10  and  C_11 
REMARK    3  A    between atoms: C_11  and  C_13 
REMARK    4  A    between atoms: C_13  and  N_14 
REMARK    5  A    between atoms: C_16  and  C_25 
REMARK    6  A    between atoms: C_18  and  C_19 
REMARK    7  A    between atoms: C_23  and  N_24 
REMARK    8  A    between atoms: C_29  and  N_30 
ROOT
ATOM      1  N   UNK d   1      55.286  90.110  21.161  0.00  0.00    -0.239 N 
ATOM      2  N   UNK d   1      55.835  89.571  22.292  0.00  0.00    -0.147 NA
ATOM      3  C   UNK d   1      55.455  88.289  22.387  0.00  0.00     0.206 A 
ATOM      4  N   UNK d   1      54.687  88.062  21.323  0.00  0.00    -0.203 NA
ATOM      5  C   UNK d   1      54.574  89.204  20.545  0.00  0.00     0.184 A 
ENDROOT
BRANCH   1   6
ATOM      6  C   UNK d   1      55.563  91.491  20.818  0.00  0.00     0.257 C 
BRANCH   6   7
ATOM      7  C   UNK d   1      54.950  92.425  21.798  0.00  0.00     0.257 C 
ATOM      8  N   UNK d   1      55.675  92.876  22.927  0.00  0.00    -0.246 N 
ATOM      9  H   UNK d   1      56.676  92.555  23.099  0.00  0.00     0.192 HD
ATOM     10  O   UNK d   1      53.776  92.823  21.627  0.00  0.00    -0.270 OA
BRANCH   8  11
ATOM     11  N   UNK d   1      55.077  93.742  23.816  0.00  0.00    -0.184 NA
ATOM     12  C   UNK d   1      55.625  94.238  24.855  0.00  0.00     0.150 C 
BRANCH  12  13
ATOM     13  C   UNK d   1      54.942  95.154  25.763  0.00  0.00    -0.017 A 
ATOM     14  C   UNK d   1      55.626  96.140  26.442  0.00  0.00     0.014 A 
ATOM     15  C   UNK d   1      54.958  96.998  27.298  0.00  0.00     0.020 A 
ATOM     16  C   UNK d   1      53.590  96.905  27.509  0.00  0.00     0.011 A 
ATOM     17 Br   UNK d   1      52.697  98.103  28.696  0.00  0.00    -0.051 Br
ATOM     18  C   UNK d   1      52.906  95.918  26.831  0.00  0.00     0.020 A 
ATOM     19  C   UNK d   1      53.584  95.070  25.979  0.00  0.00     0.014 A 
ENDBRANCH  12  13
ENDBRANCH   8  11
ENDBRANCH   6   7
ENDBRANCH   1   6
BRANCH   5  20
ATOM     20  C   UNK d   1      53.792  89.236  19.326  0.00  0.00     0.181 A 
ATOM     21  N   UNK d   1      54.250  89.871  18.175  0.00  0.00    -0.097 NA
ATOM     22  O   UNK d   1      53.390  89.744  17.243  0.00  0.00    -0.104 OA
ATOM     23  N   UNK d   1      52.387  89.077  17.661  0.00  0.00    -0.085 NA
ATOM     24  C   UNK d   1      52.605  88.741  18.968  0.00  0.00     0.186 A 
BRANCH  24  25
ATOM     25  N   UNK d   1      51.659  87.989  19.676  0.00  0.00    -0.380 N 
ATOM     26  H   UNK d   1      50.673  88.332  19.734  0.00  0.00     0.158 HD
ATOM     27  H   UNK d   1      51.863  87.087  20.154  0.00  0.00     0.158 HD
ENDBRANCH  24  25
ENDBRANCH   5  20
BRANCH   3  28
ATOM     28  C   UNK d   1      55.805  87.335  23.432  0.00  0.00     0.183 A 
ATOM     29  N   UNK d   1      56.525  86.217  23.297  0.00  0.00    -0.097 NA
ATOM     30  O   UNK d   1      56.625  85.620  24.472  0.00  0.00    -0.104 OA
ATOM     31  N   UNK d   1      55.996  86.306  25.383  0.00  0.00    -0.085 NA
ATOM     32  C   UNK d   1      55.463  87.401  24.759  0.00  0.00     0.186 A 
BRANCH  32  33
ATOM     33  N   UNK d   1      54.700  88.394  25.425  0.00  0.00    -0.380 N 
ATOM     34  H   UNK d   1      53.921  88.105  26.080  0.00  0.00     0.158 HD
ATOM     35  H   UNK d   1      54.855  89.414  25.313  0.00  0.00     0.158 HD
ENDBRANCH  32  33
ENDBRANCH   3  28
TORSDOF 8
ENDMDL
