/Users/jonathanwahrer/Desktop/Msc/3_Semester/Drug_Design_Praktikum/waehrer_HTS_screening/HTS_experiment/out/docking_results/vina_output/3npc/0302_docked.pdbqt
 OpenBabel03192219273D

 29 33  0  0  1  0  0  0  0  0999 V2000
   54.8460   93.0290   22.7450 C   0  0  0  0  0  0  0  0  0  0  0  0
   55.3560   91.7810   22.7140 N   0  0  0  0  0  0  0  0  0  0  0  0
   55.0510   91.1830   21.5350 C   0  0  1  0  0  3  0  0  0  0  0  0
   54.3380   92.0500   20.7960 N   0  0  0  0  0  0  0  0  0  0  0  0
   54.2090   93.1790   21.5300 C   0  0  0  0  0  3  0  0  0  0  0  0
   54.0610   91.4130   19.6410 C   0  0  0  0  0  0  0  0  0  0  0  0
   54.6020   90.1450   19.6570 C   0  0  0  0  0  0  0  0  0  0  0  0
   54.4640   89.2690   18.5860 C   0  0  0  0  0  3  0  0  0  0  0  0
   53.7690   89.6670   17.4670 C   0  0  0  0  0  3  0  0  0  0  0  0
   53.2330   90.9370   17.4610 C   0  0  0  0  0  3  0  0  0  0  0  0
   53.3530   91.8250   18.5080 C   0  0  0  0  0  3  0  0  0  0  0  0
   55.2180   90.0330   20.8630 N   0  0  0  0  0  0  0  0  0  0  0  0
   55.9050   91.3220   23.4690 H   0  0  0  0  0  0  0  0  0  0  0  0
   55.9160   88.8310   21.2700 C   0  0  0  0  0  2  0  0  0  0  0  0
   54.9960   87.8640   21.9840 C   0  0  0  0  0  2  0  0  0  0  0  0
   55.6260   87.3590   23.1700 N   0  0  0  0  0  4  0  0  0  0  0  0
   55.5540   88.3370   24.2360 C   0  0  0  0  0  2  0  0  0  0  0  0
   56.8630   88.4950   24.9710 C   0  0  0  0  0  2  0  0  0  0  0  0
   57.3170   87.2330   25.3590 O   0  0  0  0  0  0  0  0  0  0  0  0
   57.4970   86.3890   24.2840 C   0  0  0  0  0  2  0  0  0  0  0  0
   57.0000   86.9940   22.9980 C   0  0  0  0  0  2  0  0  0  0  0  0
   55.1200   86.5060   23.5200 H   0  0  0  0  0  0  0  0  0  0  0  0
   54.9570   93.9900   23.8380 C   0  0  0  0  0  0  0  0  0  0  0  0
   56.1750   94.4790   24.2530 C   0  0  0  0  0  3  0  0  0  0  0  0
   56.2800   95.3970   25.2960 C   0  0  0  0  0  3  0  0  0  0  0  0
   55.1470   95.8430   25.9460 C   0  0  0  0  0  0  0  0  0  0  0  0
   55.2860   97.0930   27.3680 Br  0  0  0  0  0  0  0  0  0  0  0  0
   53.9190   95.3610   25.5400 C   0  0  0  0  0  3  0  0  0  0  0  0
   53.8320   94.4400   24.4920 C   0  0  0  0  0  3  0  0  0  0  0  0
  1 23  1  0  0  0  0
  2  1  1  0  0  0  0
  2 13  1  0  0  0  0
  3  4  1  6  0  0  0
  3  2  1  0  0  0  0
  4  5  1  0  0  0  0
  5  1  2  0  0  0  0
  6  7  1  0  0  0  0
  6  4  1  0  0  0  0
  7 12  1  0  0  0  0
  8  7  2  0  0  0  0
  9  8  1  0  0  0  0
 10  9  2  0  0  0  0
 10 11  1  0  0  0  0
 11  6  2  0  0  0  0
 12 14  1  0  0  0  0
 12  3  1  0  0  0  0
 14 15  1  0  0  0  0
 15 16  1  0  0  0  0
 16 22  1  0  0  0  0
 16 17  1  0  0  0  0
 17 18  1  0  0  0  0
 18 19  1  0  0  0  0
 20 19  1  0  0  0  0
 21 16  1  0  0  0  0
 21 20  1  0  0  0  0
 23 24  2  0  0  0  0
 23 29  1  0  0  0  0
 24 25  1  0  0  0  0
 25 26  2  0  0  0  0
 26 27  1  0  0  0  0
 28 26  1  0  0  0  0
 29 28  2  0  0  0  0
M  END
>  <Pose>
1

>  <Score>
-9.887

$$$$
