MODEL 1
REMARK VINA RESULT:    -8.846      0.000      0.000
REMARK INTER + INTRA:         -13.113
REMARK INTER:                 -11.949
REMARK INTRA:                  -1.163
REMARK UNBOUND:                -1.163
REMARK  6 active torsions:
REMARK  status: ('A' for Active; 'I' for Inactive)
REMARK    1  A    between atoms: C_5  and  C_8 
REMARK    2  A    between atoms: N_15  and  C_16 
REMARK    3  A    between atoms: C_16  and  C_17 
REMARK    4  A    between atoms: C_17  and  C_18 
REMARK    5  A    between atoms: C_18  and  N_19 
REMARK    6  A    between atoms: N_19  and  C_20 
ROOT
ATOM      1  C   UNK d   1      53.871  84.513  19.653  0.00  0.00     0.078 A 
ATOM      2  C   UNK d   1      54.529  83.388  19.129  0.00  0.00     0.146 A 
ATOM      3  N   UNK d   1      54.175  83.300  17.853  0.00  0.00    -0.153 N 
ATOM      4  C   UNK d   1      54.402  82.497  16.768  0.00  0.00     0.083 A 
ATOM      5  C   UNK d   1      53.659  83.043  15.752  0.00  0.00     0.077 A 
ATOM      6  N   UNK d   1      53.040  84.106  16.242  0.00  0.00    -0.189 N 
ATOM      7  C   UNK d   1      53.355  84.280  17.558  0.00  0.00     0.692 A 
ATOM      8  N   UNK d   1      53.149  85.054  18.665  0.00  0.00    -0.180 N 
ATOM      9  C   UNK d   1      53.646  82.477  14.474  0.00  0.00     0.032 A 
ATOM     10  C   UNK d   1      54.394  81.347  14.221  0.00  0.00     0.002 A 
ATOM     11  C   UNK d   1      55.131  80.819  15.257  0.00  0.00     0.002 A 
ATOM     12  C   UNK d   1      55.148  81.376  16.530  0.00  0.00     0.033 A 
ATOM     13  H   UNK d   1      52.401  84.696  15.677  0.00  0.00     0.184 HD
ENDROOT
BRANCH   8  14
ATOM     14  C   UNK d   1      52.279  86.189  18.627  0.00  0.00     0.149 C 
BRANCH  14  15
ATOM     15  C   UNK d   1      52.904  87.523  18.552  0.00  0.00     0.048 C 
BRANCH  15  16
ATOM     16  C   UNK d   1      52.147  88.700  19.050  0.00  0.00     0.234 C 
BRANCH  16  17
ATOM     17  N   UNK d   1      52.818  89.945  18.747  0.00  0.00    -0.071 N 
ATOM     18  H   UNK d   1      53.151  90.060  17.793  0.00  0.00     0.277 HD
ATOM     19  H   UNK d   1      52.052  90.707  18.842  0.00  0.00     0.277 HD
BRANCH  17  20
ATOM     20  C   UNK d   1      53.810  90.304  19.718  0.00  0.00     0.185 C 
ATOM     21  C   UNK d   1      55.227  89.996  19.323  0.00  0.00     0.033 C 
ATOM     22  C   UNK d   1      56.039  89.986  20.627  0.00  0.00     0.002 C 
ATOM     23  C   UNK d   1      55.975  91.344  21.235  0.00  0.00     0.000 C 
ATOM     24  C   UNK d   1      54.569  91.867  21.413  0.00  0.00     0.002 C 
ATOM     25  C   UNK d   1      53.791  91.780  20.095  0.00  0.00     0.033 C 
ENDBRANCH  17  20
ENDBRANCH  16  17
ENDBRANCH  15  16
ENDBRANCH  14  15
ENDBRANCH   8  14
BRANCH   1  26
ATOM     26  C   UNK d   1      54.000  84.924  21.034  0.00  0.00    -0.007 A 
ATOM     27  C   UNK d   1      54.847  85.971  21.335  0.00  0.00     0.015 A 
ATOM     28  C   UNK d   1      55.015  86.423  22.613  0.00  0.00     0.020 A 
ATOM     29  C   UNK d   1      54.351  85.858  23.658  0.00  0.00     0.011 A 
ATOM     30 Br   UNK d   1      54.583  86.490  25.462  0.00  0.00    -0.051 Br
ATOM     31  C   UNK d   1      53.502  84.818  23.402  0.00  0.00     0.020 A 
ATOM     32  C   UNK d   1      53.339  84.361  22.072  0.00  0.00     0.015 A 
ENDBRANCH   1  26
TORSDOF 6
ENDMDL
