/Users/jonathanwahrer/Desktop/Msc/3_Semester/Drug_Design_Praktikum/waehrer_HTS_screening/HTS_experiment/out/docking_results/vina_output/3npc/0324_docked.pdbqt
 OpenBabel03192219283D

 34 38  0  0  1  0  0  0  0  0999 V2000
   53.8060   84.5580   19.7440 C   0  0  0  0  0  0  0  0  0  0  0  0
   54.4770   83.4500   19.1930 C   0  0  0  0  0  3  0  0  0  0  0  0
   54.1800   83.3110   17.8960 N   0  0  0  0  0  0  0  0  0  0  0  0
   54.4080   82.5570   16.7930 C   0  0  0  0  0  0  0  0  0  0  0  0
   53.6670   83.1220   15.7840 C   0  0  0  0  0  0  0  0  0  0  0  0
   53.0100   84.1990   16.2970 N   0  0  0  0  0  0  0  0  0  0  0  0
   53.3400   84.2990   17.5980 C   0  0  1  0  0  3  0  0  0  0  0  0
   53.1080   85.0630   18.7250 N   0  0  0  0  0  0  0  0  0  0  0  0
   53.7200   82.5380   14.5350 C   0  0  0  0  0  3  0  0  0  0  0  0
   54.4940   81.4120   14.2870 C   0  0  0  0  0  3  0  0  0  0  0  0
   55.2340   80.8490   15.2960 C   0  0  0  0  0  3  0  0  0  0  0  0
   55.1790   81.4430   16.5630 C   0  0  0  0  0  3  0  0  0  0  0  0
   52.3720   84.8180   15.7510 H   0  0  0  0  0  0  0  0  0  0  0  0
   52.2160   86.2030   18.7240 C   0  0  0  0  0  2  0  0  0  0  0  0
   52.9180   87.5340   18.5900 C   0  0  0  0  0  2  0  0  0  0  0  0
   51.9630   88.6140   18.1510 C   0  0  0  0  0  2  0  0  0  0  0  0
   52.5880   89.8110   17.6570 N   0  0  0  0  0  0  0  0  0  0  0  0
   54.0150   89.6320   17.8740 C   0  0  0  0  0  2  0  0  0  0  0  0
   54.7060   90.8060   18.4580 C   0  0  0  0  0  2  0  0  0  0  0  0
   54.0420   91.4460   19.5600 N   0  0  0  0  0  4  0  0  0  0  0  0
   52.6200   91.1790   19.6130 C   0  0  0  0  0  2  0  0  0  0  0  0
   54.1050   92.4940   19.3640 H   0  0  0  0  0  0  0  0  0  0  0  0
   52.1080   91.0410   18.1940 C   0  0  0  0  0  2  0  0  0  0  0  0
   54.7360   91.2520   20.7930 C   0  0  0  0  0  2  0  0  0  0  0  0
   55.0220   92.4810   21.5860 C   0  0  0  0  0  2  0  0  0  0  0  0
   54.0840   92.7360   22.5850 O   0  0  0  0  0  0  0  0  0  0  0  0
   53.8220   91.9030   23.0120 H   0  0  0  0  0  0  0  0  0  0  0  0
   53.9040   84.9430   21.1510 C   0  0  0  0  0  0  0  0  0  0  0  0
   53.2590   84.3530   22.1900 C   0  0  0  0  0  3  0  0  0  0  0  0
   53.4380   84.7510   23.5250 C   0  0  0  0  0  3  0  0  0  0  0  0
   54.2910   85.7770   23.8450 C   0  0  0  0  0  0  0  0  0  0  0  0
   54.5380   86.3210   25.6670 Br  0  0  0  0  0  0  0  0  0  0  0  0
   54.9480   86.3850   22.8130 C   0  0  0  0  0  3  0  0  0  0  0  0
   54.7650   85.9850   21.4990 C   0  0  0  0  0  3  0  0  0  0  0  0
  1 28  1  0  0  0  0
  2  1  2  0  0  0  0
  3  2  1  0  0  0  0
  4  3  1  0  0  0  0
  5  6  1  0  0  0  0
  5  4  2  0  0  0  0
  7  6  1  1  0  0  0
  7  3  1  0  0  0  0
  7  8  1  0  0  0  0
  8  1  1  0  0  0  0
  9  5  1  0  0  0  0
 10  9  2  0  0  0  0
 10 11  1  0  0  0  0
 11 12  2  0  0  0  0
 12  4  1  0  0  0  0
 13  6  1  0  0  0  0
 14  8  1  0  0  0  0
 15 14  1  0  0  0  0
 16 15  1  0  0  0  0
 17 18  1  0  0  0  0
 17 16  1  0  0  0  0
 17 23  1  0  0  0  0
 18 19  1  0  0  0  0
 19 20  1  0  0  0  0
 20 21  1  0  0  0  0
 20 24  1  0  0  0  0
 22 20  1  0  0  0  0
 23 21  1  0  0  0  0
 24 25  1  0  0  0  0
 25 26  1  0  0  0  0
 26 27  1  0  0  0  0
 28 34  2  0  0  0  0
 28 29  1  0  0  0  0
 29 30  2  0  0  0  0
 30 31  1  0  0  0  0
 31 32  1  0  0  0  0
 33 31  2  0  0  0  0
 34 33  1  0  0  0  0
M  END
>  <Pose>
1

>  <Score>
-8.587

$$$$
