/Users/jonathanwahrer/Desktop/Msc/3_Semester/Drug_Design_Praktikum/waehrer_HTS_screening/HTS_experiment/out/docking_results/vina_output/3npc/0346_docked.pdbqt
 OpenBabel03192219283D

 35 38  0  0  1  0  0  0  0  0999 V2000
   54.4020   86.4720   23.7440 C   0  0  2  0  0  3  0  0  0  0  0  0
   53.7560   85.3850   24.4260 N   0  0  0  0  0  0  0  0  0  0  0  0
   53.4550   84.3290   23.5340 C   0  0  0  0  0  0  0  0  0  0  0  0
   52.8700   83.2300   23.7850 O   0  0  0  0  0  0  0  0  0  0  0  0
   53.9410   84.6880   22.1830 C   0  0  0  0  0  0  0  0  0  0  0  0
   53.8310   83.9720   21.1630 O   0  0  0  0  0  0  0  0  0  0  0  0
   54.5400   85.9990   22.3270 C   0  0  1  0  0  3  0  0  0  0  0  0
   55.0680   86.6560   21.3190 C   0  0  1  0  0  3  0  0  0  0  0  0
   56.3750   86.3040   20.9210 O   0  0  0  0  0  1  0  0  0  0  0  0
   54.4370   87.7080   20.5640 C   0  0  0  0  0  0  0  0  0  0  0  0
   53.3800   87.5850   19.7310 C   0  0  0  0  0  3  0  0  0  0  0  0
   52.8490   88.6860   19.0930 C   0  0  0  0  0  0  0  0  0  0  0  0
   53.3430   89.9630   19.2540 C   0  0  0  0  0  0  0  0  0  0  0  0
   51.6750   88.4980   18.1790 C   0  0  0  0  0  1  0  0  0  0  0  0
   54.4230   90.0620   20.1090 C   0  0  0  0  0  3  0  0  0  0  0  0
   54.9740   88.9900   20.7560 C   0  0  0  0  0  3  0  0  0  0  0  0
   52.8030   91.0680   18.6080 O   0  0  0  0  0  0  0  0  0  0  0  0
   53.6430   91.9310   17.8540 C   0  0  0  0  0  1  0  0  0  0  0  0
   55.6920   86.8420   24.3310 C   0  0  0  0  0  0  0  0  0  0  0  0
   55.9500   88.1420   24.7100 C   0  0  0  0  0  3  0  0  0  0  0  0
   57.1810   88.4990   25.2700 C   0  0  0  0  0  3  0  0  0  0  0  0
   58.1680   87.5570   25.4560 C   0  0  0  0  0  0  0  0  0  0  0  0
   59.8480   88.0830   26.2250 Br  0  0  0  0  0  0  0  0  0  0  0  0
   57.9190   86.2650   25.0830 C   0  0  0  0  0  3  0  0  0  0  0  0
   56.7040   85.9320   24.5340 C   0  0  0  0  0  3  0  0  0  0  0  0
   53.4550   85.3960   25.8460 C   0  0  0  0  0  2  0  0  0  0  0  0
   51.9840   85.5010   26.1440 C   0  0  0  0  0  2  0  0  0  0  0  0
   51.4760   84.2920   26.8680 C   0  0  0  0  0  2  0  0  0  0  0  0
   50.2510   84.5270   27.5740 N   0  0  0  0  0  4  0  0  0  0  0  0
   50.3710   85.5260   28.6160 C   0  0  0  0  0  2  0  0  0  0  0  0
   48.9490   85.8360   29.0960 C   0  0  0  0  0  2  0  0  0  0  0  0
   48.0470   84.9140   28.5860 O   0  0  0  0  0  0  0  0  0  0  0  0
   48.4760   83.5990   28.8750 C   0  0  0  0  0  2  0  0  0  0  0  0
   49.7320   83.2840   28.0710 C   0  0  0  0  0  2  0  0  0  0  0  0
   49.5350   84.9090   26.8860 H   0  0  0  0  0  0  0  0  0  0  0  0
  1 19  1  1  0  0  0
  1  2  1  0  0  0  0
  2 26  1  0  0  0  0
  3  4  2  0  0  0  0
  3  2  1  0  0  0  0
  5  7  1  0  0  0  0
  5  3  1  0  0  0  0
  6  5  2  0  0  0  0
  7  8  1  6  0  0  0
  7  1  1  0  0  0  0
  8  9  1  6  0  0  0
 10 16  1  0  0  0  0
 10  8  1  0  0  0  0
 11 10  2  0  0  0  0
 12 13  2  0  0  0  0
 12 11  1  0  0  0  0
 13 15  1  0  0  0  0
 14 12  1  0  0  0  0
 15 16  2  0  0  0  0
 17 13  1  0  0  0  0
 18 17  1  0  0  0  0
 19 25  2  0  0  0  0
 19 20  1  0  0  0  0
 20 21  2  0  0  0  0
 21 22  1  0  0  0  0
 22 23  1  0  0  0  0
 24 22  2  0  0  0  0
 25 24  1  0  0  0  0
 26 27  1  0  0  0  0
 27 28  1  0  0  0  0
 28 29  1  0  0  0  0
 29 34  1  0  0  0  0
 29 30  1  0  0  0  0
 30 31  1  0  0  0  0
 32 33  1  0  0  0  0
 32 31  1  0  0  0  0
 34 33  1  0  0  0  0
 35 29  1  0  0  0  0
M  END
>  <Pose>
1

>  <Score>
-8.174

$$$$
