/Users/jonathanwahrer/Desktop/Msc/3_Semester/Drug_Design_Praktikum/waehrer_HTS_screening/HTS_experiment/out/docking_results/vina_output/3npc/0349_docked.pdbqt
 OpenBabel03192219293D

 32 35  0  0  1  0  0  0  0  0999 V2000
   53.1540   86.9230   19.7940 C   0  0  1  0  0  3  0  0  0  0  0  0
   53.2460   85.6380   19.2470 N   0  0  0  0  0  0  0  0  0  0  0  0
   53.2720   84.7600   20.4350 C   0  0  0  0  0  0  0  0  0  0  0  0
   52.8350   83.5790   20.5180 O   0  0  0  0  0  0  0  0  0  0  0  0
   53.9160   85.5710   21.4730 C   0  0  0  0  0  0  0  0  0  0  0  0
   54.1780   85.2490   22.6720 O   0  0  0  0  0  0  0  0  0  0  0  0
   54.2160   86.8680   20.8360 C   0  0  0  0  0  0  0  0  0  0  0  0
   55.2010   87.6910   21.1150 C   0  0  0  0  0  0  0  0  0  0  0  0
   55.3850   88.8480   20.3670 O   0  0  0  0  0  1  0  0  0  0  0  0
   53.2790   85.0120   17.9330 C   0  0  0  0  0  2  0  0  0  0  0  0
   54.3700   83.9860   17.7700 C   0  0  0  0  0  2  0  0  0  0  0  0
   54.1120   83.0270   16.7470 N   0  0  0  0  0  4  0  0  0  0  0  0
   54.0200   83.6830   15.4560 C   0  0  0  0  0  2  0  0  0  0  0  0
   53.7910   82.6350   14.3990 C   0  0  0  0  0  2  0  0  0  0  0  0
   52.4920   82.1440   14.6060 O   0  0  0  0  0  0  0  0  0  0  0  0
   52.4710   81.5160   15.8290 C   0  0  0  0  0  2  0  0  0  0  0  0
   52.7730   82.4480   16.9740 C   0  0  0  0  0  2  0  0  0  0  0  0
   54.7980   82.2580   16.7250 H   0  0  0  0  0  0  0  0  0  0  0  0
   52.9020   88.1420   19.1270 C   0  0  0  0  0  0  0  0  0  0  0  0
   52.0490   89.0590   19.7610 C   0  0  0  0  0  3  0  0  0  0  0  0
   51.7290   90.2640   19.2030 C   0  0  0  0  0  3  0  0  0  0  0  0
   52.2380   90.6300   17.9770 C   0  0  0  0  0  0  0  0  0  0  0  0
   51.8080   92.3130   17.1690 Br  0  0  0  0  0  0  0  0  0  0  0  0
   53.0740   89.7360   17.3520 C   0  0  0  0  0  3  0  0  0  0  0  0
   53.3980   88.5060   17.9260 C   0  0  0  0  0  3  0  0  0  0  0  0
   56.1400   87.4660   22.2030 C   0  0  0  0  0  0  0  0  0  0  0  0
   57.1820   86.5930   22.1940 C   0  0  0  0  0  3  0  0  0  0  0  0
   58.0350   86.5060   23.2860 C   0  0  0  0  0  3  0  0  0  0  0  0
   57.8370   87.3020   24.3910 C   0  0  0  0  0  0  0  0  0  0  0  0
   56.7940   88.1970   24.4390 C   0  0  0  0  0  3  0  0  0  0  0  0
   58.7330   87.2370   25.5840 C   0  0  0  0  0  1  0  0  0  0  0  0
   55.9550   88.2660   23.3360 C   0  0  0  0  0  3  0  0  0  0  0  0
  1 19  1  6  0  0  0
  1  7  1  0  0  0  0
  2  1  1  0  0  0  0
  2  3  1  0  0  0  0
  3  4  2  0  0  0  0
  3  5  1  0  0  0  0
  5  6  2  0  0  0  0
  7  8  2  0  0  0  0
  7  5  1  0  0  0  0
  8 26  1  0  0  0  0
  9  8  1  0  0  0  0
 10  2  1  0  0  0  0
 11 10  1  0  0  0  0
 12 17  1  0  0  0  0
 12 11  1  0  0  0  0
 13 12  1  0  0  0  0
 14 15  1  0  0  0  0
 14 13  1  0  0  0  0
 15 16  1  0  0  0  0
 16 17  1  0  0  0  0
 18 12  1  0  0  0  0
 19 20  1  0  0  0  0
 21 20  2  0  0  0  0
 22 21  1  0  0  0  0
 23 22  1  0  0  0  0
 24 25  1  0  0  0  0
 24 22  2  0  0  0  0
 25 19  2  0  0  0  0
 26 32  1  0  0  0  0
 27 26  2  0  0  0  0
 27 28  1  0  0  0  0
 28 29  2  0  0  0  0
 29 30  1  0  0  0  0
 29 31  1  0  0  0  0
 32 30  2  0  0  0  0
M  END
>  <Pose>
1

>  <Score>
-8.529

$$$$
