/Users/jonathanwahrer/Desktop/Msc/3_Semester/Drug_Design_Praktikum/waehrer_HTS_screening/HTS_experiment/out/docking_results/vina_output/3npc/0351_docked.pdbqt
 OpenBabel03192219303D

 32 35  0  0  1  0  0  0  0  0999 V2000
   53.0860   87.1120   19.8300 C   0  0  1  0  0  3  0  0  0  0  0  0
   53.1020   85.8310   19.2230 N   0  0  0  0  0  0  0  0  0  0  0  0
   53.2050   84.9210   20.3590 C   0  0  0  0  0  0  0  0  0  0  0  0
   52.7670   83.7390   20.4060 O   0  0  0  0  0  0  0  0  0  0  0  0
   53.9100   85.6650   21.4020 C   0  0  0  0  0  0  0  0  0  0  0  0
   54.2300   85.2780   22.5560 O   0  0  0  0  0  0  0  0  0  0  0  0
   54.1860   86.9850   20.8330 C   0  0  0  0  0  0  0  0  0  0  0  0
   55.1860   87.7980   21.1240 C   0  0  0  0  0  0  0  0  0  0  0  0
   55.3380   88.9940   20.4410 O   0  0  0  0  0  1  0  0  0  0  0  0
   52.9900   85.3610   17.8390 C   0  0  0  0  0  2  0  0  0  0  0  0
   53.9200   84.2400   17.4900 C   0  0  0  0  0  2  0  0  0  0  0  0
   53.2240   83.0080   17.1910 N   0  0  0  0  0  4  0  0  0  0  0  0
   53.9060   81.8460   17.6880 C   0  0  0  0  0  2  0  0  0  0  0  0
   55.1780   81.5280   16.9590 C   0  0  0  0  0  2  0  0  0  0  0  0
   54.9910   81.4620   15.5770 O   0  0  0  0  0  0  0  0  0  0  0  0
   54.5330   82.7290   15.1840 C   0  0  0  0  0  2  0  0  0  0  0  0
   53.1360   82.8850   15.7470 C   0  0  0  0  0  2  0  0  0  0  0  0
   52.2530   82.9990   17.5570 H   0  0  0  0  0  0  0  0  0  0  0  0
   53.0360   88.3140   19.0910 C   0  0  0  0  0  0  0  0  0  0  0  0
   52.2210   89.3610   19.4170 C   0  0  0  0  0  3  0  0  0  0  0  0
   52.2230   90.5400   18.6570 C   0  0  0  0  0  3  0  0  0  0  0  0
   53.0390   90.6870   17.5590 C   0  0  0  0  0  0  0  0  0  0  0  0
   53.0780   92.2630   16.4950 Br  0  0  0  0  0  0  0  0  0  0  0  0
   53.8560   89.6390   17.2280 C   0  0  0  0  0  3  0  0  0  0  0  0
   53.8430   88.4900   17.9850 C   0  0  0  0  0  3  0  0  0  0  0  0
   56.1740   87.5220   22.1580 C   0  0  0  0  0  0  0  0  0  0  0  0
   56.0160   88.2720   23.3310 C   0  0  0  0  0  3  0  0  0  0  0  0
   56.8400   88.1050   24.4190 C   0  0  0  0  0  3  0  0  0  0  0  0
   57.8550   87.1580   24.3360 C   0  0  0  0  0  0  0  0  0  0  0  0
   58.0040   86.4240   23.1800 C   0  0  0  0  0  3  0  0  0  0  0  0
   58.8980   86.9550   25.7250 Cl  0  0  0  0  0  0  0  0  0  0  0  0
   57.1720   86.5990   22.0940 C   0  0  0  0  0  3  0  0  0  0  0  0
  1 19  1  6  0  0  0
  1  7  1  0  0  0  0
  2  1  1  0  0  0  0
  2  3  1  0  0  0  0
  3  4  2  0  0  0  0
  3  5  1  0  0  0  0
  5  6  2  0  0  0  0
  7  8  2  0  0  0  0
  7  5  1  0  0  0  0
  8 26  1  0  0  0  0
  9  8  1  0  0  0  0
 10  2  1  0  0  0  0
 11 10  1  0  0  0  0
 12 11  1  0  0  0  0
 12 18  1  0  0  0  0
 12 13  1  0  0  0  0
 14 13  1  0  0  0  0
 15 14  1  0  0  0  0
 16 15  1  0  0  0  0
 16 17  1  0  0  0  0
 17 12  1  0  0  0  0
 19 20  1  0  0  0  0
 21 20  2  0  0  0  0
 22 21  1  0  0  0  0
 23 22  1  0  0  0  0
 24 22  2  0  0  0  0
 24 25  1  0  0  0  0
 25 19  2  0  0  0  0
 26 27  1  0  0  0  0
 27 28  2  0  0  0  0
 29 28  1  0  0  0  0
 29 31  1  0  0  0  0
 30 29  2  0  0  0  0
 32 26  2  0  0  0  0
 32 30  1  0  0  0  0
M  END
>  <Pose>
1

>  <Score>
-8.557

$$$$
