/Users/jonathanwahrer/Desktop/Msc/3_Semester/Drug_Design_Praktikum/waehrer_HTS_screening/HTS_experiment/out/docking_results/vina_output/3npc/0362_docked.pdbqt
 OpenBabel03192219313D

 36 40  0  0  1  0  0  0  0  0999 V2000
   50.8380   84.0480   26.8750 C   0  0  2  0  0  3  0  0  0  0  0  0
   50.4200   82.8460   26.2860 N   0  0  0  0  0  0  0  0  0  0  0  0
   50.8520   82.9970   24.9070 C   0  0  0  0  0  0  0  0  0  0  0  0
   50.3590   82.4490   23.8630 O   0  0  0  0  0  0  0  0  0  0  0  0
   51.9890   83.9110   24.9000 C   0  0  0  0  0  0  0  0  0  0  0  0
   52.6990   84.3480   23.9390 O   0  0  0  0  0  0  0  0  0  0  0  0
   52.1900   84.2710   26.3020 C   0  0  0  0  0  0  0  0  0  0  0  0
   53.2860   84.7200   26.8850 C   0  0  0  0  0  0  0  0  0  0  0  0
   53.2650   85.0630   28.2300 O   0  0  0  0  0  1  0  0  0  0  0  0
   50.7040   84.3280   28.2700 C   0  0  0  0  0  0  0  0  0  0  0  0
   51.0910   83.4480   29.2400 C   0  0  0  0  0  3  0  0  0  0  0  0
   50.9230   83.7640   30.5710 C   0  0  0  0  0  3  0  0  0  0  0  0
   50.3660   84.9620   30.9780 C   0  0  0  0  0  0  0  0  0  0  0  0
   50.1330   85.3980   32.8210 Br  0  0  0  0  0  0  0  0  0  0  0  0
   49.9760   85.8460   29.9910 C   0  0  0  0  0  3  0  0  0  0  0  0
   50.1520   85.5130   28.6680 C   0  0  0  0  0  3  0  0  0  0  0  0
   54.5460   84.8760   26.1760 C   0  0  0  0  0  0  0  0  0  0  0  0
   55.0410   85.9880   25.6060 N   0  0  0  0  0  0  0  0  0  0  0  0
   56.2610   85.7350   25.0780 C   0  0  0  0  0  0  0  0  0  0  0  0
   54.5870   87.2650   25.4400 C   0  0  0  0  0  3  0  0  0  0  0  0
   56.5210   84.4420   25.3290 N   0  0  0  0  0  0  0  0  0  0  0  0
   56.9970   86.6980   24.4200 C   0  0  0  0  0  3  0  0  0  0  0  0
   55.5100   83.8830   25.9910 C   0  0  0  0  0  0  0  0  0  0  0  0
   55.3470   82.4880   26.4790 C   0  0  0  0  0  1  0  0  0  0  0  0
   56.5140   87.9760   24.2690 C   0  0  0  0  0  3  0  0  0  0  0  0
   55.2720   88.2500   24.7990 C   0  0  0  0  0  3  0  0  0  0  0  0
   49.7250   81.6480   26.6320 C   0  0  0  0  0  2  0  0  0  0  0  0
   48.3110   81.6050   26.9330 C   0  0  0  0  0  2  0  0  0  0  0  0
   47.8420   82.2510   28.2150 C   0  0  0  0  0  2  0  0  0  0  0  0
   47.5540   81.2520   29.2400 N   0  0  0  0  0  4  0  0  0  0  0  0
   46.3820   80.4700   28.9790 C   0  0  0  0  0  2  0  0  0  0  0  0
   45.1040   81.0630   29.4940 C   0  0  0  0  0  2  0  0  0  0  0  0
   45.2120   82.3810   29.8510 O   0  0  0  0  0  0  0  0  0  0  0  0
   46.2310   82.6740   30.7190 C   0  0  0  0  0  2  0  0  0  0  0  0
   47.4500   81.8290   30.5450 C   0  0  0  0  0  2  0  0  0  0  0  0
   48.3690   80.5890   29.2350 H   0  0  0  0  0  0  0  0  0  0  0  0
  1 10  1  1  0  0  0
  2 27  1  0  0  0  0
  2  1  1  0  0  0  0
  3  2  1  0  0  0  0
  4  3  2  0  0  0  0
  5  3  1  0  0  0  0
  5  7  1  0  0  0  0
  6  5  2  0  0  0  0
  7  1  1  0  0  0  0
  7  8  2  0  0  0  0
  8  9  1  0  0  0  0
 10 16  2  0  0  0  0
 10 11  1  0  0  0  0
 11 12  2  0  0  0  0
 12 13  1  0  0  0  0
 13 14  1  0  0  0  0
 15 13  2  0  0  0  0
 16 15  1  0  0  0  0
 17  8  1  0  0  0  0
 18 17  1  0  0  0  0
 19 21  2  0  0  0  0
 19 18  1  0  0  0  0
 20 18  1  0  0  0  0
 21 23  1  0  0  0  0
 22 19  1  0  0  0  0
 23 17  2  0  0  0  0
 23 24  1  0  0  0  0
 25 22  2  0  0  0  0
 25 26  1  0  0  0  0
 26 20  2  0  0  0  0
 27 28  1  0  0  0  0
 28 29  1  0  0  0  0
 29 30  1  0  0  0  0
 30 35  1  0  0  0  0
 31 30  1  0  0  0  0
 31 32  1  0  0  0  0
 32 33  1  0  0  0  0
 33 34  1  0  0  0  0
 35 34  1  0  0  0  0
 36 30  1  0  0  0  0
M  END
>  <Pose>
1

>  <Score>
-7.402

$$$$
