MODEL 1
REMARK VINA RESULT:    -7.402      0.000      0.000
REMARK INTER + INTRA:         -11.266
REMARK INTER:                  -9.998
REMARK INTRA:                  -1.268
REMARK UNBOUND:                -1.268
REMARK  6 active torsions:
REMARK  status: ('A' for Active; 'I' for Inactive)
REMARK    1  A    between atoms: C_5  and  C_8 
REMARK    2  A    between atoms: N_9  and  C_27 
REMARK    3  A    between atoms: C_15  and  C_17 
REMARK    4  A    between atoms: C_27  and  C_28 
REMARK    5  A    between atoms: C_28  and  C_29 
REMARK    6  A    between atoms: C_29  and  N_30 
ROOT
ATOM      1  C   UNK d   1      50.838  84.048  26.875  0.00  0.00     0.161 C 
ATOM      2  N   UNK d   1      50.420  82.846  26.286  0.00  0.00    -0.332 N 
ATOM      3  C   UNK d   1      50.852  82.997  24.907  0.00  0.00     0.295 C 
ATOM      4  O   UNK d   1      50.359  82.449  23.863  0.00  0.00    -0.264 OA
ATOM      5  C   UNK d   1      51.989  83.911  24.900  0.00  0.00     0.251 C 
ATOM      6  O   UNK d   1      52.699  84.348  23.939  0.00  0.00    -0.282 OA
ATOM      7  C   UNK d   1      52.190  84.271  26.302  0.00  0.00     0.064 C 
ATOM      8  C   UNK d   1      53.286  84.720  26.885  0.00  0.00     0.149 C 
ATOM      9  O   UNK d   1      53.265  85.063  28.230  0.00  0.00    -0.189 OA
ENDROOT
BRANCH   1  10
ATOM     10  C   UNK d   1      50.704  84.328  28.270  0.00  0.00    -0.030 A 
ATOM     11  C   UNK d   1      51.091  83.448  29.240  0.00  0.00     0.011 A 
ATOM     12  C   UNK d   1      50.923  83.764  30.571  0.00  0.00     0.019 A 
ATOM     13  C   UNK d   1      50.366  84.962  30.978  0.00  0.00     0.011 A 
ATOM     14 Br   UNK d   1      50.133  85.398  32.821  0.00  0.00    -0.051 Br
ATOM     15  C   UNK d   1      49.976  85.846  29.991  0.00  0.00     0.019 A 
ATOM     16  C   UNK d   1      50.152  85.513  28.668  0.00  0.00     0.011 A 
ENDBRANCH   1  10
BRANCH   8  17
ATOM     17  C   UNK d   1      54.546  84.876  26.176  0.00  0.00     0.102 A 
ATOM     18  N   UNK d   1      55.041  85.988  25.606  0.00  0.00    -0.302 N 
ATOM     19  C   UNK d   1      56.261  85.735  25.078  0.00  0.00     0.134 A 
ATOM     20  C   UNK d   1      54.587  87.265  25.440  0.00  0.00     0.099 A 
ATOM     21  N   UNK d   1      56.521  84.442  25.329  0.00  0.00    -0.233 NA
ATOM     22  C   UNK d   1      56.997  86.698  24.420  0.00  0.00     0.051 A 
ATOM     23  C   UNK d   1      55.510  83.883  25.991  0.00  0.00     0.063 A 
ATOM     24  C   UNK d   1      55.347  82.488  26.479  0.00  0.00     0.073 C 
ATOM     25  C   UNK d   1      56.514  87.976  24.269  0.00  0.00     0.005 A 
ATOM     26  C   UNK d   1      55.272  88.250  24.799  0.00  0.00     0.018 A 
ENDBRANCH   8  17
BRANCH   2  27
ATOM     27  C   UNK d   1      49.725  81.648  26.632  0.00  0.00     0.129 C 
BRANCH  27  28
ATOM     28  C   UNK d   1      48.311  81.605  26.933  0.00  0.00     0.048 C 
BRANCH  28  29
ATOM     29  C   UNK d   1      47.842  82.251  28.215  0.00  0.00     0.236 C 
BRANCH  29  30
ATOM     30  N   UNK d   1      47.554  81.252  29.240  0.00  0.00    -0.067 N 
ATOM     31  C   UNK d   1      46.382  80.470  28.979  0.00  0.00     0.261 C 
ATOM     32  C   UNK d   1      45.104  81.063  29.494  0.00  0.00     0.195 C 
ATOM     33  O   UNK d   1      45.212  82.381  29.851  0.00  0.00    -0.388 OA
ATOM     34  C   UNK d   1      46.231  82.674  30.719  0.00  0.00     0.195 C 
ATOM     35  C   UNK d   1      47.450  81.829  30.545  0.00  0.00     0.261 C 
ATOM     36  H   UNK d   1      48.369  80.589  29.235  0.00  0.00     0.280 HD
ENDBRANCH  29  30
ENDBRANCH  28  29
ENDBRANCH  27  28
ENDBRANCH   2  27
TORSDOF 6
ENDMDL
