MODEL 1
REMARK VINA RESULT:    -7.445      0.000      0.000
REMARK INTER + INTRA:         -10.967
REMARK INTER:                  -9.621
REMARK INTRA:                  -1.346
REMARK UNBOUND:                -1.346
REMARK  5 active torsions:
REMARK  status: ('A' for Active; 'I' for Inactive)
REMARK    1  A    between atoms: C_5  and  C_8 
REMARK    2  A    between atoms: N_9  and  C_27 
REMARK    3  A    between atoms: C_15  and  C_17 
REMARK    4  A    between atoms: C_27  and  C_28 
REMARK    5  A    between atoms: C_28  and  N_29 
ROOT
ATOM      1  C   UNK d   1      52.501  84.324  20.055  0.00  0.00     0.161 C 
ATOM      2  N   UNK d   1      53.367  83.407  19.368  0.00  0.00    -0.331 N 
ATOM      3  C   UNK d   1      53.950  82.560  20.344  0.00  0.00     0.295 C 
ATOM      4  O   UNK d   1      54.911  81.763  20.147  0.00  0.00    -0.264 OA
ATOM      5  C   UNK d   1      53.261  82.755  21.622  0.00  0.00     0.251 C 
ATOM      6  O   UNK d   1      53.493  82.179  22.713  0.00  0.00    -0.282 OA
ATOM      7  C   UNK d   1      52.234  83.756  21.394  0.00  0.00     0.064 C 
ATOM      8  C   UNK d   1      51.236  84.039  22.215  0.00  0.00     0.149 C 
ATOM      9  O   UNK d   1      50.295  84.992  21.778  0.00  0.00    -0.189 OA
ENDROOT
BRANCH   1  10
ATOM     10  C   UNK d   1      53.083  85.691  20.139  0.00  0.00    -0.030 A 
ATOM     11  C   UNK d   1      54.084  86.019  21.026  0.00  0.00     0.011 A 
ATOM     12  C   UNK d   1      54.644  87.271  21.130  0.00  0.00     0.019 A 
ATOM     13  C   UNK d   1      54.203  88.273  20.315  0.00  0.00     0.011 A 
ATOM     14 Br   UNK d   1      54.995  90.005  20.474  0.00  0.00    -0.051 Br
ATOM     15  C   UNK d   1      53.205  87.995  19.412  0.00  0.00     0.019 A 
ATOM     16  C   UNK d   1      52.655  86.738  19.322  0.00  0.00     0.011 A 
ENDBRANCH   1  10
BRANCH   8  17
ATOM     17  C   UNK d   1      51.019  83.474  23.524  0.00  0.00     0.102 A 
ATOM     18  N   UNK d   1      51.518  83.750  24.735  0.00  0.00    -0.302 N 
ATOM     19  C   UNK d   1      51.032  82.904  25.659  0.00  0.00     0.134 A 
ATOM     20  C   UNK d   1      52.374  84.711  25.145  0.00  0.00     0.099 A 
ATOM     21  N   UNK d   1      50.199  82.065  25.022  0.00  0.00    -0.233 NA
ATOM     22  C   UNK d   1      51.365  82.966  27.008  0.00  0.00     0.051 A 
ATOM     23  C   UNK d   1      50.166  82.381  23.726  0.00  0.00     0.063 A 
ATOM     24  C   UNK d   1      49.354  81.680  22.692  0.00  0.00     0.073 C 
ATOM     25  C   UNK d   1      52.232  83.941  27.417  0.00  0.00     0.005 A 
ATOM     26  C   UNK d   1      52.733  84.814  26.469  0.00  0.00     0.018 A 
ENDBRANCH   8  17
BRANCH   2  27
ATOM     27  C   UNK d   1      53.612  83.346  17.910  0.00  0.00     0.155 C 
BRANCH  27  28
ATOM     28  C   UNK d   1      52.833  82.199  17.303  0.00  0.00     0.254 C 
BRANCH  28  29
ATOM     29  N   UNK d   1      52.386  82.457  15.979  0.00  0.00    -0.077 N 
ATOM     30  C   UNK d   1      53.473  83.131  15.267  0.00  0.00     0.269 C 
ATOM     31  C   UNK d   1      51.995  81.303  15.231  0.00  0.00     0.269 C 
ATOM     32  H   UNK d   1      51.570  83.132  15.960  0.00  0.00     0.279 HD
ENDBRANCH  28  29
ENDBRANCH  27  28
ENDBRANCH   2  27
TORSDOF 5
ENDMDL
