/Users/jonathanwahrer/Desktop/Msc/3_Semester/Drug_Design_Praktikum/waehrer_HTS_screening/HTS_experiment/out/docking_results/vina_output/3npc/0364_docked.pdbqt
 OpenBabel03192219323D

 32 35  0  0  1  0  0  0  0  0999 V2000
   52.5010   84.3240   20.0550 C   0  0  1  0  0  3  0  0  0  0  0  0
   53.3670   83.4070   19.3680 N   0  0  0  0  0  0  0  0  0  0  0  0
   53.9500   82.5600   20.3440 C   0  0  0  0  0  0  0  0  0  0  0  0
   54.9110   81.7630   20.1470 O   0  0  0  0  0  0  0  0  0  0  0  0
   53.2610   82.7550   21.6220 C   0  0  0  0  0  0  0  0  0  0  0  0
   53.4930   82.1790   22.7130 O   0  0  0  0  0  0  0  0  0  0  0  0
   52.2340   83.7560   21.3940 C   0  0  0  0  0  0  0  0  0  0  0  0
   51.2360   84.0390   22.2150 C   0  0  0  0  0  0  0  0  0  0  0  0
   50.2950   84.9920   21.7780 O   0  0  0  0  0  1  0  0  0  0  0  0
   53.0830   85.6910   20.1390 C   0  0  0  0  0  0  0  0  0  0  0  0
   54.0840   86.0190   21.0260 C   0  0  0  0  0  3  0  0  0  0  0  0
   54.6440   87.2710   21.1300 C   0  0  0  0  0  3  0  0  0  0  0  0
   54.2030   88.2730   20.3150 C   0  0  0  0  0  0  0  0  0  0  0  0
   54.9950   90.0050   20.4740 Br  0  0  0  0  0  0  0  0  0  0  0  0
   53.2050   87.9950   19.4120 C   0  0  0  0  0  3  0  0  0  0  0  0
   52.6550   86.7380   19.3220 C   0  0  0  0  0  3  0  0  0  0  0  0
   51.0190   83.4740   23.5240 C   0  0  0  0  0  0  0  0  0  0  0  0
   51.5180   83.7500   24.7350 N   0  0  0  0  0  0  0  0  0  0  0  0
   51.0320   82.9040   25.6590 C   0  0  0  0  0  0  0  0  0  0  0  0
   52.3740   84.7110   25.1450 C   0  0  0  0  0  3  0  0  0  0  0  0
   50.1990   82.0650   25.0220 N   0  0  0  0  0  0  0  0  0  0  0  0
   51.3650   82.9660   27.0080 C   0  0  0  0  0  3  0  0  0  0  0  0
   50.1660   82.3810   23.7260 C   0  0  0  0  0  0  0  0  0  0  0  0
   49.3540   81.6800   22.6920 C   0  0  0  0  0  1  0  0  0  0  0  0
   52.2320   83.9410   27.4170 C   0  0  0  0  0  3  0  0  0  0  0  0
   52.7330   84.8140   26.4690 C   0  0  0  0  0  3  0  0  0  0  0  0
   53.6120   83.3460   17.9100 C   0  0  0  0  0  2  0  0  0  0  0  0
   52.8330   82.1990   17.3030 C   0  0  0  0  0  2  0  0  0  0  0  0
   52.3860   82.4570   15.9790 N   0  0  0  0  0  4  0  0  0  0  0  0
   53.4730   83.1310   15.2670 C   0  0  0  0  0  1  0  0  0  0  0  0
   51.9950   81.3030   15.2310 C   0  0  0  0  0  1  0  0  0  0  0  0
   51.5700   83.1320   15.9600 H   0  0  0  0  0  0  0  0  0  0  0  0
  1 10  1  1  0  0  0
  1  7  1  0  0  0  0
  2  1  1  0  0  0  0
  2  3  1  0  0  0  0
  3  5  1  0  0  0  0
  4  3  2  0  0  0  0
  5  6  2  0  0  0  0
  7  5  1  0  0  0  0
  7  8  2  0  0  0  0
  8 17  1  0  0  0  0
  9  8  1  0  0  0  0
 10 11  1  0  0  0  0
 11 12  2  0  0  0  0
 13 14  1  0  0  0  0
 13 12  1  0  0  0  0
 15 13  2  0  0  0  0
 16 15  1  0  0  0  0
 16 10  2  0  0  0  0
 17 23  2  0  0  0  0
 17 18  1  0  0  0  0
 18 20  1  0  0  0  0
 18 19  1  0  0  0  0
 19 22  1  0  0  0  0
 20 26  2  0  0  0  0
 21 19  2  0  0  0  0
 22 25  2  0  0  0  0
 23 21  1  0  0  0  0
 24 23  1  0  0  0  0
 26 25  1  0  0  0  0
 27  2  1  0  0  0  0
 28 27  1  0  0  0  0
 29 28  1  0  0  0  0
 30 29  1  0  0  0  0
 31 29  1  0  0  0  0
 32 29  1  0  0  0  0
M  END
>  <Pose>
1

>  <Score>
-7.445

$$$$
