MODEL 1
REMARK VINA RESULT:   -10.423      0.000      0.000
REMARK INTER + INTRA:         -13.712
REMARK INTER:                 -12.860
REMARK INTRA:                  -0.852
REMARK UNBOUND:                -0.852
REMARK  4 active torsions:
REMARK  status: ('A' for Active; 'I' for Inactive)
REMARK    1  A    between atoms: C_5  and  N_8 
REMARK       I    between atoms: N_8  and  C_9 
REMARK    2  A    between atoms: C_9  and  C_11 
REMARK    3  A    between atoms: C_11  and  N_12 
REMARK    4  A    between atoms: N_19  and  C_22 
ROOT
ATOM      1  N   UNK d   1      55.857  94.420  24.973  0.00  0.00    -0.261 N 
ATOM      2  N   UNK d   1      57.091  94.822  24.666  0.00  0.00    -0.239 N 
ATOM      3  N   UNK d   1      57.274  96.046  25.105  0.00  0.00    -0.279 N 
ATOM      4  C   UNK d   1      56.136  96.457  25.715  0.00  0.00     0.152 A 
ATOM      5  C   UNK d   1      55.271  95.440  25.624  0.00  0.00     0.155 A 
ATOM      6  C   UNK d   1      54.131  95.897  26.253  0.00  0.00     0.286 A 
ATOM      7  O   UNK d   1      53.084  95.192  26.363  0.00  0.00    -0.265 OA
ATOM      8  N   UNK d   1      54.279  97.147  26.718  0.00  0.00    -0.241 N 
ATOM      9  C   UNK d   1      55.549  97.508  26.379  0.00  0.00     0.286 A 
ATOM     10  O   UNK d   1      56.037  98.637  26.660  0.00  0.00    -0.265 OA
ATOM     11  H   UNK d   1      57.772  94.223  24.156  0.00  0.00     0.208 HD
ATOM     12  H   UNK d   1      58.130  96.648  25.026  0.00  0.00     0.189 HD
ENDROOT
BRANCH   1  13
ATOM     13  C   UNK d   1      55.310  93.120  24.639  0.00  0.00     0.254 C 
BRANCH  13  14
ATOM     14  C   UNK d   1      55.324  92.964  23.128  0.00  0.00     0.242 C 
ATOM     15  N   UNK d   1      54.949  91.745  22.548  0.00  0.00    -0.326 N 
ATOM     16  H   UNK d   1      54.663  90.942  23.192  0.00  0.00     0.169 HD
ATOM     17  O   UNK d   1      55.675  93.933  22.423  0.00  0.00    -0.271 OA
BRANCH  15  18
ATOM     18  C   UNK d   1      54.908  91.461  21.163  0.00  0.00     0.034 A 
ATOM     19  C   UNK d   1      55.830  90.702  20.475  0.00  0.00     0.031 A 
ATOM     20  C   UNK d   1      55.729  90.431  19.117  0.00  0.00     0.021 A 
ATOM     21  C   UNK d   1      54.677  90.923  18.388  0.00  0.00     0.011 A 
ATOM     22 Br   UNK d   1      54.475  90.590  16.527  0.00  0.00    -0.051 Br
ATOM     23  C   UNK d   1      53.742  91.685  19.054  0.00  0.00     0.021 A 
ATOM     24  C   UNK d   1      53.843  91.949  20.383  0.00  0.00     0.031 A 
ENDBRANCH  15  18
ENDBRANCH  13  14
ENDBRANCH   1  13
BRANCH   8  25
ATOM     25  C   UNK d   1      53.333  97.963  27.424  0.00  0.00     0.046 A 
ATOM     26  C   UNK d   1      52.680  99.000  26.793  0.00  0.00     0.031 A 
ATOM     27  C   UNK d   1      51.761  99.782  27.463  0.00  0.00     0.009 A 
ATOM     28  C   UNK d   1      51.449  99.571  28.793  0.00  0.00    -0.062 A 
ATOM     29  C   UNK d   1      52.101  98.535  29.428  0.00  0.00     0.009 A 
ATOM     30  C   UNK d   1      50.450 100.431  29.484  0.00  0.00     0.048 C 
ATOM     31  C   UNK d   1      53.022  97.752  28.751  0.00  0.00     0.031 A 
ENDBRANCH   8  25
TORSDOF 4
ENDMDL
