/Users/jonathanwahrer/Desktop/Msc/3_Semester/Drug_Design_Praktikum/waehrer_HTS_screening/HTS_experiment/out/docking_results/vina_output/3npc/0382_docked.pdbqt
 OpenBabel03192219323D

 31 34  0  0  0  0  0  0  0  0999 V2000
   55.8570   94.4200   24.9730 N   0  0  0  0  0  0  0  0  0  0  0  0
   57.0910   94.8220   24.6660 N   0  0  0  0  0  0  0  0  0  0  0  0
   57.2740   96.0460   25.1050 N   0  0  0  0  0  0  0  0  0  0  0  0
   56.1360   96.4570   25.7150 C   0  0  0  0  0  0  0  0  0  0  0  0
   55.2710   95.4400   25.6240 C   0  0  0  0  0  0  0  0  0  0  0  0
   54.1310   95.8970   26.2530 C   0  0  0  0  0  0  0  0  0  0  0  0
   53.0840   95.1920   26.3630 O   0  0  0  0  0  0  0  0  0  0  0  0
   54.2790   97.1470   26.7180 N   0  0  0  0  0  0  0  0  0  0  0  0
   55.5490   97.5080   26.3790 C   0  0  0  0  0  0  0  0  0  0  0  0
   56.0370   98.6370   26.6600 O   0  0  0  0  0  0  0  0  0  0  0  0
   57.7720   94.2230   24.1560 H   0  0  0  0  0  0  0  0  0  0  0  0
   58.1300   96.6480   25.0260 H   0  0  0  0  0  0  0  0  0  0  0  0
   55.3100   93.1200   24.6390 C   0  0  0  0  0  2  0  0  0  0  0  0
   55.3240   92.9640   23.1280 C   0  0  0  0  0  0  0  0  0  0  0  0
   54.9490   91.7450   22.5480 N   0  0  0  0  0  0  0  0  0  0  0  0
   54.6630   90.9420   23.1920 H   0  0  0  0  0  0  0  0  0  0  0  0
   55.6750   93.9330   22.4230 O   0  0  0  0  0  0  0  0  0  0  0  0
   54.9080   91.4610   21.1630 C   0  0  0  0  0  0  0  0  0  0  0  0
   55.8300   90.7020   20.4750 C   0  0  0  0  0  3  0  0  0  0  0  0
   55.7290   90.4310   19.1170 C   0  0  0  0  0  3  0  0  0  0  0  0
   54.6770   90.9230   18.3880 C   0  0  0  0  0  0  0  0  0  0  0  0
   54.4750   90.5900   16.5270 Br  0  0  0  0  0  0  0  0  0  0  0  0
   53.7420   91.6850   19.0540 C   0  0  0  0  0  3  0  0  0  0  0  0
   53.8430   91.9490   20.3830 C   0  0  0  0  0  3  0  0  0  0  0  0
   53.3330   97.9630   27.4240 C   0  0  0  0  0  0  0  0  0  0  0  0
   52.6800   99.0000   26.7930 C   0  0  0  0  0  3  0  0  0  0  0  0
   51.7610   99.7820   27.4630 C   0  0  0  0  0  3  0  0  0  0  0  0
   51.4490   99.5710   28.7930 C   0  0  0  0  0  0  0  0  0  0  0  0
   52.1010   98.5350   29.4280 C   0  0  0  0  0  3  0  0  0  0  0  0
   50.4500  100.4310   29.4840 C   0  0  0  0  0  1  0  0  0  0  0  0
   53.0220   97.7520   28.7510 C   0  0  0  0  0  3  0  0  0  0  0  0
  1  5  1  0  0  0  0
  2  1  1  0  0  0  0
  2  3  1  0  0  0  0
  3  4  1  0  0  0  0
  4  9  1  0  0  0  0
  5  4  2  0  0  0  0
  5  6  1  0  0  0  0
  6  7  2  0  0  0  0
  6  8  1  0  0  0  0
  8 25  1  0  0  0  0
  9 10  2  0  0  0  0
  9  8  1  0  0  0  0
 11  2  1  0  0  0  0
 12  3  1  0  0  0  0
 13  1  1  0  0  0  0
 14 13  1  0  0  0  0
 15 14  1  0  0  0  0
 15 16  1  0  0  0  0
 17 14  2  0  0  0  0
 18 15  1  0  0  0  0
 19 18  1  0  0  0  0
 20 19  2  0  0  0  0
 21 23  2  0  0  0  0
 21 20  1  0  0  0  0
 22 21  1  0  0  0  0
 23 24  1  0  0  0  0
 24 18  2  0  0  0  0
 25 31  1  0  0  0  0
 26 25  2  0  0  0  0
 26 27  1  0  0  0  0
 27 28  2  0  0  0  0
 28 29  1  0  0  0  0
 28 30  1  0  0  0  0
 31 29  2  0  0  0  0
M  END
>  <Pose>
1

>  <Score>
-10.423

$$$$
