MODEL 1
REMARK VINA RESULT:    -9.400      0.000      0.000
REMARK INTER + INTRA:         -12.322
REMARK INTER:                 -11.323
REMARK INTRA:                  -0.999
REMARK UNBOUND:                -0.999
REMARK  4 active torsions:
REMARK  status: ('A' for Active; 'I' for Inactive)
REMARK    1  A    between atoms: C_5  and  N_8 
REMARK       I    between atoms: N_8  and  C_9 
REMARK    2  A    between atoms: C_9  and  C_11 
REMARK    3  A    between atoms: C_18  and  N_23 
REMARK    4  A    between atoms: C_20  and  N_22 
ROOT
ATOM      1  C   UNK d   1      47.498 101.219  28.822  0.00  0.00     0.127 C 
ATOM      2  C   UNK d   1      48.238 101.502  27.549  0.00  0.00     0.122 C 
ATOM      3  C   UNK d   1      49.627 101.942  27.735  0.00  0.00     0.224 C 
ATOM      4  O   UNK d   1      50.465 101.647  26.839  0.00  0.00    -0.273 OA
ATOM      5  N   UNK d   1      49.996 102.671  28.892  0.00  0.00    -0.310 N 
ATOM      6  C   UNK d   1      49.138 102.698  30.013  0.00  0.00     0.160 A 
ATOM      7  N   UNK d   1      49.509 103.421  31.115  0.00  0.00    -0.044 NA
ATOM      8  C   UNK d   1      48.741 103.501  32.204  0.00  0.00     0.728 A 
ATOM      9  N   UNK d   1      47.575 102.842  32.192  0.00  0.00    -0.045 NA
ATOM     10  C   UNK d   1      47.159 102.106  31.121  0.00  0.00     0.151 A 
ATOM     11  C   UNK d   1      47.934 102.008  29.982  0.00  0.00     0.048 A 
ATOM     12  H   UNK d   1      50.910 103.207  28.945  0.00  0.00     0.170 HD
ENDROOT
BRANCH   1  13
ATOM     13  C   UNK d   1      47.669  99.704  29.061  0.00  0.00     0.231 C 
ATOM     14  N   UNK d   1      48.853  99.141  28.890  0.00  0.00    -0.327 N 
ATOM     15  H   UNK d   1      48.296  97.909  29.053  0.00  0.00     0.169 HD
ATOM     16  O   UNK d   1      46.533  99.192  29.416  0.00  0.00    -0.272 OA
BRANCH  14  17
ATOM     17  C   UNK d   1      50.082  98.556  28.712  0.00  0.00     0.034 A 
ATOM     18  C   UNK d   1      50.147  97.494  27.755  0.00  0.00     0.031 A 
ATOM     19  C   UNK d   1      51.313  96.894  27.444  0.00  0.00     0.021 A 
ATOM     20  C   UNK d   1      52.495  97.272  28.033  0.00  0.00     0.011 A 
ATOM     21 Br   UNK d   1      54.148  96.410  27.573  0.00  0.00    -0.051 Br
ATOM     22  C   UNK d   1      52.475  98.289  28.961  0.00  0.00     0.021 A 
ATOM     23  C   UNK d   1      51.289  98.903  29.278  0.00  0.00     0.031 A 
ENDBRANCH  14  17
ENDBRANCH   1  13
BRANCH  10  24
ATOM     24  N   UNK d   1      45.916 101.413  31.162  0.00  0.00    -0.383 N 
ATOM     25  H   UNK d   1      45.055 101.778  30.743  0.00  0.00     0.157 HD
ATOM     26  H   UNK d   1      45.878 100.483  31.652  0.00  0.00     0.157 HD
ENDBRANCH  10  24
BRANCH   8  27
ATOM     27  N   UNK d   1      49.156 104.269  33.357  0.00  0.00    -0.210 N 
ATOM     28  C   UNK d   1      48.236 104.363  34.437  0.00  0.00     0.167 C 
ATOM     29  C   UNK d   1      48.856 104.765  35.744  0.00  0.00     0.188 C 
ATOM     30  O   UNK d   1      50.239 104.880  35.664  0.00  0.00    -0.388 OA
ATOM     31  C   UNK d   1      50.631 105.682  34.600  0.00  0.00     0.188 C 
ATOM     32  C   UNK d   1      50.469 104.879  33.335  0.00  0.00     0.167 C 
ENDBRANCH   8  27
TORSDOF 4
ENDMDL
