MODEL 1
REMARK VINA RESULT:    -9.378      0.000      0.000
REMARK INTER + INTRA:         -13.065
REMARK INTER:                 -11.845
REMARK INTRA:                  -1.220
REMARK UNBOUND:                -1.220
REMARK  5 active torsions:
REMARK  status: ('A' for Active; 'I' for Inactive)
REMARK    1  A    between atoms: C_5  and  N_8 
REMARK    2  A    between atoms: C_9  and  C_11 
REMARK    3  A    between atoms: C_18  and  N_23 
REMARK    4  A    between atoms: C_20  and  O_22 
REMARK    5  A    between atoms: C_26  and  C_29 
REMARK       I    between atoms: C_29  and  N_31 
ROOT
ATOM      1  C   UNK d   1      53.688  84.803  20.507  0.00  0.00     0.113 C 
ATOM      2  C   UNK d   1      53.785  84.897  22.019  0.00  0.00     0.121 C 
ATOM      3  C   UNK d   1      54.747  85.994  22.346  0.00  0.00     0.224 C 
ATOM      4  O   UNK d   1      55.646  85.816  23.148  0.00  0.00    -0.273 OA
ATOM      5  N   UNK d   1      54.549  87.216  21.688  0.00  0.00    -0.310 N 
ATOM      6  C   UNK d   1      53.823  87.276  20.476  0.00  0.00     0.160 A 
ATOM      7  N   UNK d   1      53.542  88.455  19.884  0.00  0.00    -0.044 NA
ATOM      8  C   UNK d   1      52.790  88.611  18.794  0.00  0.00     0.729 A 
ATOM      9  N   UNK d   1      52.287  87.462  18.274  0.00  0.00    -0.038 NA
ATOM     10  C   UNK d   1      52.530  86.240  18.814  0.00  0.00     0.192 A 
ATOM     11  C   UNK d   1      53.303  86.082  19.924  0.00  0.00     0.054 A 
ATOM     12  H   UNK d   1      54.919  88.132  22.058  0.00  0.00     0.170 HD
ENDROOT
BRANCH   1  13
ATOM     13  C   UNK d   1      53.056  83.548  20.017  0.00  0.00     0.165 C 
ATOM     14  N   UNK d   1      53.560  82.840  18.988  0.00  0.00    -0.338 N 
ATOM     15  H   UNK d   1      52.653  81.867  19.200  0.00  0.00     0.168 HD
ATOM     16  O   UNK d   1      51.997  83.283  20.733  0.00  0.00    -0.176 OA
BRANCH  14  17
ATOM     17  C   UNK d   1      54.073  82.119  17.939  0.00  0.00     0.033 A 
ATOM     18  C   UNK d   1      53.106  81.763  16.944  0.00  0.00     0.031 A 
ATOM     19  C   UNK d   1      53.523  80.991  15.911  0.00  0.00     0.021 A 
ATOM     20  C   UNK d   1      54.824  80.539  15.775  0.00  0.00     0.011 A 
ATOM     21 Br   UNK d   1      55.296  79.465  14.290  0.00  0.00    -0.051 Br
ATOM     22  C   UNK d   1      55.757  80.870  16.715  0.00  0.00     0.021 A 
ATOM     23  C   UNK d   1      55.356  81.654  17.774  0.00  0.00     0.031 A 
ENDBRANCH  14  17
ENDBRANCH   1  13
BRANCH  10  24
ATOM     24  O   UNK d   1      51.972  85.113  18.218  0.00  0.00    -0.344 OA
ATOM     25  H   UNK d   1      51.733  84.278  18.749  0.00  0.00     0.219 HD
ENDBRANCH  10  24
BRANCH   8  26
ATOM     26  N   UNK d   1      52.551  89.855  18.164  0.00  0.00    -0.214 N 
ATOM     27  C   UNK d   1      51.574  90.839  18.548  0.00  0.00     0.142 C 
ATOM     28  C   UNK d   1      52.189  92.223  18.360  0.00  0.00     0.034 C 
ATOM     29  C   UNK d   1      53.679  92.211  18.539  0.00  0.00     0.081 C 
ATOM     30  C   UNK d   1      54.340  91.302  17.563  0.00  0.00     0.034 C 
ATOM     31  C   UNK d   1      53.373  90.231  17.008  0.00  0.00     0.142 C 
BRANCH  29  32
ATOM     32  C   UNK d   1      54.067  91.935  19.942  0.00  0.00     0.219 C 
ATOM     33  O   UNK d   1      53.434  92.520  20.845  0.00  0.00    -0.273 OA
ATOM     34  N   UNK d   1      55.111  91.058  20.312  0.00  0.00    -0.370 N 
ATOM     35  H   UNK d   1      55.320  90.186  19.792  0.00  0.00     0.159 HD
ATOM     36  H   UNK d   1      55.694  91.297  21.141  0.00  0.00     0.159 HD
ENDBRANCH  29  32
ENDBRANCH   8  26
TORSDOF 5
ENDMDL
