MODEL 1
REMARK VINA RESULT:    -6.663      0.000      0.000
REMARK INTER + INTRA:          -8.982
REMARK INTER:                  -7.831
REMARK INTRA:                  -1.151
REMARK UNBOUND:                -1.151
REMARK  3 active torsions:
REMARK  status: ('A' for Active; 'I' for Inactive)
REMARK    1  A    between atoms: C_5  and  N_8 
REMARK    2  A    between atoms: C_11  and  C_18 
REMARK    3  A    between atoms: C_12  and  N_13 
REMARK       I    between atoms: C_18  and  N_20 
ROOT
ATOM      1  N   UNK d   1      53.843  84.960  21.825  0.00  0.00    -0.216 N 
ATOM      2  N   UNK d   1      54.665  85.828  22.360  0.00  0.00    -0.177 NA
ATOM      3  C   UNK d   1      54.505  85.936  23.694  0.00  0.00     0.160 A 
ATOM      4  C   UNK d   1      53.501  85.066  24.021  0.00  0.00     0.097 A 
ATOM      5  C   UNK d   1      53.105  84.470  22.843  0.00  0.00     0.153 A 
ENDROOT
BRANCH   4   6
ATOM      6  C   UNK d   1      52.984  84.846  25.367  0.00  0.00     0.259 C 
ATOM      7  O   UNK d   1      51.911  85.427  25.656  0.00  0.00    -0.267 OA
ATOM      8  N   UNK d   1      53.626  84.031  26.324  0.00  0.00    -0.338 N 
ATOM      9  C   UNK d   1      53.029  83.880  27.629  0.00  0.00     0.146 C 
ATOM     10  C   UNK d   1      54.863  83.313  26.111  0.00  0.00     0.228 C 
ATOM     11  C   UNK d   1      52.579  82.456  27.770  0.00  0.00     0.142 C 
ATOM     12  N   UNK d   1      53.275  81.564  26.850  0.00  0.00    -0.358 N 
ATOM     13  C   UNK d   1      54.548  81.877  26.295  0.00  0.00     0.235 C 
ATOM     14  H   UNK d   1      52.794  80.649  26.597  0.00  0.00     0.162 HD
ATOM     15  O   UNK d   1      55.340  80.953  25.988  0.00  0.00    -0.272 OA
ENDBRANCH   4   6
BRANCH   5  16
ATOM     16  N   UNK d   1      52.065  83.476  22.699  0.00  0.00    -0.317 N 
ATOM     17  C   UNK d   1      52.139  82.171  22.918  0.00  0.00     0.098 A 
ATOM     18  C   UNK d   1      50.927  81.571  22.665  0.00  0.00     0.019 A 
ATOM     19  C   UNK d   1      50.092  82.589  22.272  0.00  0.00     0.019 A 
ATOM     20  C   UNK d   1      50.815  83.760  22.300  0.00  0.00     0.098 A 
ENDBRANCH   5  16
BRANCH   1  21
ATOM     21  C   UNK d   1      53.771  84.624  20.437  0.00  0.00     0.060 A 
ATOM     22  C   UNK d   1      54.269  83.433  19.944  0.00  0.00     0.033 A 
ATOM     23  C   UNK d   1      54.212  83.087  18.610  0.00  0.00     0.021 A 
ATOM     24  C   UNK d   1      53.637  83.953  17.703  0.00  0.00     0.011 A 
ATOM     25 Br   UNK d   1      53.546  83.496  15.848  0.00  0.00    -0.051 Br
ATOM     26  C   UNK d   1      53.135  85.151  18.178  0.00  0.00     0.021 A 
ATOM     27  C   UNK d   1      53.199  85.483  19.516  0.00  0.00     0.033 A 
ENDBRANCH   1  21
TORSDOF 3
ENDMDL
