MODEL 1
REMARK VINA RESULT:    -9.714      0.000      0.000
REMARK INTER + INTRA:         -11.703
REMARK INTER:                 -11.418
REMARK INTRA:                  -0.286
REMARK UNBOUND:                -0.286
REMARK  3 active torsions:
REMARK  status: ('A' for Active; 'I' for Inactive)
REMARK    1  A    between atoms: C_5  and  N_8 
REMARK    2  A    between atoms: N_15  and  C_18 
REMARK    3  A    between atoms: C_18  and  C_19 
REMARK       I    between atoms: C_19  and  N_21 
ROOT
ATOM      1  N   UNK d   1      49.771 101.519  28.738  0.00  0.00    -0.218 N 
ATOM      2  N   UNK d   1      50.028 102.083  27.571  0.00  0.00     0.012 NA
ATOM      3  N   UNK d   1      50.995 101.449  26.930  0.00  0.00    -0.150 NA
ATOM      4  C   UNK d   1      51.415 100.408  27.697  0.00  0.00     0.190 A 
ATOM      5  C   UNK d   1      50.623 100.482  28.829  0.00  0.00     0.185 A 
ATOM      6  N   UNK d   1      50.826  99.557  29.774  0.00  0.00    -0.222 NA
ATOM      7  C   UNK d   1      51.762  98.605  29.617  0.00  0.00     0.215 A 
ATOM      8  N   UNK d   1      52.541  98.526  28.514  0.00  0.00    -0.298 N 
ATOM      9  C   UNK d   1      52.370  99.432  27.544  0.00  0.00     0.283 A 
ATOM     10  O   UNK d   1      53.089  99.362  26.523  0.00  0.00    -0.265 OA
ENDROOT
BRANCH   8  11
ATOM     11  C   UNK d   1      53.525  97.462  28.437  0.00  0.00     0.236 C 
BRANCH  11  12
ATOM     12  C   UNK d   1      53.230  96.566  27.261  0.00  0.00     0.238 C 
ATOM     13  O   UNK d   1      52.087  96.057  27.113  0.00  0.00    -0.272 OA
ATOM     14  N   UNK d   1      54.228  96.278  26.301  0.00  0.00    -0.346 N 
ATOM     15  C   UNK d   1      53.957  95.421  25.171  0.00  0.00     0.157 C 
ATOM     16  C   UNK d   1      55.551  96.841  26.435  0.00  0.00     0.157 C 
ATOM     17  C   UNK d   1      55.136  94.471  25.046  0.00  0.00     0.136 C 
ATOM     18  O   UNK d   1      56.346  95.108  24.949  0.00  0.00    -0.378 OA
ATOM     19  C   UNK d   1      54.926  93.703  23.737  0.00  0.00     0.041 C 
ATOM     20  C   UNK d   1      56.309  96.461  25.179  0.00  0.00     0.136 C 
ATOM     21  C   UNK d   1      57.664  97.104  25.194  0.00  0.00     0.041 C 
ENDBRANCH  11  12
ENDBRANCH   8  11
BRANCH   1  22
ATOM     22  C   UNK d   1      48.802 101.909  29.715  0.00  0.00     0.057 A 
ATOM     23  C   UNK d   1      49.185 102.641  30.819  0.00  0.00     0.032 A 
ATOM     24  C   UNK d   1      48.250 103.023  31.770  0.00  0.00     0.021 A 
ATOM     25  C   UNK d   1      46.916 102.694  31.657  0.00  0.00     0.011 A 
ATOM     26 Br   UNK d   1      45.645 103.234  32.984  0.00  0.00    -0.051 Br
ATOM     27  C   UNK d   1      46.533 101.962  30.553  0.00  0.00     0.021 A 
ATOM     28  C   UNK d   1      47.465 101.583  29.609  0.00  0.00     0.032 A 
ENDBRANCH   1  22
TORSDOF 3
ENDMDL
