MODEL 1
REMARK VINA RESULT:    -8.176      0.000      0.000
REMARK INTER + INTRA:         -10.265
REMARK INTER:                  -9.609
REMARK INTRA:                  -0.655
REMARK UNBOUND:                -0.655
REMARK  3 active torsions:
REMARK  status: ('A' for Active; 'I' for Inactive)
REMARK    1  A    between atoms: C_5  and  N_8 
REMARK    2  A    between atoms: C_11  and  N_15 
REMARK    3  A    between atoms: N_18  and  C_21 
ROOT
ATOM      1  N   UNK d   1      54.159  81.943  16.015  0.00  0.00    -0.251 N 
ATOM      2  C   UNK d   1      54.580  83.254  16.379  0.00  0.00     0.262 C 
ATOM      3  O   UNK d   1      54.803  84.184  15.575  0.00  0.00    -0.270 OA
ATOM      4  C   UNK d   1      54.723  83.382  17.837  0.00  0.00     0.289 C 
ATOM      5  C   UNK d   1      54.942  81.935  18.264  0.00  0.00     0.146 C 
ATOM      6  C   UNK d   1      54.167  81.175  17.234  0.00  0.00     0.233 C 
ATOM      7  O   UNK d   1      53.657  80.070  17.499  0.00  0.00    -0.273 OA
ENDROOT
BRANCH   4   8
ATOM      8  N   UNK d   1      53.579  83.940  18.522  0.00  0.00    -0.055 N 
ATOM      9  C   UNK d   1      53.678  83.810  19.956  0.00  0.00     0.255 C 
ATOM     10  C   UNK d   1      54.183  85.050  20.661  0.00  0.00     0.150 C 
ATOM     11  N   UNK d   1      53.612  86.245  20.095  0.00  0.00    -0.378 N 
ATOM     12  C   UNK d   1      52.527  86.010  19.172  0.00  0.00     0.150 C 
ATOM     13  C   UNK d   1      53.177  85.207  18.029  0.00  0.00     0.255 C 
ATOM     14  H   UNK d   1      52.782  83.264  18.266  0.00  0.00     0.281 HD
BRANCH  11  15
ATOM     15  C   UNK d   1      54.063  87.538  20.382  0.00  0.00     0.030 A 
ATOM     16  C   UNK d   1      53.743  88.675  19.668  0.00  0.00     0.032 A 
ATOM     17  C   UNK d   1      54.239  89.930  19.982  0.00  0.00     0.042 A 
ATOM     18  C   UNK d   1      55.089  90.086  21.043  0.00  0.00     0.107 A 
ATOM     19  C   UNK d   1      55.444  88.982  21.792  0.00  0.00     0.042 A 
ATOM     20  O   UNK d   1      55.623  91.321  21.413  0.00  0.00    -0.192 OA
ATOM     21  C   UNK d   1      54.935  87.739  21.459  0.00  0.00     0.032 A 
ENDBRANCH  11  15
ENDBRANCH   4   8
BRANCH   1  22
ATOM     22  C   UNK d   1      53.789  81.441  14.729  0.00  0.00     0.045 A 
ATOM     23  C   UNK d   1      54.719  80.954  13.857  0.00  0.00     0.031 A 
ATOM     24  C   UNK d   1      54.352  80.464  12.599  0.00  0.00     0.021 A 
ATOM     25  C   UNK d   1      53.046  80.453  12.191  0.00  0.00     0.011 A 
ATOM     26 Br   UNK d   1      52.535  79.784  10.471  0.00  0.00    -0.051 Br
ATOM     27  C   UNK d   1      52.106  80.941  13.068  0.00  0.00     0.021 A 
ATOM     28  C   UNK d   1      52.485  81.431  14.328  0.00  0.00     0.031 A 
ENDBRANCH   1  22
TORSDOF 3
ENDMDL
