MODEL 1
REMARK VINA RESULT:    -8.042      0.000      0.000
REMARK INTER + INTRA:         -11.198
REMARK INTER:                  -9.923
REMARK INTRA:                  -1.276
REMARK UNBOUND:                -1.276
REMARK  4 active torsions:
REMARK  status: ('A' for Active; 'I' for Inactive)
REMARK    1  A    between atoms: C_5  and  N_8 
REMARK    2  A    between atoms: C_11  and  N_15 
REMARK    3  A    between atoms: C_18  and  N_21 
REMARK    4  A    between atoms: C_18  and  C_27 
REMARK       I    between atoms: C_27  and  N_29 
ROOT
ATOM      1  N   UNK d   1      48.296 101.286  30.126  0.00  0.00    -0.399 N 
ATOM      2  C   UNK d   1      47.247 101.987  30.750  0.00  0.00     0.120 C 
ATOM      3  C   UNK d   1      47.707 102.408  32.153  0.00  0.00     0.060 C 
ATOM      4  C   UNK d   1      48.810 103.441  32.079  0.00  0.00     0.112 C 
ATOM      5  C   UNK d   1      49.752 103.083  31.002  0.00  0.00     0.060 C 
ATOM      6  C   UNK d   1      49.591 101.650  30.560  0.00  0.00     0.120 C 
ENDROOT
BRANCH   1   7
ATOM      7  C   UNK d   1      48.162 100.895  28.782  0.00  0.00     0.181 C 
ATOM      8  C   UNK d   1      48.763  99.550  28.589  0.00  0.00     0.254 C 
ATOM      9  N   UNK d   1      49.936  99.710  27.784  0.00  0.00    -0.251 N 
ATOM     10  O   UNK d   1      48.297  98.485  29.063  0.00  0.00    -0.270 OA
ATOM     11  C   UNK d   1      49.706 100.889  27.023  0.00  0.00     0.233 C 
ATOM     12  C   UNK d   1      48.842 101.819  27.797  0.00  0.00     0.138 C 
ATOM     13  O   UNK d   1      50.182 101.096  25.851  0.00  0.00    -0.273 OA
BRANCH   9  14
ATOM     14  C   UNK d   1      51.082  98.856  27.763  0.00  0.00     0.045 A 
ATOM     15  C   UNK d   1      52.331  99.381  27.966  0.00  0.00     0.031 A 
ATOM     16  C   UNK d   1      53.465  98.560  27.950  0.00  0.00     0.021 A 
ATOM     17  C   UNK d   1      53.375  97.204  27.732  0.00  0.00     0.011 A 
ATOM     18 Br   UNK d   1      54.917  96.074  27.708  0.00  0.00    -0.051 Br
ATOM     19  C   UNK d   1      52.119  96.676  27.529  0.00  0.00     0.021 A 
ATOM     20  C   UNK d   1      51.004  97.498  27.547  0.00  0.00     0.031 A 
ENDBRANCH   9  14
ENDBRANCH   1   7
BRANCH   4  21
ATOM     21  N   UNK d   1      48.222 104.714  32.011  0.00  0.00    -0.396 N 
ATOM     22  C   UNK d   1      48.613 105.586  30.985  0.00  0.00     0.118 C 
ATOM     23  C   UNK d   1      49.078 106.888  31.661  0.00  0.00     0.019 C 
ATOM     24  C   UNK d   1      47.843 107.472  32.318  0.00  0.00     0.003 C 
ATOM     25  C   UNK d   1      46.728 106.492  32.466  0.00  0.00     0.019 C 
ATOM     26  C   UNK d   1      47.214 105.094  32.877  0.00  0.00     0.118 C 
ENDBRANCH   4  21
BRANCH   4  27
ATOM     27  C   UNK d   1      49.537 103.341  33.395  0.00  0.00     0.243 C 
ATOM     28  O   UNK d   1      50.513 104.114  33.636  0.00  0.00    -0.271 OA
ATOM     29  N   UNK d   1      49.181 102.412  34.400  0.00  0.00    -0.368 N 
ATOM     30  H   UNK d   1      49.854 101.690  34.686  0.00  0.00     0.159 HD
ATOM     31  H   UNK d   1      48.250 102.449  34.857  0.00  0.00     0.159 HD
ENDBRANCH   4  27
TORSDOF 4
ENDMDL
