/Users/jonathanwahrer/Desktop/Msc/3_Semester/Drug_Design_Praktikum/waehrer_HTS_screening/HTS_experiment/out/docking_results/vina_output/3npc/0408_docked.pdbqt
 OpenBabel03192219343D

 31 34  0  0  0  0  0  0  0  0999 V2000
   54.3970   97.0710   26.5490 N   0  0  0  0  0  0  0  0  0  0  0  0
   54.2110   95.8530   26.0110 C   0  0  0  0  0  0  0  0  0  0  0  0
   53.1220   95.2070   26.0900 O   0  0  0  0  0  0  0  0  0  0  0  0
   55.3660   95.4100   25.3670 C   0  0  0  0  0  0  0  0  0  0  0  0
   56.2560   96.3850   25.5250 C   0  0  0  0  0  0  0  0  0  0  0  0
   57.3590   95.9370   24.8980 N   0  0  0  0  0  0  0  0  0  0  0  0
   57.1400   94.7390   24.3820 N   0  0  0  0  0  0  0  0  0  0  0  0
   55.9050   94.4030   24.6680 N   0  0  0  0  0  0  0  0  0  0  0  0
   55.6720   97.4060   26.2470 C   0  0  0  0  0  0  0  0  0  0  0  0
   56.2000   98.4870   26.5910 O   0  0  0  0  0  0  0  0  0  0  0  0
   58.2380   96.5130   24.8610 H   0  0  0  0  0  0  0  0  0  0  0  0
   57.8650   94.2050   23.8510 H   0  0  0  0  0  0  0  0  0  0  0  0
   55.2270   93.1830   24.3100 C   0  0  0  0  0  2  0  0  0  0  0  0
   55.1660   92.9920   22.8230 C   0  0  0  0  0  0  0  0  0  0  0  0
   55.6790   93.9250   22.1590 O   0  0  0  0  0  0  0  0  0  0  0  0
   54.5850   91.8670   22.2310 N   0  0  0  0  0  0  0  0  0  0  0  0
   54.1880   91.1540   22.9310 H   0  0  0  0  0  0  0  0  0  0  0  0
   54.4750   91.5900   20.8640 C   0  0  0  0  0  0  0  0  0  0  0  0
   55.3890   90.6740   20.3190 C   0  0  0  0  0  0  0  0  0  0  0  0
   55.3170   90.3720   18.9830 C   0  0  0  0  0  3  0  0  0  0  0  0
   56.4230   90.0300   21.1530 C   0  0  0  0  0  1  0  0  0  0  0  0
   54.3800   90.9300   18.1380 C   0  0  0  0  0  3  0  0  0  0  0  0
   53.4900   91.8210   18.6600 C   0  0  0  0  0  3  0  0  0  0  0  0
   53.5530   92.1320   20.0020 C   0  0  0  0  0  3  0  0  0  0  0  0
   53.4530   97.8470   27.2810 C   0  0  0  0  0  0  0  0  0  0  0  0
   52.7410   98.8590   26.6600 C   0  0  0  0  0  3  0  0  0  0  0  0
   51.8210   99.6250   27.3500 C   0  0  0  0  0  3  0  0  0  0  0  0
   51.5760   99.4110   28.6900 C   0  0  0  0  0  0  0  0  0  0  0  0
   50.2970  100.4760   29.6460 Br  0  0  0  0  0  0  0  0  0  0  0  0
   52.2780   98.4070   29.3180 C   0  0  0  0  0  3  0  0  0  0  0  0
   53.1920   97.6490   28.6220 C   0  0  0  0  0  3  0  0  0  0  0  0
  1 25  1  0  0  0  0
  2  3  2  0  0  0  0
  2  1  1  0  0  0  0
  4  5  2  0  0  0  0
  4  2  1  0  0  0  0
  5  9  1  0  0  0  0
  6  5  1  0  0  0  0
  7  8  1  0  0  0  0
  7  6  1  0  0  0  0
  8  4  1  0  0  0  0
  9  1  1  0  0  0  0
  9 10  2  0  0  0  0
 11  6  1  0  0  0  0
 12  7  1  0  0  0  0
 13  8  1  0  0  0  0
 14 13  1  0  0  0  0
 15 14  2  0  0  0  0
 16 14  1  0  0  0  0
 16 17  1  0  0  0  0
 18 16  1  0  0  0  0
 19 18  1  0  0  0  0
 19 21  1  0  0  0  0
 20 19  2  0  0  0  0
 22 23  2  0  0  0  0
 22 20  1  0  0  0  0
 23 24  1  0  0  0  0
 24 18  2  0  0  0  0
 25 31  1  0  0  0  0
 26 25  2  0  0  0  0
 26 27  1  0  0  0  0
 27 28  2  0  0  0  0
 28 30  1  0  0  0  0
 28 29  1  0  0  0  0
 31 30  2  0  0  0  0
M  END
>  <Pose>
1

>  <Score>
-10.121

$$$$
