/Users/jonathanwahrer/Desktop/Msc/3_Semester/Drug_Design_Praktikum/waehrer_HTS_screening/HTS_experiment/out/docking_results/vina_output/3npc/0412_docked.pdbqt
 OpenBabel03192219343D

 34 37  0  0  0  0  0  0  0  0999 V2000
   54.1900   97.3970   26.8040 N   0  0  0  0  0  0  0  0  0  0  0  0
   54.0390   96.1510   26.3490 C   0  0  0  0  0  0  0  0  0  0  0  0
   52.9720   95.4630   26.4870 O   0  0  0  0  0  0  0  0  0  0  0  0
   55.1550   95.6620   25.7100 C   0  0  0  0  0  0  0  0  0  0  0  0
   56.0400   96.6740   25.7790 C   0  0  0  0  0  0  0  0  0  0  0  0
   57.1530   96.2180   25.1530 N   0  0  0  0  0  0  0  0  0  0  0  0
   56.9570   94.9860   24.7200 N   0  0  0  0  0  0  0  0  0  0  0  0
   55.7320   94.6400   25.0590 N   0  0  0  0  0  0  0  0  0  0  0  0
   55.4660   97.7340   26.4420 C   0  0  0  0  0  0  0  0  0  0  0  0
   55.9680   98.8530   26.7070 O   0  0  0  0  0  0  0  0  0  0  0  0
   58.0280   96.7820   25.0460 H   0  0  0  0  0  0  0  0  0  0  0  0
   57.6930   94.4330   24.2050 H   0  0  0  0  0  0  0  0  0  0  0  0
   55.1310   93.3700   24.7660 C   0  0  0  0  0  2  0  0  0  0  0  0
   55.3050   92.9410   23.3810 C   0  0  0  0  0  0  0  0  0  0  0  0
   55.8420   93.6770   22.5020 O   0  0  0  0  0  0  0  0  0  0  0  0
   54.8450   91.6550   23.0190 N   0  0  0  0  0  0  0  0  0  0  0  0
   54.3840   91.0200   23.7410 H   0  0  0  0  0  0  0  0  0  0  0  0
   55.0050   91.2210   21.6780 C   0  0  0  0  0  0  0  0  0  0  0  0
   55.8740   90.1790   21.4700 C   0  0  0  0  0  3  0  0  0  0  0  0
   56.1110   89.7110   20.1720 C   0  0  0  0  0  0  0  0  0  0  0  0
   55.4750   90.2980   19.1100 C   0  0  0  0  0  3  0  0  0  0  0  0
   54.5910   91.3570   19.3050 C   0  0  0  0  0  0  0  0  0  0  0  0
   54.3780   91.7950   20.6030 C   0  0  0  0  0  3  0  0  0  0  0  0
   56.9940   88.6620   20.0820 O   0  0  0  0  0  0  0  0  0  0  0  0
   57.0240   87.5860   20.9450 C   0  0  0  0  0  1  0  0  0  0  0  0
   53.9920   91.9010   18.1880 O   0  0  0  0  0  0  0  0  0  0  0  0
   54.3060   91.6430   16.8550 C   0  0  0  0  0  1  0  0  0  0  0  0
   53.2700   98.2360   27.5080 C   0  0  0  0  0  0  0  0  0  0  0  0
   52.7210   99.3410   26.9040 C   0  0  0  0  0  3  0  0  0  0  0  0
   51.8170  100.1590   27.5990 C   0  0  0  0  0  3  0  0  0  0  0  0
   51.4590   99.8760   28.8960 C   0  0  0  0  0  0  0  0  0  0  0  0
   50.2140  100.9960   29.8530 Br  0  0  0  0  0  0  0  0  0  0  0  0
   52.0100   98.7690   29.4980 C   0  0  0  0  0  3  0  0  0  0  0  0
   52.8960   97.9750   28.8080 C   0  0  0  0  0  3  0  0  0  0  0  0
  1 28  1  0  0  0  0
  2  3  2  0  0  0  0
  2  1  1  0  0  0  0
  4  5  2  0  0  0  0
  4  2  1  0  0  0  0
  5  9  1  0  0  0  0
  6  5  1  0  0  0  0
  7  8  1  0  0  0  0
  7  6  1  0  0  0  0
  8  4  1  0  0  0  0
  9 10  2  0  0  0  0
  9  1  1  0  0  0  0
 11  6  1  0  0  0  0
 12  7  1  0  0  0  0
 13  8  1  0  0  0  0
 14 13  1  0  0  0  0
 15 14  2  0  0  0  0
 16 14  1  0  0  0  0
 16 17  1  0  0  0  0
 18 16  1  0  0  0  0
 19 18  1  0  0  0  0
 20 19  2  0  0  0  0
 21 22  2  0  0  0  0
 21 20  1  0  0  0  0
 22 23  1  0  0  0  0
 23 18  2  0  0  0  0
 24 20  1  0  0  0  0
 24 25  1  0  0  0  0
 26 22  1  0  0  0  0
 27 26  1  0  0  0  0
 28 34  1  0  0  0  0
 29 28  2  0  0  0  0
 29 30  1  0  0  0  0
 30 31  2  0  0  0  0
 31 33  1  0  0  0  0
 31 32  1  0  0  0  0
 34 33  2  0  0  0  0
M  END
>  <Pose>
1

>  <Score>
-8.835

$$$$
