/Users/jonathanwahrer/Desktop/Msc/3_Semester/Drug_Design_Praktikum/waehrer_HTS_screening/HTS_experiment/out/docking_results/vina_output/3npc/0414_docked.pdbqt
 OpenBabel03192219353D

 35 38  0  0  0  0  0  0  0  0999 V2000
   54.3800   97.3070   26.7750 N   0  0  0  0  0  0  0  0  0  0  0  0
   54.2050   96.0130   26.4060 C   0  0  0  0  0  0  0  0  0  0  0  0
   53.1700   95.3080   26.6170 O   0  0  0  0  0  0  0  0  0  0  0  0
   55.3370   95.5600   25.7520 C   0  0  0  0  0  0  0  0  0  0  0  0
   56.1790   96.5910   25.7380 C   0  0  0  0  0  0  0  0  0  0  0  0
   57.2990   96.1720   25.1020 N   0  0  0  0  0  0  0  0  0  0  0  0
   57.1060   94.9050   24.7480 N   0  0  0  0  0  0  0  0  0  0  0  0
   55.9130   94.4950   25.1310 N   0  0  0  0  0  0  0  0  0  0  0  0
   55.6030   97.6710   26.3640 C   0  0  0  0  0  0  0  0  0  0  0  0
   56.1080   98.8030   26.5340 O   0  0  0  0  0  0  0  0  0  0  0  0
   58.1470   96.7490   24.9280 H   0  0  0  0  0  0  0  0  0  0  0  0
   57.8010   94.3280   24.2430 H   0  0  0  0  0  0  0  0  0  0  0  0
   55.2840   93.1910   24.9560 C   0  0  0  0  0  2  0  0  0  0  0  0
   54.8760   93.0310   23.5120 C   0  0  0  0  0  0  0  0  0  0  0  0
   54.1810   93.9920   23.0980 O   0  0  0  0  0  0  0  0  0  0  0  0
   55.2760   91.9030   22.7970 N   0  0  0  0  0  0  0  0  0  0  0  0
   55.8680   91.1990   23.3410 H   0  0  0  0  0  0  0  0  0  0  0  0
   54.9840   91.5970   21.4450 C   0  0  0  0  0  0  0  0  0  0  0  0
   53.9620   92.1490   20.7100 C   0  0  0  0  0  3  0  0  0  0  0  0
   53.7370   91.7920   19.3730 C   0  0  0  0  0  3  0  0  0  0  0  0
   54.5330   90.8700   18.7360 C   0  0  0  0  0  0  0  0  0  0  0  0
   55.5570   90.3130   19.4610 C   0  0  0  0  0  3  0  0  0  0  0  0
   55.7770   90.6660   20.7780 C   0  0  0  0  0  3  0  0  0  0  0  0
   54.2610   90.5290   17.3430 C   0  0  0  0  0  0  0  0  0  0  0  0
   54.8840   91.1550   16.4490 O   0  0  0  0  0  0  0  0  0  0  0  0
   53.3720   89.5720   16.9410 O   0  0  0  0  0  0  0  0  0  0  0  0
   52.0440   89.4460   17.3610 C   0  0  0  0  0  2  0  0  0  0  0  0
   52.0180   88.3060   18.3880 C   0  0  0  0  0  1  0  0  0  0  0  0
   53.3980   98.0700   27.4710 C   0  0  0  0  0  0  0  0  0  0  0  0
   52.7360   99.0960   26.8140 C   0  0  0  0  0  3  0  0  0  0  0  0
   51.7940   99.8440   27.4460 C   0  0  0  0  0  3  0  0  0  0  0  0
   51.4530   99.6200   28.7640 C   0  0  0  0  0  0  0  0  0  0  0  0
   50.1410  100.6420   29.6860 Br  0  0  0  0  0  0  0  0  0  0  0  0
   52.1170   98.5990   29.4050 C   0  0  0  0  0  3  0  0  0  0  0  0
   53.0680   97.8370   28.7820 C   0  0  0  0  0  3  0  0  0  0  0  0
  1 29  1  0  0  0  0
  2  3  2  0  0  0  0
  2  1  1  0  0  0  0
  4  2  1  0  0  0  0
  5  4  2  0  0  0  0
  5  9  1  0  0  0  0
  6  5  1  0  0  0  0
  7  6  1  0  0  0  0
  7  8  1  0  0  0  0
  8  4  1  0  0  0  0
  9 10  2  0  0  0  0
  9  1  1  0  0  0  0
 11  6  1  0  0  0  0
 12  7  1  0  0  0  0
 13  8  1  0  0  0  0
 14 13  1  0  0  0  0
 15 14  2  0  0  0  0
 16 17  1  0  0  0  0
 16 14  1  0  0  0  0
 18 16  1  0  0  0  0
 19 18  2  0  0  0  0
 20 19  1  0  0  0  0
 21 20  2  0  0  0  0
 21 22  1  0  0  0  0
 22 23  2  0  0  0  0
 23 18  1  0  0  0  0
 24 21  1  0  0  0  0
 25 24  2  0  0  0  0
 26 24  1  0  0  0  0
 26 27  1  0  0  0  0
 27 28  1  0  0  0  0
 29 35  1  0  0  0  0
 30 31  1  0  0  0  0
 30 29  2  0  0  0  0
 31 32  2  0  0  0  0
 32 34  1  0  0  0  0
 32 33  1  0  0  0  0
 35 34  2  0  0  0  0
M  END
>  <Pose>
1

>  <Score>
-10.324

$$$$
