MODEL 1
REMARK VINA RESULT:   -10.324      0.000      0.000
REMARK INTER + INTRA:         -15.159
REMARK INTER:                 -14.549
REMARK INTRA:                  -0.610
REMARK UNBOUND:                -0.610
REMARK  7 active torsions:
REMARK  status: ('A' for Active; 'I' for Inactive)
REMARK    1  A    between atoms: C_5  and  N_8 
REMARK    2  A    between atoms: N_15  and  C_16 
REMARK    3  A    between atoms: C_16  and  C_17 
REMARK       I    between atoms: C_17  and  N_19 
REMARK    4  A    between atoms: N_19  and  C_20 
REMARK    5  A    between atoms: C_23  and  C_26 
REMARK    6  A    between atoms: C_26  and  O_28 
REMARK    7  A    between atoms: O_28  and  C_29 
ROOT
ATOM      1  N   UNK d   1      54.380  97.307  26.775  0.00  0.00    -0.241 N 
ATOM      2  C   UNK d   1      54.205  96.013  26.406  0.00  0.00     0.286 A 
ATOM      3  O   UNK d   1      53.170  95.308  26.617  0.00  0.00    -0.265 OA
ATOM      4  C   UNK d   1      55.337  95.560  25.752  0.00  0.00     0.155 A 
ATOM      5  C   UNK d   1      56.179  96.591  25.738  0.00  0.00     0.152 A 
ATOM      6  N   UNK d   1      57.299  96.172  25.102  0.00  0.00    -0.279 N 
ATOM      7  N   UNK d   1      57.106  94.905  24.748  0.00  0.00    -0.239 N 
ATOM      8  N   UNK d   1      55.913  94.495  25.131  0.00  0.00    -0.261 N 
ATOM      9  C   UNK d   1      55.603  97.671  26.364  0.00  0.00     0.286 A 
ATOM     10  O   UNK d   1      56.108  98.803  26.534  0.00  0.00    -0.265 OA
ATOM     11  H   UNK d   1      58.147  96.749  24.928  0.00  0.00     0.189 HD
ATOM     12  H   UNK d   1      57.801  94.328  24.243  0.00  0.00     0.208 HD
ENDROOT
BRANCH   8  13
ATOM     13  C   UNK d   1      55.284  93.191  24.956  0.00  0.00     0.254 C 
BRANCH  13  14
ATOM     14  C   UNK d   1      54.876  93.031  23.512  0.00  0.00     0.242 C 
ATOM     15  O   UNK d   1      54.181  93.992  23.098  0.00  0.00    -0.271 OA
ATOM     16  N   UNK d   1      55.276  91.903  22.797  0.00  0.00    -0.326 N 
ATOM     17  H   UNK d   1      55.868  91.199  23.341  0.00  0.00     0.169 HD
BRANCH  16  18
ATOM     18  C   UNK d   1      54.984  91.597  21.445  0.00  0.00     0.034 A 
ATOM     19  C   UNK d   1      53.962  92.149  20.710  0.00  0.00     0.030 A 
ATOM     20  C   UNK d   1      53.737  91.792  19.373  0.00  0.00     0.020 A 
ATOM     21  C   UNK d   1      54.533  90.870  18.736  0.00  0.00     0.039 A 
ATOM     22  C   UNK d   1      55.557  90.313  19.461  0.00  0.00     0.020 A 
ATOM     23  C   UNK d   1      55.777  90.666  20.778  0.00  0.00     0.030 A 
BRANCH  21  24
ATOM     24  C   UNK d   1      54.261  90.529  17.343  0.00  0.00     0.293 C 
ATOM     25  O   UNK d   1      54.884  91.155  16.449  0.00  0.00    -0.259 OA
BRANCH  24  26
ATOM     26  O   UNK d   1      53.372  89.572  16.941  0.00  0.00    -0.318 OA
BRANCH  26  27
ATOM     27  C   UNK d   1      52.044  89.446  17.361  0.00  0.00     0.174 C 
ATOM     28  C   UNK d   1      52.018  88.306  18.388  0.00  0.00     0.034 C 
ENDBRANCH  26  27
ENDBRANCH  24  26
ENDBRANCH  21  24
ENDBRANCH  16  18
ENDBRANCH  13  14
ENDBRANCH   8  13
BRANCH   1  29
ATOM     29  C   UNK d   1      53.398  98.070  27.471  0.00  0.00     0.046 A 
ATOM     30  C   UNK d   1      52.736  99.096  26.814  0.00  0.00     0.031 A 
ATOM     31  C   UNK d   1      51.794  99.844  27.446  0.00  0.00     0.021 A 
ATOM     32  C   UNK d   1      51.453  99.620  28.764  0.00  0.00     0.011 A 
ATOM     33 Br   UNK d   1      50.141 100.642  29.686  0.00  0.00    -0.051 Br
ATOM     34  C   UNK d   1      52.117  98.599  29.405  0.00  0.00     0.021 A 
ATOM     35  C   UNK d   1      53.068  97.837  28.782  0.00  0.00     0.031 A 
ENDBRANCH   1  29
TORSDOF 7
ENDMDL
