MODEL 1
REMARK VINA RESULT:    -8.592      0.000      0.000
REMARK INTER + INTRA:         -12.543
REMARK INTER:                 -11.606
REMARK INTRA:                  -0.936
REMARK UNBOUND:                -0.936
REMARK  6 active torsions:
REMARK  status: ('A' for Active; 'I' for Inactive)
REMARK    1  A    between atoms: C_5  and  N_8 
REMARK    2  A    between atoms: N_15  and  C_16 
REMARK    3  A    between atoms: C_16  and  C_17 
REMARK       I    between atoms: C_17  and  N_19 
REMARK    4  A    between atoms: N_19  and  C_20 
REMARK    5  A    between atoms: C_23  and  O_26 
REMARK    6  A    between atoms: O_26  and  C_27 
ROOT
ATOM      1  N   UNK d   1      48.710 104.035  32.297  0.00  0.00    -0.241 N 
ATOM      2  C   UNK d   1      48.754 103.419  31.083  0.00  0.00     0.286 A 
ATOM      3  O   UNK d   1      49.678 103.585  30.251  0.00  0.00    -0.265 OA
ATOM      4  C   UNK d   1      47.658 102.603  30.905  0.00  0.00     0.155 A 
ATOM      5  C   UNK d   1      46.938 102.717  32.012  0.00  0.00     0.152 A 
ATOM      6  N   UNK d   1      45.857 101.930  31.867  0.00  0.00    -0.279 N 
ATOM      7  N   UNK d   1      45.930 101.348  30.678  0.00  0.00    -0.239 N 
ATOM      8  N   UNK d   1      47.027 101.741  30.059  0.00  0.00    -0.261 N 
ATOM      9  C   UNK d   1      47.579 103.590  32.862  0.00  0.00     0.286 A 
ATOM     10  O   UNK d   1      47.190 103.947  34.019  0.00  0.00    -0.265 OA
ATOM     11  H   UNK d   1      45.087 101.778  32.541  0.00  0.00     0.189 HD
ATOM     12  H   UNK d   1      45.210 100.670  30.294  0.00  0.00     0.208 HD
ENDROOT
BRANCH   8  13
ATOM     13  C   UNK d   1      47.490 101.368  28.754  0.00  0.00     0.254 C 
BRANCH  13  14
ATOM     14  C   UNK d   1      48.413 100.173  28.763  0.00  0.00     0.242 C 
ATOM     15  O   UNK d   1      47.936  99.125  29.250  0.00  0.00    -0.271 OA
ATOM     16  N   UNK d   1      49.710 100.239  28.257  0.00  0.00    -0.326 N 
ATOM     17  H   UNK d   1      50.003 101.204  27.872  0.00  0.00     0.169 HD
BRANCH  16  18
ATOM     18  C   UNK d   1      50.700  99.246  28.170  0.00  0.00     0.034 A 
ATOM     19  C   UNK d   1      52.014  99.535  28.539  0.00  0.00     0.032 A 
ATOM     20  C   UNK d   1      53.014  98.604  28.453  0.00  0.00     0.039 A 
ATOM     21  C   UNK d   1      52.739  97.318  27.986  0.00  0.00     0.068 A 
ATOM     22  C   UNK d   1      51.437  97.064  27.632  0.00  0.00     0.039 A 
ATOM     23  C   UNK d   1      50.428  97.995  27.718  0.00  0.00     0.032 A 
BRANCH  21  24
ATOM     24  O   UNK d   1      53.774  96.414  27.912  0.00  0.00    -0.352 OA
BRANCH  24  25
ATOM     25  C   UNK d   1      54.432  95.991  26.762  0.00  0.00     0.171 C 
ATOM     26  C   UNK d   1      53.752  94.881  26.037  0.00  0.00     0.034 C 
ENDBRANCH  24  25
ENDBRANCH  21  24
ENDBRANCH  16  18
ENDBRANCH  13  14
ENDBRANCH   8  13
BRANCH   1  27
ATOM     27  C   UNK d   1      49.652 104.953  32.845  0.00  0.00     0.046 A 
ATOM     28  C   UNK d   1      49.625 106.311  32.605  0.00  0.00     0.031 A 
ATOM     29  C   UNK d   1      50.564 107.172  33.153  0.00  0.00     0.021 A 
ATOM     30  C   UNK d   1      51.575 106.709  33.969  0.00  0.00     0.011 A 
ATOM     31 Br   UNK d   1      52.880 107.874  34.731  0.00  0.00    -0.051 Br
ATOM     32  C   UNK d   1      51.598 105.341  34.210  0.00  0.00     0.021 A 
ATOM     33  C   UNK d   1      50.664 104.485  33.664  0.00  0.00     0.031 A 
ENDBRANCH   1  27
TORSDOF 6
ENDMDL
