MODEL 1
REMARK VINA RESULT:    -7.869      0.000      0.000
REMARK INTER + INTRA:          -9.945
REMARK INTER:                  -9.250
REMARK INTRA:                  -0.695
REMARK UNBOUND:                -0.695
REMARK  3 active torsions:
REMARK  status: ('A' for Active; 'I' for Inactive)
REMARK    1  A    between atoms: C_5  and  N_8 
REMARK    2  A    between atoms: N_15  and  C_16 
REMARK    3  A    between atoms: C_19  and  N_22 
ROOT
ATOM      1  N   UNK d   1      53.694  82.969  18.236  0.00  0.00    -0.241 N 
ATOM      2  C   UNK d   1      53.531  84.310  18.270  0.00  0.00     0.286 A 
ATOM      3  O   UNK d   1      53.452  85.107  17.281  0.00  0.00    -0.265 OA
ATOM      4  C   UNK d   1      53.456  84.763  19.574  0.00  0.00     0.160 A 
ATOM      5  C   UNK d   1      53.575  83.669  20.329  0.00  0.00     0.152 A 
ATOM      6  N   UNK d   1      53.501  84.110  21.608  0.00  0.00    -0.278 N 
ATOM      7  N   UNK d   1      53.343  85.423  21.592  0.00  0.00    -0.234 N 
ATOM      8  N   UNK d   1      53.311  85.857  20.343  0.00  0.00    -0.234 N 
ATOM      9  C   UNK d   1      53.722  82.564  19.517  0.00  0.00     0.286 A 
ATOM     10  O   UNK d   1      53.861  81.363  19.859  0.00  0.00    -0.265 OA
ATOM     11  H   UNK d   1      53.563  83.487  22.455  0.00  0.00     0.189 HD
ATOM     12  H   UNK d   1      53.253  86.066  22.420  0.00  0.00     0.209 HD
ENDROOT
BRANCH   8  13
ATOM     13  C   UNK d   1      53.155  87.214  19.910  0.00  0.00     0.058 A 
ATOM     14  C   UNK d   1      54.120  88.163  20.177  0.00  0.00     0.034 A 
ATOM     15  C   UNK d   1      53.997  89.485  19.770  0.00  0.00     0.038 A 
ATOM     16  C   UNK d   1      52.879  89.891  19.071  0.00  0.00     0.103 A 
ATOM     17  C   UNK d   1      51.913  88.945  18.803  0.00  0.00     0.038 A 
ATOM     18  C   UNK d   1      52.039  87.626  19.210  0.00  0.00     0.034 A 
BRANCH  16  19
ATOM     19  N   UNK d   1      52.724  91.240  18.640  0.00  0.00    -0.116 N 
ATOM     20  O   UNK d   1      53.632  91.858  18.053  0.00  0.00    -0.532 OA
ATOM     21  O   UNK d   1      51.549  91.881  18.874  0.00  0.00    -0.532 OA
ENDBRANCH  16  19
ENDBRANCH   8  13
BRANCH   1  22
ATOM     22  C   UNK d   1      53.810  82.164  17.056  0.00  0.00     0.046 A 
ATOM     23  C   UNK d   1      52.710  81.704  16.361  0.00  0.00     0.031 A 
ATOM     24  C   UNK d   1      52.856  80.923  15.218  0.00  0.00     0.021 A 
ATOM     25  C   UNK d   1      54.107  80.584  14.744  0.00  0.00     0.011 A 
ATOM     26 Br   UNK d   1      54.329  79.511  13.173  0.00  0.00    -0.051 Br
ATOM     27  C   UNK d   1      55.209  81.043  15.435  0.00  0.00     0.021 A 
ATOM     28  C   UNK d   1      55.054  81.817  16.569  0.00  0.00     0.031 A 
ENDBRANCH   1  22
TORSDOF 3
ENDMDL
