MODEL 1
REMARK VINA RESULT:    -9.208      0.000      0.000
REMARK INTER + INTRA:         -12.719
REMARK INTER:                 -11.899
REMARK INTRA:                  -0.820
REMARK UNBOUND:                -0.820
REMARK  5 active torsions:
REMARK  status: ('A' for Active; 'I' for Inactive)
REMARK    1  A    between atoms: C_5  and  N_8 
REMARK    2  A    between atoms: C_14  and  C_18 
REMARK    3  A    between atoms: C_18  and  O_20 
REMARK    4  A    between atoms: O_20  and  C_21 
REMARK    5  A    between atoms: C_21  and  C_22 
ROOT
ATOM      1  N   UNK d   1      54.289  97.466  26.796  0.00  0.00    -0.247 N 
ATOM      2  C   UNK d   1      55.680  97.782  26.593  0.00  0.00     0.255 C 
ATOM      3  O   UNK d   1      56.404  98.486  27.353  0.00  0.00    -0.270 OA
ATOM      4  C   UNK d   1      56.089  97.124  25.331  0.00  0.00     0.210 C 
ATOM      5  N   UNK d   1      57.460  96.652  25.318  0.00  0.00    -0.222 NA
ATOM      6  N   UNK d   1      57.269  95.458  24.556  0.00  0.00    -0.314 N 
ATOM      7  C   UNK d   1      56.060  94.833  24.985  0.00  0.00     0.132 C 
ATOM      8  C   UNK d   1      55.321  95.828  25.464  0.00  0.00     0.073 C 
ATOM      9  C   UNK d   1      54.069  96.241  26.086  0.00  0.00     0.266 C 
ATOM     10  O   UNK d   1      53.014  95.561  25.962  0.00  0.00    -0.267 OA
ATOM     11  H   UNK d   1      57.642  96.311  26.303  0.00  0.00     0.147 HD
ATOM     12  H   UNK d   1      57.899  95.095  23.814  0.00  0.00     0.181 HD
ENDROOT
BRANCH   7  13
ATOM     13  C   UNK d   1      55.697  93.422  24.915  0.00  0.00     0.312 C 
ATOM     14  O   UNK d   1      55.434  92.756  25.944  0.00  0.00    -0.258 OA
BRANCH  13  15
ATOM     15  O   UNK d   1      55.621  92.738  23.711  0.00  0.00    -0.312 OA
BRANCH  15  16
ATOM     16  C   UNK d   1      54.699  93.111  22.697  0.00  0.00     0.217 C 
BRANCH  16  17
ATOM     17  C   UNK d   1      54.844  92.179  21.529  0.00  0.00    -0.034 A 
ATOM     18  C   UNK d   1      53.915  92.203  20.490  0.00  0.00     0.009 A 
ATOM     19  C   UNK d   1      54.013  91.374  19.405  0.00  0.00     0.001 A 
ATOM     20  C   UNK d   1      55.074  90.475  19.337  0.00  0.00     0.000 A 
ATOM     21  C   UNK d   1      55.989  90.455  20.366  0.00  0.00     0.001 A 
ATOM     22  C   UNK d   1      55.881  91.307  21.468  0.00  0.00     0.009 A 
ENDBRANCH  16  17
ENDBRANCH  15  16
ENDBRANCH  13  15
ENDBRANCH   7  13
BRANCH   1  23
ATOM     23  C   UNK d   1      53.322  98.186  27.533  0.00  0.00     0.045 A 
ATOM     24  C   UNK d   1      52.739  99.339  26.995  0.00  0.00     0.031 A 
ATOM     25  C   UNK d   1      51.805 100.088  27.636  0.00  0.00     0.021 A 
ATOM     26  C   UNK d   1      51.398  99.705  28.888  0.00  0.00     0.011 A 
ATOM     27 Br   UNK d   1      50.073 100.749  29.820  0.00  0.00    -0.051 Br
ATOM     28  C   UNK d   1      51.950  98.572  29.455  0.00  0.00     0.021 A 
ATOM     29  C   UNK d   1      52.900  97.824  28.784  0.00  0.00     0.031 A 
ENDBRANCH   1  23
TORSDOF 5
ENDMDL
