MODEL 1
REMARK VINA RESULT:    -7.284      0.000      0.000
REMARK INTER + INTRA:          -8.004
REMARK INTER:                  -7.710
REMARK INTRA:                  -0.294
REMARK UNBOUND:                -0.294
REMARK  1 active torsions:
REMARK  status: ('A' for Active; 'I' for Inactive)
REMARK    1  A    between atoms: C_5  and  N_8 
ROOT
ATOM      1  N   UNK d   1      53.528  83.780  21.264  0.00  0.00    -0.231 N 
ATOM      2  C   UNK d   1      54.018  82.766  20.366  0.00  0.00     0.357 A 
ATOM      3  O   UNK d   1      54.598  83.109  19.300  0.00  0.00    -0.244 OA
ATOM      4  N   UNK d   1      53.815  81.423  20.742  0.00  0.00    -0.169 NA
ATOM      5  C   UNK d   1      53.235  81.056  21.808  0.00  0.00     0.202 A 
ATOM      6  C   UNK d   1      52.669  81.952  22.847  0.00  0.00     0.140 A 
ATOM      7  C   UNK d   1      51.240  81.584  23.049  0.00  0.00     0.269 C 
ATOM      8  N   UNK d   1      50.684  81.832  24.330  0.00  0.00    -0.043 N 
ATOM      9  C   UNK d   1      51.463  82.623  25.198  0.00  0.00     0.140 A 
ATOM     10  C   UNK d   1      52.861  82.560  25.152  0.00  0.00    -0.021 A 
ATOM     11  C   UNK d   1      53.599  83.334  26.003  0.00  0.00     0.016 A 
ATOM     12  C   UNK d   1      53.049  84.194  26.925  0.00  0.00    -0.061 A 
ATOM     13  C   UNK d   1      51.671  84.253  26.966  0.00  0.00     0.009 A 
ATOM     14  C   UNK d   1      50.893  83.479  26.116  0.00  0.00     0.038 A 
ATOM     15  C   UNK d   1      53.883  85.019  27.829  0.00  0.00     0.048 C 
ATOM     16  C   UNK d   1      53.414  81.620  24.143  0.00  0.00     0.070 C 
ATOM     17  C   UNK d   1      50.260  80.594  25.004  0.00  0.00     0.276 C 
ATOM     18  C   UNK d   1      52.877  83.363  22.459  0.00  0.00     0.251 A 
ATOM     19  O   UNK d   1      52.465  84.310  23.209  0.00  0.00    -0.271 OA
ATOM     20  O   UNK d   1      53.101  79.673  22.060  0.00  0.00    -0.173 OA
ATOM     21  H   UNK d   1      49.774  82.364  24.184  0.00  0.00     0.286 HD
ENDROOT
BRANCH   1  22
ATOM     22  C   UNK d   1      53.696  85.156  20.955  0.00  0.00     0.047 A 
ATOM     23  C   UNK d   1      54.694  85.845  21.605  0.00  0.00     0.031 A 
ATOM     24  C   UNK d   1      54.929  87.194  21.366  0.00  0.00     0.021 A 
ATOM     25  C   UNK d   1      54.150  87.862  20.461  0.00  0.00     0.011 A 
ATOM     26 Br   UNK d   1      54.479  89.713  20.140  0.00  0.00    -0.051 Br
ATOM     27  C   UNK d   1      53.137  87.192  19.793  0.00  0.00     0.021 A 
ATOM     28  C   UNK d   1      52.924  85.847  20.048  0.00  0.00     0.031 A 
ENDBRANCH   1  22
TORSDOF 1
ENDMDL
