MODEL 1
REMARK VINA RESULT:    -8.379      0.000      0.000
REMARK INTER + INTRA:         -11.144
REMARK INTER:                 -10.338
REMARK INTRA:                  -0.806
REMARK UNBOUND:                -0.806
REMARK  4 active torsions:
REMARK  status: ('A' for Active; 'I' for Inactive)
REMARK    1  A    between atoms: C_5  and  N_8 
REMARK    2  A    between atoms: C_12  and  C_13 
REMARK    3  A    between atoms: C_13  and  N_14 
REMARK    4  A    between atoms: N_14  and  C_15 
ROOT
ATOM      1  N   UNK d   1      50.111  98.963  28.481  0.00  0.00    -0.220 N 
ATOM      2  N   UNK d   1      48.907  98.510  28.816  0.00  0.00    -0.291 N 
ATOM      3  C   UNK d   1      48.053  99.534  29.000  0.00  0.00     0.056 A 
ATOM      4  C   UNK d   1      46.774  99.438  29.340  0.00  0.00     0.045 C 
ATOM      5  C   UNK d   1      48.730 100.715  28.775  0.00  0.00     0.076 A 
ATOM      6  C   UNK d   1      50.016 100.309  28.452  0.00  0.00     0.280 A 
ATOM      7  O   UNK d   1      50.948 101.098  28.176  0.00  0.00    -0.265 OA
ATOM      8  H   UNK d   1      48.661  97.506  28.921  0.00  0.00     0.187 HD
ENDROOT
BRANCH   5   9
ATOM      9  C   UNK d   1      48.269 101.967  28.847  0.00  0.00     0.103 C 
BRANCH   9  10
ATOM     10  N   UNK d   1      49.084 102.940  29.490  0.00  0.00    -0.384 N 
ATOM     11  H   UNK d   1      49.757 103.463  28.912  0.00  0.00     0.159 HD
BRANCH  10  12
ATOM     12  C   UNK d   1      48.992 103.204  30.897  0.00  0.00     0.109 C 
ATOM     13  C   UNK d   1      50.068 102.483  31.645  0.00  0.00     0.311 C 
ATOM     14  N   UNK d   1      50.000 102.855  33.052  0.00  0.00     0.147 N 
ATOM     15  C   UNK d   1      50.198 104.296  33.139  0.00  0.00     0.547 C 
ATOM     16  C   UNK d   1      48.713 102.478  33.578  0.00  0.00     0.547 C 
ATOM     17  N   UNK d   1      49.137 105.022  32.485  0.00  0.00     0.147 N 
ATOM     18  C   UNK d   1      47.850 104.595  33.024  0.00  0.00     0.547 C 
ATOM     19  C   UNK d   1      49.145 104.717  31.078  0.00  0.00     0.311 C 
ATOM     20  N   UNK d   1      47.655 103.170  32.879  0.00  0.00     0.147 N 
ATOM     21  C   UNK d   1      47.659 102.801  31.484  0.00  0.00     0.311 C 
ENDBRANCH  10  12
ENDBRANCH   9  10
ENDBRANCH   5   9
BRANCH   1  22
ATOM     22  C   UNK d   1      51.282  98.205  28.203  0.00  0.00     0.060 A 
ATOM     23  C   UNK d   1      51.201  97.058  27.440  0.00  0.00     0.033 A 
ATOM     24  C   UNK d   1      52.327  96.293  27.149  0.00  0.00     0.021 A 
ATOM     25  C   UNK d   1      53.549  96.667  27.622  0.00  0.00     0.011 A 
ATOM     26 Br   UNK d   1      55.136  95.646  27.250  0.00  0.00    -0.051 Br
ATOM     27  C   UNK d   1      53.662  97.814  28.391  0.00  0.00     0.021 A 
ATOM     28  C   UNK d   1      52.534  98.553  28.663  0.00  0.00     0.033 A 
ENDBRANCH   1  22
TORSDOF 4
ENDMDL
