MODEL 1
REMARK VINA RESULT:    -9.684      0.000      0.000
REMARK INTER + INTRA:         -14.267
REMARK INTER:                 -13.364
REMARK INTRA:                  -0.904
REMARK UNBOUND:                -0.904
REMARK  7 active torsions:
REMARK  status: ('A' for Active; 'I' for Inactive)
REMARK    1  A    between atoms: C_5  and  O_8 
REMARK    2  A    between atoms: O_8  and  C_9 
REMARK    3  A    between atoms: C_9  and  C_10 
REMARK    4  A    between atoms: C_10  and  O_11 
REMARK    5  A    between atoms: C_10  and  C_12 
REMARK    6  A    between atoms: C_12  and  N_13 
REMARK    7  A    between atoms: C_17  and  N_18 
ROOT
ATOM      1  N   UNK d   1      54.876  89.835  20.704  0.00  0.00    -0.170 N 
ATOM      2  C   UNK d   1      53.978  89.760  19.695  0.00  0.00     0.166 A 
ATOM      3  C   UNK d   1      53.442  88.493  19.684  0.00  0.00     0.185 A 
ATOM      4  N   UNK d   1      54.033  87.857  20.674  0.00  0.00    -0.044 NA
ATOM      5  C   UNK d   1      54.934  88.651  21.333  0.00  0.00     0.707 A 
ATOM      6  N   UNK d   1      52.499  88.071  18.792  0.00  0.00    -0.286 N 
ATOM      7  C   UNK d   1      52.082  88.950  17.879  0.00  0.00     0.330 A 
ATOM      8  O   UNK d   1      51.211  88.577  17.047  0.00  0.00    -0.246 OA
ATOM      9  N   UNK d   1      52.587  90.190  17.864  0.00  0.00    -0.273 N 
ATOM     10  C   UNK d   1      53.521  90.638  18.735  0.00  0.00     0.280 A 
ATOM     11  O   UNK d   1      53.971  91.792  18.696  0.00  0.00    -0.265 OA
ATOM     12  C   UNK d   1      51.983  86.704  18.868  0.00  0.00     0.163 C 
ATOM     13  H   UNK d   1      52.237  90.848  17.136  0.00  0.00     0.173 HD
ENDROOT
BRANCH   1  14
ATOM     14  C   UNK d   1      55.621  91.013  21.094  0.00  0.00     0.182 C 
BRANCH  14  15
ATOM     15  C   UNK d   1      54.908  91.949  22.026  0.00  0.00     0.161 C 
BRANCH  15  16
ATOM     16  C   UNK d   1      55.715  93.065  22.609  0.00  0.00     0.209 C 
BRANCH  16  17
ATOM     17  O   UNK d   1      55.363  93.451  23.817  0.00  0.00    -0.349 OA
BRANCH  17  18
ATOM     18  C   UNK d   1      54.950  94.289  24.737  0.00  0.00     0.069 A 
ATOM     19  C   UNK d   1      53.660  94.358  25.221  0.00  0.00     0.038 A 
ATOM     20  C   UNK d   1      53.283  95.264  26.189  0.00  0.00     0.022 A 
ATOM     21  C   UNK d   1      54.218  96.128  26.693  0.00  0.00     0.011 A 
ATOM     22 Br   UNK d   1      53.693  97.374  28.027  0.00  0.00    -0.051 Br
ATOM     23  C   UNK d   1      55.517  96.082  26.230  0.00  0.00     0.022 A 
ATOM     24  C   UNK d   1      55.892  95.193  25.278  0.00  0.00     0.038 A 
ENDBRANCH  17  18
ENDBRANCH  16  17
ENDBRANCH  15  16
BRANCH  15  25
ATOM     25  O   UNK d   1      53.769  92.516  21.437  0.00  0.00    -0.392 OA
ATOM     26  H   UNK d   1      53.487  93.319  21.983  0.00  0.00     0.210 HD
ENDBRANCH  15  25
ENDBRANCH  14  15
ENDBRANCH   1  14
BRANCH   5  27
ATOM     27  N   UNK d   1      55.770  88.186  22.410  0.00  0.00    -0.212 N 
ATOM     28  C   UNK d   1      56.644  87.054  22.030  0.00  0.00     0.171 C 
ATOM     29  C   UNK d   1      57.715  86.752  22.997  0.00  0.00     0.292 C 
ATOM     30  N   UNK d   1      57.331  86.972  24.369  0.00  0.00     0.087 N 
ATOM     31  C   UNK d   1      57.065  88.371  24.486  0.00  0.00     0.292 C 
ATOM     32  C   UNK d   1      56.277  86.109  24.791  0.00  0.00     0.310 C 
ATOM     33  C   UNK d   1      55.816  88.773  23.702  0.00  0.00     0.171 C 
ENDBRANCH   5  27
TORSDOF 7
ENDMDL
