/Users/jonathanwahrer/Desktop/Msc/3_Semester/Drug_Design_Praktikum/waehrer_HTS_screening/HTS_experiment/out/docking_results/vina_output/3npc/0444_docked.pdbqt
 OpenBabel03192219373D

 33 36  0  0  1  0  0  0  0  0999 V2000
   54.8760   89.8350   20.7040 N   0  0  0  0  0  0  0  0  0  0  0  0
   53.9780   89.7600   19.6950 C   0  0  0  0  0  0  0  0  0  0  0  0
   53.4420   88.4930   19.6840 C   0  0  0  0  0  0  0  0  0  0  0  0
   54.0330   87.8570   20.6740 N   0  0  0  0  0  0  0  0  0  0  0  0
   54.9340   88.6510   21.3330 C   0  0  0  0  0  0  0  0  0  0  0  0
   52.4990   88.0710   18.7920 N   0  0  0  0  0  0  0  0  0  0  0  0
   52.0820   88.9500   17.8790 C   0  0  0  0  0  0  0  0  0  0  0  0
   51.2110   88.5770   17.0470 O   0  0  0  0  0  0  0  0  0  0  0  0
   52.5870   90.1900   17.8640 N   0  0  0  0  0  0  0  0  0  0  0  0
   53.5210   90.6380   18.7350 C   0  0  0  0  0  0  0  0  0  0  0  0
   53.9710   91.7920   18.6960 O   0  0  0  0  0  0  0  0  0  0  0  0
   51.9830   86.7040   18.8680 C   0  0  0  0  0  1  0  0  0  0  0  0
   52.2370   90.8480   17.1360 H   0  0  0  0  0  0  0  0  0  0  0  0
   55.6210   91.0130   21.0940 C   0  0  0  0  0  2  0  0  0  0  0  0
   54.9080   91.9490   22.0260 C   0  0  1  0  0  3  0  0  0  0  0  0
   55.7150   93.0650   22.6090 C   0  0  0  0  0  2  0  0  0  0  0  0
   55.3630   93.4510   23.8170 O   0  0  0  0  0  0  0  0  0  0  0  0
   54.9500   94.2890   24.7370 C   0  0  0  0  0  0  0  0  0  0  0  0
   53.6600   94.3580   25.2210 C   0  0  0  0  0  3  0  0  0  0  0  0
   53.2830   95.2640   26.1890 C   0  0  0  0  0  3  0  0  0  0  0  0
   54.2180   96.1280   26.6930 C   0  0  0  0  0  0  0  0  0  0  0  0
   53.6930   97.3740   28.0270 Br  0  0  0  0  0  0  0  0  0  0  0  0
   55.5170   96.0820   26.2300 C   0  0  0  0  0  3  0  0  0  0  0  0
   55.8920   95.1930   25.2780 C   0  0  0  0  0  3  0  0  0  0  0  0
   53.7690   92.5160   21.4370 O   0  0  0  0  0  0  0  0  0  0  0  0
   53.4870   93.3190   21.9830 H   0  0  0  0  0  0  0  0  0  0  0  0
   55.7700   88.1860   22.4100 N   0  0  0  0  0  0  0  0  0  0  0  0
   56.6440   87.0540   22.0300 C   0  0  0  0  0  2  0  0  0  0  0  0
   57.7150   86.7520   22.9970 C   0  0  0  0  0  2  0  0  0  0  0  0
   57.3310   86.9720   24.3690 N   0  0  0  0  0  0  0  0  0  0  0  0
   57.0650   88.3710   24.4860 C   0  0  0  0  0  2  0  0  0  0  0  0
   56.2770   86.1090   24.7910 C   0  0  0  0  0  1  0  0  0  0  0  0
   55.8160   88.7730   23.7020 C   0  0  0  0  0  2  0  0  0  0  0  0
  1 14  1  0  0  0  0
  1  5  1  0  0  0  0
  2  1  1  0  0  0  0
  3  2  2  0  0  0  0
  3  4  1  0  0  0  0
  4  5  2  0  0  0  0
  5 27  1  0  0  0  0
  6 12  1  0  0  0  0
  6  3  1  0  0  0  0
  7  6  1  0  0  0  0
  8  7  2  0  0  0  0
  9  7  1  0  0  0  0
  9 10  1  0  0  0  0
 10  2  1  0  0  0  0
 11 10  2  0  0  0  0
 13  9  1  0  0  0  0
 15 14  1  6  0  0  0
 15 16  1  0  0  0  0
 16 17  1  0  0  0  0
 17 18  1  0  0  0  0
 18 19  2  0  0  0  0
 18 24  1  0  0  0  0
 19 20  1  0  0  0  0
 20 21  2  0  0  0  0
 21 22  1  0  0  0  0
 23 21  1  0  0  0  0
 24 23  2  0  0  0  0
 25 26  1  0  0  0  0
 25 15  1  0  0  0  0
 27 33  1  0  0  0  0
 28 27  1  0  0  0  0
 28 29  1  0  0  0  0
 29 30  1  0  0  0  0
 30 31  1  0  0  0  0
 30 32  1  0  0  0  0
 33 31  1  0  0  0  0
M  END
>  <Pose>
1

>  <Score>
-9.684

$$$$
