/Users/jonathanwahrer/Desktop/Msc/3_Semester/Drug_Design_Praktikum/waehrer_HTS_screening/HTS_experiment/out/docking_results/vina_output/3npc/0454_docked.pdbqt
 OpenBabel03192219373D

 21 25  0  0  1  0  0  0  0  0999 V2000
   55.5620   90.3390   19.7410 C   0  0  0  0  0  2  0  0  0  0  0  0
   55.7480   89.5280   20.9440 C   0  0  0  0  0  0  0  0  0  0  0  0
   55.6130   90.1690   22.1880 C   0  0  0  0  0  0  0  0  0  0  0  0
   55.0400   91.9840   22.3750 Br  0  0  0  0  0  0  0  0  0  0  0  0
   55.9330   89.4190   23.3040 C   0  0  0  0  0  3  0  0  0  0  0  0
   56.3530   88.1100   23.1850 C   0  0  0  0  0  0  0  0  0  0  0  0
   56.4970   87.4530   21.9860 C   0  0  0  0  0  0  0  0  0  0  0  0
   56.7240   87.1980   24.2200 O   0  0  0  0  0  0  0  0  0  0  0  0
   56.1810   88.2010   20.8850 C   0  0  0  0  0  3  0  0  0  0  0  0
   56.9460   86.1850   22.3190 O   0  0  0  0  0  0  0  0  0  0  0  0
   57.6690   86.2900   23.5770 C   0  0  0  0  0  2  0  0  0  0  0  0
   54.2840   90.5000   19.1850 N   0  0  2  0  0  4  0  0  0  0  0  0
   54.4660   89.8080   17.8590 C   0  0  0  0  0  2  0  0  0  0  0  0
   53.4480   90.0490   16.9270 N   0  0  2  0  0  0  0  0  0  0  0  0
   53.3570   91.4880   16.7470 C   0  0  0  0  0  2  0  0  0  0  0  0
   52.2280   89.4640   17.4960 C   0  0  0  0  0  2  0  0  0  0  0  0
   52.9330   92.0490   18.0060 N   0  0  2  0  0  0  0  0  0  0  0  0
   53.9440   91.9110   19.0040 C   0  0  0  0  0  2  0  0  0  0  0  0
   51.6910   91.4630   18.5230 C   0  0  0  0  0  2  0  0  0  0  0  0
   51.9620   90.0590   18.7840 N   0  0  2  0  0  0  0  0  0  0  0  0
   53.1020   89.8910   19.7100 C   0  0  0  0  0  2  0  0  0  0  0  0
  1  2  1  0  0  0  0
  2  3  1  0  0  0  0
  3  4  1  0  0  0  0
  3  5  2  0  0  0  0
  6  5  1  0  0  0  0
  6  8  1  0  0  0  0
  7 10  1  0  0  0  0
  7  6  2  0  0  0  0
  9  2  2  0  0  0  0
  9  7  1  0  0  0  0
 10 11  1  0  0  0  0
 11  8  1  0  0  0  0
 12 21  1  0  0  0  0
 12  1  1  1  0  0  0
 13 12  1  0  0  0  0
 14 15  1  1  0  0  0
 14 16  1  0  0  0  0
 14 13  1  0  0  0  0
 17 15  1  6  0  0  0
 17 19  1  0  0  0  0
 17 18  1  0  0  0  0
 18 12  1  0  0  0  0
 19 20  1  0  0  0  0
 20 16  1  6  0  0  0
 20 21  1  0  0  0  0
M  END
>  <Pose>
1

>  <Score>
-7.602

$$$$
