MODEL 1
REMARK VINA RESULT:    -7.602      0.000      0.000
REMARK INTER + INTRA:          -8.797
REMARK INTER:                  -8.491
REMARK INTRA:                  -0.306
REMARK UNBOUND:                -0.306
REMARK  2 active torsions:
REMARK  status: ('A' for Active; 'I' for Inactive)
REMARK    1  A    between atoms: C_7  and  C_8 
REMARK    2  A    between atoms: C_8  and  N_9 
ROOT
ATOM      1  C   UNK d   1      55.562  90.339  19.741  0.00  0.00     0.284 C 
ENDROOT
BRANCH   1   2
ATOM      2  C   UNK d   1      55.748  89.528  20.944  0.00  0.00    -0.012 A 
ATOM      3  C   UNK d   1      55.613  90.169  22.188  0.00  0.00     0.021 A 
ATOM      4 Br   UNK d   1      55.040  91.984  22.375  0.00  0.00    -0.050 Br
ATOM      5  C   UNK d   1      55.933  89.419  23.304  0.00  0.00     0.059 A 
ATOM      6  C   UNK d   1      56.353  88.110  23.185  0.00  0.00     0.106 A 
ATOM      7  C   UNK d   1      56.497  87.453  21.986  0.00  0.00     0.105 A 
ATOM      8  O   UNK d   1      56.724  87.198  24.220  0.00  0.00    -0.323 OA
ATOM      9  C   UNK d   1      56.181  88.201  20.885  0.00  0.00     0.050 A 
ATOM     10  O   UNK d   1      56.946  86.185  22.319  0.00  0.00    -0.323 OA
ATOM     11  C   UNK d   1      57.669  86.290  23.577  0.00  0.00     0.352 C 
ENDBRANCH   1   2
BRANCH   1  12
ATOM     12  N   UNK d   1      54.284  90.500  19.185  0.00  0.00     0.016 N 
ATOM     13  C   UNK d   1      54.466  89.808  17.859  0.00  0.00     0.517 C 
ATOM     14  N   UNK d   1      53.448  90.049  16.927  0.00  0.00     0.171 N 
ATOM     15  C   UNK d   1      53.357  91.488  16.747  0.00  0.00     0.551 C 
ATOM     16  C   UNK d   1      52.228  89.464  17.496  0.00  0.00     0.551 C 
ATOM     17  N   UNK d   1      52.933  92.049  18.006  0.00  0.00     0.171 N 
ATOM     18  C   UNK d   1      53.944  91.911  19.004  0.00  0.00     0.517 C 
ATOM     19  C   UNK d   1      51.691  91.463  18.523  0.00  0.00     0.551 C 
ATOM     20  N   UNK d   1      51.962  90.059  18.784  0.00  0.00     0.171 N 
ATOM     21  C   UNK d   1      53.102  89.891  19.710  0.00  0.00     0.517 C 
ENDBRANCH   1  12
TORSDOF 2
ENDMDL
