/Users/jonathanwahrer/Desktop/Msc/3_Semester/Drug_Design_Praktikum/waehrer_HTS_screening/HTS_experiment/out/docking_results/vina_output/3npc/0455_docked.pdbqt
 OpenBabel03192219383D

 26 29  0  0  0  0  0  0  0  0999 V2000
   55.7860   88.4190   23.0330 N   0  0  0  0  0  0  0  0  0  0  0  0
   57.0800   87.7240   23.2590 C   0  0  0  0  0  2  0  0  0  0  0  0
   56.6530   86.3600   23.7900 C   0  0  0  0  0  2  0  0  0  0  0  0
   55.2820   86.2830   24.1420 N   0  0  0  0  0  0  0  0  0  0  0  0
   54.8490   87.3800   24.9670 C   0  0  0  0  0  2  0  0  0  0  0  0
   55.3340   88.6830   24.4000 C   0  0  0  0  0  2  0  0  0  0  0  0
   56.0270   89.6620   22.3260 C   0  0  0  0  0  2  0  0  0  0  0  0
   54.9900   89.8760   21.2850 C   0  0  0  0  0  0  0  0  0  0  0  0
   54.5530   91.1570   20.9570 C   0  0  0  0  0  0  0  0  0  0  0  0
   55.3210   92.6160   21.9220 Br  0  0  0  0  0  0  0  0  0  0  0  0
   53.6090   91.3870   19.9810 C   0  0  0  0  0  3  0  0  0  0  0  0
   53.0480   90.3490   19.2790 C   0  0  0  0  0  0  0  0  0  0  0  0
   53.4560   89.0800   19.5770 C   0  0  0  0  0  0  0  0  0  0  0  0
   52.0950   90.5390   18.2870 O   0  0  0  0  0  0  0  0  0  0  0  0
   54.4110   88.8510   20.5660 C   0  0  0  0  0  3  0  0  0  0  0  0
   52.9020   88.0190   18.8790 O   0  0  0  0  0  0  0  0  0  0  0  0
   51.7610   88.1320   18.0680 C   0  0  0  0  0  2  0  0  0  0  0  0
   51.6580   89.4930   17.4570 C   0  0  0  0  0  2  0  0  0  0  0  0
   54.3650   85.8510   23.1570 C   0  0  0  0  0  2  0  0  0  0  0  0
   53.5590   84.6910   23.4880 C   0  0  0  0  0  0  0  0  0  0  0  0
   53.9430   83.8610   24.3390 O   0  0  0  0  0  0  0  0  0  0  0  0
   52.3130   84.4670   22.8590 N   0  0  0  0  0  0  0  0  0  0  0  0
   51.9170   85.1270   22.1290 H   0  0  0  0  0  0  0  0  0  0  0  0
   51.4760   83.3130   23.1670 C   0  0  0  0  0  3  0  0  0  0  0  0
   51.6120   82.0650   22.4000 C   0  0  0  0  0  2  0  0  0  0  0  0
   50.4530   82.9630   22.0910 C   0  0  0  0  0  2  0  0  0  0  0  0
  1  2  1  0  0  0  0
  1  6  1  0  0  0  0
  2  3  1  0  0  0  0
  3  4  1  0  0  0  0
  4  5  1  0  0  0  0
  6  5  1  0  0  0  0
  7  1  1  0  0  0  0
  8  7  1  0  0  0  0
  9  8  1  0  0  0  0
  9 10  1  0  0  0  0
 11  9  2  0  0  0  0
 12 13  2  0  0  0  0
 12 11  1  0  0  0  0
 13 15  1  0  0  0  0
 14 12  1  0  0  0  0
 15  8  2  0  0  0  0
 16 13  1  0  0  0  0
 17 16  1  0  0  0  0
 18 17  1  0  0  0  0
 18 14  1  0  0  0  0
 19 20  1  0  0  0  0
 19  4  1  0  0  0  0
 20 21  2  0  0  0  0
 22 24  1  0  0  0  0
 22 20  1  0  0  0  0
 23 22  1  0  0  0  0
 25 24  1  0  0  0  0
 26 25  1  0  0  0  0
 26 24  1  0  0  0  0
M  END
>  <Pose>
1

>  <Score>
-7.274

$$$$
