MODEL 1
REMARK VINA RESULT:    -7.274      0.000      0.000
REMARK INTER + INTRA:         -10.260
REMARK INTER:                  -9.400
REMARK INTRA:                  -0.860
REMARK UNBOUND:                -0.860
REMARK  5 active torsions:
REMARK  status: ('A' for Active; 'I' for Inactive)
REMARK    1  A    between atoms: C_7  and  C_8 
REMARK    2  A    between atoms: C_8  and  N_9 
REMARK    3  A    between atoms: N_12  and  C_15 
REMARK    4  A    between atoms: C_15  and  C_16 
REMARK       I    between atoms: C_16  and  N_18 
REMARK    5  A    between atoms: N_18  and  C_19 
ROOT
ATOM      1  N   UNK d   1      55.786  88.419  23.033  0.00  0.00     0.095 N 
ATOM      2  C   UNK d   1      57.080  87.724  23.259  0.00  0.00     0.292 C 
ATOM      3  C   UNK d   1      56.653  86.360  23.790  0.00  0.00     0.147 C 
ATOM      4  N   UNK d   1      55.282  86.283  24.142  0.00  0.00    -0.401 N 
ATOM      5  C   UNK d   1      54.849  87.380  24.967  0.00  0.00     0.147 C 
ATOM      6  C   UNK d   1      55.334  88.683  24.400  0.00  0.00     0.292 C 
ENDROOT
BRANCH   1   7
ATOM      7  C   UNK d   1      56.027  89.662  22.326  0.00  0.00     0.312 C 
BRANCH   7   8
ATOM      8  C   UNK d   1      54.990  89.876  21.285  0.00  0.00    -0.010 A 
ATOM      9  C   UNK d   1      54.553  91.157  20.957  0.00  0.00     0.021 A 
ATOM     10 Br   UNK d   1      55.321  92.616  21.922  0.00  0.00    -0.050 Br
ATOM     11  C   UNK d   1      53.609  91.387  19.981  0.00  0.00     0.059 A 
ATOM     12  C   UNK d   1      53.048  90.349  19.279  0.00  0.00     0.103 A 
ATOM     13  C   UNK d   1      53.456  89.080  19.577  0.00  0.00     0.102 A 
ATOM     14  O   UNK d   1      52.095  90.539  18.287  0.00  0.00    -0.346 OA
ATOM     15  C   UNK d   1      54.411  88.851  20.566  0.00  0.00     0.050 A 
ATOM     16  O   UNK d   1      52.902  88.019  18.879  0.00  0.00    -0.346 OA
ATOM     17  C   UNK d   1      51.761  88.132  18.068  0.00  0.00     0.202 C 
ATOM     18  C   UNK d   1      51.658  89.493  17.457  0.00  0.00     0.202 C 
ENDBRANCH   7   8
ENDBRANCH   1   7
BRANCH   4  19
ATOM     19  C   UNK d   1      54.365  85.851  23.157  0.00  0.00     0.219 C 
BRANCH  19  20
ATOM     20  C   UNK d   1      53.559  84.691  23.488  0.00  0.00     0.235 C 
ATOM     21  O   UNK d   1      53.943  83.861  24.339  0.00  0.00    -0.272 OA
ATOM     22  N   UNK d   1      52.313  84.467  22.859  0.00  0.00    -0.355 N 
ATOM     23  H   UNK d   1      51.917  85.127  22.129  0.00  0.00     0.162 HD
BRANCH  22  24
ATOM     24  C   UNK d   1      51.476  83.313  23.167  0.00  0.00     0.084 A 
ATOM     25  C   UNK d   1      51.612  82.065  22.400  0.00  0.00     0.027 A 
ATOM     26  C   UNK d   1      50.453  82.963  22.091  0.00  0.00     0.027 A 
ENDBRANCH  22  24
ENDBRANCH  19  20
ENDBRANCH   4  19
TORSDOF 5
ENDMDL
