MODEL 1
REMARK VINA RESULT:    -8.974      0.000      0.000
REMARK INTER + INTRA:         -13.027
REMARK INTER:                 -12.122
REMARK INTRA:                  -0.905
REMARK UNBOUND:                -0.905
REMARK  6 active torsions:
REMARK  status: ('A' for Active; 'I' for Inactive)
REMARK    1  A    between atoms: C_7  and  C_8 
REMARK    2  A    between atoms: C_8  and  O_9 
REMARK    3  A    between atoms: O_9  and  C_10 
REMARK    4  A    between atoms: C_13  and  C_16 
REMARK    5  A    between atoms: N_18  and  C_21 
REMARK    6  A    between atoms: C_21  and  C_22 
REMARK       I    between atoms: C_22  and  N_24 
ROOT
ATOM      1  C   UNK d   1      51.980  97.852  27.711  0.00  0.00     0.069 A 
ATOM      2  C   UNK d   1      50.665  97.570  28.104  0.00  0.00     0.038 A 
ATOM      3  C   UNK d   1      49.789  98.541  28.534  0.00  0.00     0.018 A 
ATOM      4  C   UNK d   1      50.183  99.859  28.598  0.00  0.00     0.015 A 
ATOM      5  C   UNK d   1      51.475 100.155  28.217  0.00  0.00     0.018 A 
ATOM      6  C   UNK d   1      52.364  99.173  27.780  0.00  0.00     0.038 A 
ENDROOT
BRANCH   1   7
ATOM      7  O   UNK d   1      52.820  96.836  27.290  0.00  0.00    -0.347 OA
BRANCH   7   8
ATOM      8  C   UNK d   1      54.071  96.574  27.853  0.00  0.00     0.215 C 
BRANCH   8   9
ATOM      9  C   UNK d   1      55.175  96.533  26.879  0.00  0.00    -0.014 A 
ATOM     10  C   UNK d   1      55.518  95.330  26.248  0.00  0.00     0.022 A 
ATOM     11 Br   UNK d   1      54.531  93.768  26.751  0.00  0.00    -0.050 Br
ATOM     12  C   UNK d   1      56.520  95.278  25.311  0.00  0.00     0.059 A 
ATOM     13  C   UNK d   1      57.221  96.414  24.961  0.00  0.00     0.106 A 
ATOM     14  C   UNK d   1      56.903  97.611  25.566  0.00  0.00     0.105 A 
ATOM     15  O   UNK d   1      58.262  96.672  24.067  0.00  0.00    -0.323 OA
ATOM     16  C   UNK d   1      55.884  97.655  26.517  0.00  0.00     0.050 A 
ATOM     17  O   UNK d   1      57.748  98.566  25.037  0.00  0.00    -0.323 OA
ATOM     18  C   UNK d   1      58.400  98.065  23.883  0.00  0.00     0.352 C 
ENDBRANCH   8   9
ENDBRANCH   7   8
ENDBRANCH   1   7
BRANCH   4  19
ATOM     19  C   UNK d   1      49.262 100.904  29.055  0.00  0.00     0.198 A 
ATOM     20  N   UNK d   1      49.280 101.597  30.205  0.00  0.00    -0.136 NA
ATOM     21  N   UNK d   1      48.252 102.451  30.206  0.00  0.00    -0.182 N 
ATOM     22  N   UNK d   1      47.585 102.304  29.071  0.00  0.00     0.025 NA
ATOM     23  N   UNK d   1      48.200 101.363  28.374  0.00  0.00    -0.136 NA
BRANCH  21  24
ATOM     24  C   UNK d   1      47.874 103.398  31.235  0.00  0.00     0.272 C 
BRANCH  24  25
ATOM     25  C   UNK d   1      46.856 102.803  32.128  0.00  0.00     0.236 C 
ATOM     26  O   UNK d   1      47.004 102.870  33.359  0.00  0.00    -0.272 OA
ATOM     27  N   UNK d   1      45.729 102.167  31.563  0.00  0.00    -0.369 N 
ATOM     28  H   UNK d   1      45.758 101.681  30.624  0.00  0.00     0.159 HD
ATOM     29  H   UNK d   1      44.822 102.163  32.076  0.00  0.00     0.159 HD
ENDBRANCH  24  25
ENDBRANCH  21  24
ENDBRANCH   4  19
TORSDOF 6
ENDMDL
