/Users/jonathanwahrer/Desktop/Msc/3_Semester/Drug_Design_Praktikum/waehrer_HTS_screening/HTS_experiment/out/docking_results/vina_output/3npc/0469_docked.pdbqt
 OpenBabel03192219383D

 32 36  0  0  0  0  0  0  0  0999 V2000
   55.6250   87.1700   23.7100 N   0  0  0  0  0  0  0  0  0  0  0  0
   56.3600   86.6000   22.6840 C   0  0  0  0  0  2  0  0  0  0  0  0
   56.8570   87.4260   21.5600 C   0  0  0  0  0  2  0  0  0  0  0  0
   56.1080   88.6490   21.5160 N   0  0  0  0  0  0  0  0  0  0  0  0
   56.1140   89.3870   22.7540 C   0  0  0  0  0  2  0  0  0  0  0  0
   55.3540   88.5540   23.7530 C   0  0  0  0  0  2  0  0  0  0  0  0
   55.7500   86.5460   25.0060 C   0  0  0  0  0  2  0  0  0  0  0  0
   54.8300   85.3520   25.1380 C   0  0  0  0  0  0  0  0  0  0  0  0
   53.4480   85.5740   24.9630 N   0  0  0  0  0  0  0  0  0  0  0  0
   53.1370   86.5720   24.7470 H   0  0  0  0  0  0  0  0  0  0  0  0
   55.3640   84.2600   25.3920 O   0  0  0  0  0  0  0  0  0  0  0  0
   52.4420   84.5820   25.0510 C   0  0  0  0  0  0  0  0  0  0  0  0
   52.1020   83.8870   23.8810 C   0  0  0  0  0  0  0  0  0  0  0  0
   53.0090   84.3220   22.2710 Br  0  0  0  0  0  0  0  0  0  0  0  0
   51.1280   82.9180   23.9230 C   0  0  0  0  0  3  0  0  0  0  0  0
   50.4720   82.5990   25.0710 C   0  0  0  0  0  0  0  0  0  0  0  0
   50.7850   83.2630   26.2370 C   0  0  0  0  0  0  0  0  0  0  0  0
   49.4830   81.6280   25.1590 O   0  0  0  0  0  0  0  0  0  0  0  0
   51.7730   84.2540   26.2170 C   0  0  0  0  0  3  0  0  0  0  0  0
   50.1100   82.9240   27.3820 O   0  0  0  0  0  0  0  0  0  0  0  0
   48.8340   82.3330   27.4030 C   0  0  0  0  0  2  0  0  0  0  0  0
   48.3900   81.8360   26.0640 C   0  0  0  0  0  2  0  0  0  0  0  0
   55.4030   89.1590   20.4140 C   0  0  0  0  0  0  0  0  0  0  0  0
   55.7720   90.2710   19.7280 N   0  0  0  0  0  0  0  0  0  0  0  0
   55.0760   90.7340   18.6740 C   0  0  0  0  0  3  0  0  0  0  0  0
   53.9660   90.1070   18.2460 N   0  0  0  0  0  0  0  0  0  0  0  0
   53.5240   88.9940   18.8660 C   0  0  0  0  0  0  0  0  0  0  0  0
   52.4620   88.1740   18.6590 N   0  0  0  0  0  0  0  0  0  0  0  0
   54.2450   88.5340   19.9390 C   0  0  0  0  0  0  0  0  0  0  0  0
   52.5350   87.2350   19.5850 N   0  0  0  0  0  0  0  0  0  0  0  0
   51.4550   88.3280   17.6080 C   0  0  0  0  0  1  0  0  0  0  0  0
   53.5910   87.4060   20.3830 C   0  0  0  0  0  3  0  0  0  0  0  0
  1  6  1  0  0  0  0
  1  7  1  0  0  0  0
  2  1  1  0  0  0  0
  3  2  1  0  0  0  0
  4  3  1  0  0  0  0
  4  5  1  0  0  0  0
  5  6  1  0  0  0  0
  7  8  1  0  0  0  0
  8 11  2  0  0  0  0
  9 12  1  0  0  0  0
  9  8  1  0  0  0  0
 10  9  1  0  0  0  0
 12 19  1  0  0  0  0
 13 15  1  0  0  0  0
 13 12  2  0  0  0  0
 14 13  1  0  0  0  0
 15 16  2  0  0  0  0
 16 18  1  0  0  0  0
 16 17  1  0  0  0  0
 17 20  1  0  0  0  0
 18 22  1  0  0  0  0
 19 17  2  0  0  0  0
 20 21  1  0  0  0  0
 22 21  1  0  0  0  0
 23  4  1  0  0  0  0
 24 23  2  0  0  0  0
 25 24  1  0  0  0  0
 26 25  2  0  0  0  0
 26 27  1  0  0  0  0
 27 29  2  0  0  0  0
 28 27  1  0  0  0  0
 28 30  1  0  0  0  0
 29 32  1  0  0  0  0
 29 23  1  0  0  0  0
 30 32  2  0  0  0  0
 31 28  1  0  0  0  0
M  END
>  <Pose>
1

>  <Score>
-7.998

$$$$
