/Users/jonathanwahrer/Desktop/Msc/3_Semester/Drug_Design_Praktikum/waehrer_HTS_screening/HTS_experiment/out/docking_results/vina_output/3npc/0471_docked.pdbqt
 OpenBabel03192219393D

 27 30  0  0  0  0  0  0  0  0999 V2000
   56.2220   87.2640   21.8070 C   0  0  0  0  0  0  0  0  0  0  0  0
   57.1380   86.6200   21.2180 O   0  0  0  0  0  0  0  0  0  0  0  0
   56.0590   88.6370   21.5340 N   0  0  0  0  0  0  0  0  0  0  0  0
   56.9430   89.2700   20.5890 C   0  0  0  0  0  2  0  0  0  0  0  0
   56.2030   89.9770   19.4730 C   0  0  0  0  0  2  0  0  0  0  0  0
   54.9630   90.4370   19.9780 N   0  0  0  0  0  0  0  0  0  0  0  0
   55.0230   90.7980   21.3400 C   0  0  0  0  0  2  0  0  0  0  0  0
   55.0550   89.4810   22.1370 C   0  0  0  0  0  2  0  0  0  0  0  0
   55.3700   86.5350   22.7540 C   0  0  0  0  0  0  0  0  0  0  0  0
   55.5470   86.7040   24.1080 C   0  0  0  0  0  3  0  0  0  0  0  0
   54.7700   86.0400   25.0340 C   0  0  0  0  0  0  0  0  0  0  0  0
   53.7850   85.1780   24.5860 C   0  0  0  0  0  0  0  0  0  0  0  0
   54.9420   86.2040   26.2870 O   0  0  0  0  0  0  0  0  0  0  0  0
   53.6580   85.0500   23.2170 C   0  0  0  0  0  0  0  0  0  0  0  0
   52.9980   84.5030   25.4860 C   0  0  0  0  0  3  0  0  0  0  0  0
   52.6690   84.1840   22.7740 C   0  0  0  0  0  3  0  0  0  0  0  0
   54.4250   85.7080   22.3820 O   0  0  0  0  0  0  0  0  0  0  0  0
   51.8600   83.4910   23.6580 C   0  0  0  0  0  0  0  0  0  0  0  0
   50.5110   82.3090   23.0090 Br  0  0  0  0  0  0  0  0  0  0  0  0
   52.0250   83.6520   25.0210 C   0  0  0  0  0  3  0  0  0  0  0  0
   53.8000   89.7890   19.5200 C   0  0  0  0  0  2  0  0  0  0  0  0
   52.7410   90.6640   19.0260 C   0  0  0  0  0  0  0  0  0  0  0  0
   51.5740   90.9020   19.6460 N   0  0  0  0  0  0  0  0  0  0  0  0
   50.9080   91.7170   18.9080 O   0  0  0  0  0  0  0  0  0  0  0  0
   51.5740   92.0340   17.8260 N   0  0  0  0  0  0  0  0  0  0  0  0
   52.7560   91.3800   17.8610 C   0  0  0  0  0  0  0  0  0  0  0  0
   53.8430   91.4350   16.8370 C   0  0  0  0  0  1  0  0  0  0  0  0
  1  9  1  0  0  0  0
  2  1  2  0  0  0  0
  3  1  1  0  0  0  0
  3  8  1  0  0  0  0
  4  3  1  0  0  0  0
  5  6  1  0  0  0  0
  5  4  1  0  0  0  0
  6  7  1  0  0  0  0
  7  8  1  0  0  0  0
  9 10  2  0  0  0  0
 10 11  1  0  0  0  0
 11 13  2  0  0  0  0
 12 11  1  0  0  0  0
 12 15  1  0  0  0  0
 14 12  2  0  0  0  0
 16 14  1  0  0  0  0
 16 18  2  0  0  0  0
 17  9  1  0  0  0  0
 17 14  1  0  0  0  0
 18 20  1  0  0  0  0
 19 18  1  0  0  0  0
 20 15  2  0  0  0  0
 21  6  1  0  0  0  0
 22 21  1  0  0  0  0
 22 23  2  0  0  0  0
 24 23  1  0  0  0  0
 25 26  2  0  0  0  0
 25 24  1  0  0  0  0
 26 22  1  0  0  0  0
 27 26  1  0  0  0  0
M  END
>  <Pose>
1

>  <Score>
-8.505

$$$$
