MODEL 1
REMARK VINA RESULT:    -8.942      0.000      0.000
REMARK INTER + INTRA:         -12.029
REMARK INTER:                 -11.556
REMARK INTRA:                  -0.472
REMARK UNBOUND:                -0.472
REMARK  5 active torsions:
REMARK  status: ('A' for Active; 'I' for Inactive)
REMARK    1  A    between atoms: N_10  and  C_13 
REMARK    2  A    between atoms: C_13  and  C_14 
REMARK    3  A    between atoms: C_14  and  C_15 
REMARK    4  A    between atoms: C_15  and  C_16 
REMARK       I    between atoms: C_16  and  N_18 
REMARK    5  A    between atoms: N_21  and  C_24 
ROOT
ATOM      1  C   UNK d   1      51.431  98.898  29.490  0.00  0.00     0.104 C 
ENDROOT
BRANCH   1   2
ATOM      2  C   UNK d   1      52.299  98.692  28.281  0.00  0.00     0.029 C 
BRANCH   2   3
ATOM      3  C   UNK d   1      53.479  97.868  28.643  0.00  0.00     0.136 C 
BRANCH   3   4
ATOM      4  N   UNK d   1      53.963  97.041  27.559  0.00  0.00    -0.280 N 
ATOM      5  C   UNK d   1      55.306  97.073  27.100  0.00  0.00     0.261 A 
ATOM      6  C   UNK d   1      55.436  96.122  26.010  0.00  0.00     0.048 A 
ATOM      7  O   UNK d   1      56.265  97.789  27.532  0.00  0.00    -0.267 OA
ATOM      8  C   UNK d   1      54.196  95.540  25.828  0.00  0.00     0.049 A 
ATOM      9  C   UNK d   1      56.505  95.757  25.218  0.00  0.00     0.019 A 
ATOM     10  C   UNK d   1      54.073  94.590  24.831  0.00  0.00     0.037 A 
ATOM     11  C   UNK d   1      53.244  96.105  26.796  0.00  0.00     0.261 A 
ATOM     12  C   UNK d   1      55.150  94.233  24.045  0.00  0.00     0.011 A 
ATOM     13 Br   UNK d   1      54.907  92.913  22.689  0.00  0.00    -0.051 Br
ATOM     14  C   UNK d   1      56.390  94.809  24.221  0.00  0.00     0.020 A 
ATOM     15  O   UNK d   1      52.027  95.788  26.897  0.00  0.00    -0.267 OA
ENDBRANCH   3   4
ENDBRANCH   2   3
ENDBRANCH   1   2
BRANCH   1  16
ATOM     16  C   UNK d   1      49.977  98.892  29.206  0.00  0.00     0.219 C 
ATOM     17  O   UNK d   1      49.286  97.844  29.131  0.00  0.00    -0.273 OA
ATOM     18  N   UNK d   1      49.269 100.130  28.995  0.00  0.00    -0.349 N 
ATOM     19  C   UNK d   1      47.851 100.135  28.719  0.00  0.00     0.145 C 
ATOM     20  C   UNK d   1      49.936 101.418  29.049  0.00  0.00     0.145 C 
ATOM     21  C   UNK d   1      47.100 101.176  29.480  0.00  0.00     0.144 C 
ATOM     22  N   UNK d   1      47.921 101.993  30.341  0.00  0.00    -0.362 N 
ATOM     23  C   UNK d   1      49.306 102.298  30.101  0.00  0.00     0.144 C 
BRANCH  22  24
ATOM     24  C   UNK d   1      47.315 102.537  31.518  0.00  0.00     0.143 A 
ATOM     25  N   UNK d   1      48.050 103.174  32.469  0.00  0.00    -0.241 NA
ATOM     26  C   UNK d   1      47.524 103.695  33.577  0.00  0.00     0.138 A 
ATOM     27  C   UNK d   1      46.157 103.587  33.783  0.00  0.00     0.135 A 
ATOM     28  N   UNK d   1      45.396 102.958  32.856  0.00  0.00    -0.268 NA
ATOM     29  C   UNK d   1      45.962 102.446  31.751  0.00  0.00     0.166 A 
ENDBRANCH  22  24
ENDBRANCH   1  16
TORSDOF 5
ENDMDL
