/Users/jonathanwahrer/Desktop/Msc/3_Semester/Drug_Design_Praktikum/waehrer_HTS_screening/HTS_experiment/out/docking_results/vina_output/3npc/0484_docked.pdbqt
 OpenBabel03192219403D

 35 38  0  0  1  0  0  0  0  0999 V2000
   56.9250   87.8960   24.9370 Br  0  0  0  0  0  0  0  0  0  0  0  0
   56.3020   88.6410   23.2930 C   0  0  0  0  0  0  0  0  0  0  0  0
   55.7920   89.9460   23.2240 C   0  0  0  0  0  3  0  0  0  0  0  0
   55.3850   90.3770   21.9950 C   0  0  0  0  0  0  0  0  0  0  0  0
   55.4440   89.6130   20.8470 C   0  0  0  0  0  0  0  0  0  0  0  0
   55.9400   88.3310   20.9190 C   0  0  0  0  0  3  0  0  0  0  0  0
   56.3750   87.8550   22.1640 C   0  0  0  0  0  3  0  0  0  0  0  0
   54.9530   90.3180   19.7140 N   0  0  0  0  0  0  0  0  0  0  0  0
   54.5460   91.6240   20.2000 C   0  0  0  0  0  0  0  0  0  0  0  0
   54.0740   92.5380   19.4930 O   0  0  0  0  0  0  0  0  0  0  0  0
   54.8110   91.6320   21.6210 C   0  0  1  0  0  3  0  0  0  0  0  0
   54.4690   92.5050   22.4890 N   0  0  0  0  0  2  0  0  0  0  0  0
   54.7320   93.0580   23.4810 N   0  0  0  0  0  0  0  0  0  0  0  0
   55.0570   93.7110   24.6920 C   0  0  0  0  0  0  0  0  0  0  0  0
   55.1260   91.8850   24.1110 H   0  0  0  0  0  0  0  0  0  0  0  0
   55.5710   93.3260   25.7180 O   0  0  0  0  0  0  0  0  0  0  0  0
   54.6240   95.1920   24.6020 C   0  0  0  0  0  2  0  0  0  0  0  0
   55.2960   95.8180   25.7160 O   0  0  0  0  0  0  0  0  0  0  0  0
   54.4480   96.6050   26.5470 N   0  0  0  0  0  0  0  0  0  0  0  0
   53.2240   96.2980   26.7300 C   0  0  0  0  0  3  0  0  0  0  0  0
   52.3800   97.1220   27.5650 C   0  0  0  0  0  0  0  0  0  0  0  0
   51.0260   97.0940   27.5870 C   0  0  0  0  0  3  0  0  0  0  0  0
   50.3870   98.0410   28.4270 C   0  0  0  0  0  3  0  0  0  0  0  0
   50.9750   98.9460   29.2070 C   0  0  0  0  0  0  0  0  0  0  0  0
   52.3270   98.9310   29.1540 C   0  0  0  0  0  3  0  0  0  0  0  0
   53.1070   98.1240   28.4160 C   0  0  0  0  0  3  0  0  0  0  0  0
   50.2160   99.8190   29.9950 O   0  0  0  0  0  0  0  0  0  0  0  0
   49.4030  100.8190   29.3920 C   0  0  0  0  0  1  0  0  0  0  0  0
   54.8700   89.9650   18.3070 C   0  0  0  0  0  2  0  0  0  0  0  0
   53.7070   89.2840   18.0100 N   0  0  0  0  0  0  0  0  0  0  0  0
   53.2990   88.4290   19.0500 C   0  0  0  0  0  2  0  0  0  0  0  0
   51.7930   88.5790   19.2760 C   0  0  0  0  0  2  0  0  0  0  0  0
   51.6270   89.9830   19.4240 O   0  0  0  0  0  0  0  0  0  0  0  0
   51.7030   90.5880   18.1630 C   0  0  0  0  0  2  0  0  0  0  0  0
   52.7310   89.9720   17.2660 C   0  0  0  0  0  2  0  0  0  0  0  0
  2  1  1  0  0  0  0
  3  2  1  0  0  0  0
  4  3  2  0  0  0  0
  5  6  2  0  0  0  0
  5  4  1  0  0  0  0
  6  7  1  0  0  0  0
  7  2  2  0  0  0  0
  8  9  1  0  0  0  0
  8  5  1  0  0  0  0
  9 11  1  0  0  0  0
 10  9  2  0  0  0  0
 11  4  1  0  0  0  0
 11 12  1  1  0  0  0
 12 13  1  0  0  0  0
 13 15  1  0  0  0  0
 13 14  1  0  0  0  0
 14 16  2  0  0  0  0
 17 14  1  0  0  0  0
 17 18  1  0  0  0  0
 18 19  1  0  0  0  0
 19 20  2  0  0  0  0
 20 21  1  0  0  0  0
 21 22  2  0  0  0  0
 21 26  1  0  0  0  0
 22 23  1  0  0  0  0
 23 24  2  0  0  0  0
 24 27  1  0  0  0  0
 25 24  1  0  0  0  0
 26 25  2  0  0  0  0
 28 27  1  0  0  0  0
 29  8  1  0  0  0  0
 30 29  1  0  0  0  0
 30 31  1  0  0  0  0
 31 32  1  0  0  0  0
 32 33  1  0  0  0  0
 34 33  1  0  0  0  0
 35 30  1  0  0  0  0
 35 34  1  0  0  0  0
M  END
>  <Pose>
1

>  <Score>
-9.679

$$$$
