/Users/jonathanwahrer/Desktop/Msc/3_Semester/Drug_Design_Praktikum/waehrer_HTS_screening/HTS_experiment/out/docking_results/vina_output/3npc/0500_docked.pdbqt
 OpenBabel03192219403D

 32 35  0  0  1  0  0  0  0  0999 V2000
   49.3690   86.6370   28.3220 Br  0  0  0  0  0  0  0  0  0  0  0  0
   50.7930   85.4500   27.8020 C   0  0  0  0  0  0  0  0  0  0  0  0
   51.0120   85.0550   26.5140 C   0  0  0  0  0  3  0  0  0  0  0  0
   52.0200   84.1840   26.1900 C   0  0  0  0  0  0  0  0  0  0  0  0
   52.8020   83.7230   27.2100 C   0  0  0  0  0  0  0  0  0  0  0  0
   52.6010   84.1140   28.5400 C   0  0  0  0  0  3  0  0  0  0  0  0
   51.5830   84.9910   28.8550 C   0  0  0  0  0  3  0  0  0  0  0  0
   53.7710   82.8050   26.7410 N   0  0  0  0  0  0  0  0  0  0  0  0
   53.5910   82.6780   25.3660 C   0  0  0  0  0  0  0  0  0  0  0  0
   54.2820   81.9170   24.6390 O   0  0  0  0  0  0  0  0  0  0  0  0
   52.4660   83.5800   24.9220 C   0  0  2  0  0  0  0  0  0  0  0  0
   53.0700   84.4750   23.9460 C   0  0  0  0  0  0  0  0  0  0  0  0
   52.6910   84.4180   22.6390 C   0  0  0  0  0  0  0  0  0  0  0  0
   53.4280   85.3550   21.9800 N   0  0  0  0  0  0  0  0  0  0  0  0
   54.2200   85.9590   22.8280 N   0  0  0  0  0  0  0  0  0  0  0  0
   54.0560   85.4650   24.0770 C   0  0  0  0  0  0  0  0  0  0  0  0
   51.7160   83.5190   22.1640 O   0  0  0  0  0  0  0  0  0  0  0  0
   51.1450   82.6730   23.0960 C   0  0  0  0  0  0  0  0  0  0  0  0
   51.4700   82.6810   24.3580 C   0  0  0  0  0  0  0  0  0  0  0  0
   50.8120   81.7370   25.2670 C   0  0  0  0  0  0  0  0  0  0  0  0
   50.2840   81.0150   25.9820 N   0  0  0  0  0  0  0  0  0  0  0  0
   54.7860   82.1120   27.5600 C   0  0  0  0  0  1  0  0  0  0  0  0
   54.9120   86.7350   22.6160 H   0  0  0  0  0  0  0  0  0  0  0  0
   50.1440   81.7470   22.6100 N   0  0  0  0  0  0  0  0  0  0  0  0
   49.6160   81.8850   21.7310 H   0  0  0  0  0  0  0  0  0  0  0  0
   49.9530   80.9060   23.1790 H   0  0  0  0  0  0  0  0  0  0  0  0
   54.7820   85.9380   25.2830 C   0  0  0  0  0  2  0  0  0  0  0  0
   56.2020   85.5250   25.2580 C   0  0  0  0  0  0  0  0  0  0  0  0
   56.6150   84.3370   25.2710 O   0  0  0  0  0  0  0  0  0  0  0  0
   57.1490   86.5230   25.2180 O   0  0  0  0  0  0  0  0  0  0  0  0
   57.4310   87.3570   24.1260 C   0  0  0  0  0  2  0  0  0  0  0  0
   57.7010   86.5170   22.9000 C   0  0  0  0  0  1  0  0  0  0  0  0
  2  1  1  0  0  0  0
  2  7  1  0  0  0  0
  3  2  2  0  0  0  0
  4  3  1  0  0  0  0
  4  5  2  0  0  0  0
  5  6  1  0  0  0  0
  6  7  2  0  0  0  0
  8  5  1  0  0  0  0
  8 22  1  0  0  0  0
  9  8  1  0  0  0  0
 10  9  2  0  0  0  0
 11 12  1  6  0  0  0
 11  9  1  0  0  0  0
 11  4  1  0  0  0  0
 12 16  2  0  0  0  0
 13 12  1  0  0  0  0
 14 13  2  0  0  0  0
 14 15  1  0  0  0  0
 15 16  1  0  0  0  0
 16 27  1  0  0  0  0
 17 13  1  0  0  0  0
 17 18  1  0  0  0  0
 18 19  2  0  0  0  0
 19 11  1  0  0  0  0
 19 20  1  0  0  0  0
 20 21  3  0  0  0  0
 23 15  1  0  0  0  0
 24 18  1  0  0  0  0
 24 26  1  0  0  0  0
 25 24  1  0  0  0  0
 28 29  2  0  0  0  0
 28 27  1  0  0  0  0
 30 28  1  0  0  0  0
 31 30  1  0  0  0  0
 32 31  1  0  0  0  0
M  END
>  <Pose>
1

>  <Score>
-6.652

$$$$
