MODEL 1
REMARK VINA RESULT:    -6.605      0.000      0.000
REMARK INTER + INTRA:          -6.798
REMARK INTER:                  -6.798
REMARK INTRA:                   0.000
REMARK UNBOUND:                 0.000
REMARK  1 active torsions:
REMARK  status: ('A' for Active; 'I' for Inactive)
REMARK    1  A    between atoms: C_19  and  N_23 
ROOT
ATOM      1 Br   UNK d   1      47.968  79.856  29.208  0.00  0.00    -0.051 Br
ATOM      2  C   UNK d   1      48.710  81.440  30.017  0.00  0.00     0.011 A 
ATOM      3  C   UNK d   1      49.829  82.038  29.501  0.00  0.00     0.030 A 
ATOM      4  C   UNK d   1      50.342  83.172  30.096  0.00  0.00    -0.002 A 
ATOM      5  C   UNK d   1      49.696  83.658  31.200  0.00  0.00     0.045 A 
ATOM      6  C   UNK d   1      48.544  83.040  31.730  0.00  0.00     0.031 A 
ATOM      7  C   UNK d   1      48.048  81.916  31.125  0.00  0.00     0.021 A 
ATOM      8  N   UNK d   1      50.341  84.825  31.699  0.00  0.00    -0.320 N 
ATOM      9  C   UNK d   1      51.444  85.092  30.878  0.00  0.00     0.247 A 
ATOM     10  O   UNK d   1      52.249  86.061  31.029  0.00  0.00    -0.271 OA
ATOM     11  C   UNK d   1      51.506  84.043  29.801  0.00  0.00     0.145 A 
ATOM     12  C   UNK d   1      51.378  84.760  28.537  0.00  0.00     0.049 A 
ATOM     13  C   UNK d   1      52.386  84.765  27.624  0.00  0.00     0.200 A 
ATOM     14  N   UNK d   1      51.952  85.516  26.569  0.00  0.00    -0.148 NA
ATOM     15  N   UNK d   1      50.736  85.965  26.799  0.00  0.00    -0.280 N 
ATOM     16  C   UNK d   1      50.344  85.527  27.994  0.00  0.00     0.036 A 
ATOM     17  C   UNK d   1      49.050  85.759  28.709  0.00  0.00     0.070 C 
ATOM     18  O   UNK d   1      53.596  84.093  27.826  0.00  0.00    -0.272 OA
ATOM     19  C   UNK d   1      53.714  83.411  29.033  0.00  0.00     0.162 A 
ATOM     20  C   UNK d   1      52.782  83.369  29.949  0.00  0.00     0.100 A 
ATOM     21  C   UNK d   1      53.081  82.596  31.167  0.00  0.00     0.101 C 
ATOM     22  N   UNK d   1      53.296  81.988  32.141  0.00  0.00    -0.191 NA
ATOM     23  C   UNK d   1      49.933  85.619  32.869  0.00  0.00     0.159 C 
ATOM     24  H   UNK d   1      50.132  86.568  26.183  0.00  0.00     0.189 HD
ENDROOT
BRANCH  19  25
ATOM     25  N   UNK d   1      54.952  82.692  29.301  0.00  0.00    -0.379 N 
ATOM     26  H   UNK d   1      55.098  81.847  28.714  0.00  0.00     0.158 HD
ATOM     27  H   UNK d   1      55.629  82.982  30.003  0.00  0.00     0.158 HD
ENDBRANCH  19  25
TORSDOF 1
ENDMDL
