MODEL 1
REMARK VINA RESULT:    -7.001      0.000      0.000
REMARK INTER + INTRA:          -7.206
REMARK INTER:                  -7.206
REMARK INTRA:                   0.000
REMARK UNBOUND:                 0.000
REMARK  1 active torsions:
REMARK  status: ('A' for Active; 'I' for Inactive)
REMARK    1  A    between atoms: C_15  and  N_19 
ROOT
ATOM      1 Br   UNK d   1      53.570  80.285  29.718  0.00  0.00    -0.051 Br
ATOM      2  C   UNK d   1      52.606  81.843  29.219  0.00  0.00     0.011 A 
ATOM      3  C   UNK d   1      51.555  82.342  29.952  0.00  0.00     0.030 A 
ATOM      4  C   UNK d   1      50.898  83.492  29.517  0.00  0.00    -0.002 A 
ATOM      5  C   UNK d   1      51.241  84.162  28.392  0.00  0.00     0.045 A 
ATOM      6  C   UNK d   1      52.309  83.656  27.647  0.00  0.00     0.031 A 
ATOM      7  C   UNK d   1      52.970  82.521  28.061  0.00  0.00     0.021 A 
ATOM      8  N   UNK d   1      50.421  85.294  28.173  0.00  0.00    -0.320 N 
ATOM      9  C   UNK d   1      49.490  85.354  29.228  0.00  0.00     0.247 A 
ATOM     10  O   UNK d   1      48.592  86.227  29.379  0.00  0.00    -0.271 OA
ATOM     11  C   UNK d   1      49.741  84.208  30.147  0.00  0.00     0.146 A 
ATOM     12  C   UNK d   1      48.560  83.309  30.188  0.00  0.00     0.071 A 
ATOM     13  C   UNK d   1      47.998  82.955  31.286  0.00  0.00     0.060 A 
ATOM     14  N   UNK d   1      48.466  83.403  32.589  0.00  0.00    -0.342 N 
ATOM     15  C   UNK d   1      49.590  84.258  32.564  0.00  0.00     0.118 A 
ATOM     16  C   UNK d   1      50.176  84.630  31.459  0.00  0.00     0.093 A 
ATOM     17  C   UNK d   1      51.326  85.517  31.590  0.00  0.00     0.101 C 
ATOM     18  N   UNK d   1      52.241  86.223  31.672  0.00  0.00    -0.191 NA
ATOM     19  C   UNK d   1      46.847  82.055  30.969  0.00  0.00     0.106 A 
ATOM     20  O   UNK d   1      46.833  81.950  29.593  0.00  0.00    -0.301 OA
ATOM     21  C   UNK d   1      47.839  82.679  29.035  0.00  0.00     0.294 A 
ATOM     22  O   UNK d   1      48.154  82.837  27.817  0.00  0.00    -0.259 OA
ATOM     23  C   UNK d   1      45.566  82.628  31.545  0.00  0.00     0.053 C 
ATOM     24  C   UNK d   1      47.075  80.670  31.544  0.00  0.00     0.053 C 
ATOM     25  C   UNK d   1      50.493  86.256  27.062  0.00  0.00     0.159 C 
ATOM     26  H   UNK d   1      47.976  83.087  33.443  0.00  0.00     0.167 HD
ENDROOT
BRANCH  15  27
ATOM     27  N   UNK d   1      50.102  84.737  33.838  0.00  0.00    -0.384 N 
ATOM     28  H   UNK d   1      49.871  84.171  34.680  0.00  0.00     0.157 HD
ATOM     29  H   UNK d   1      50.665  85.596  33.903  0.00  0.00     0.157 HD
ENDBRANCH  15  27
TORSDOF 1
ENDMDL
