MODEL 1
REMARK VINA RESULT:    -7.405      0.000      0.000
REMARK INTER + INTRA:          -8.359
REMARK INTER:                  -8.271
REMARK INTRA:                  -0.088
REMARK UNBOUND:                -0.088
REMARK  3 active torsions:
REMARK  status: ('A' for Active; 'I' for Inactive)
REMARK    1  A    between atoms: C_15  and  N_19 
REMARK    2  A    between atoms: C_23  and  C_25 
REMARK    3  A    between atoms: C_25  and  O_26 
ROOT
ATOM      1 Br   UNK d   1      49.588  82.042  23.010  0.00  0.00    -0.051 Br
ATOM      2  C   UNK d   1      50.939  83.006  23.942  0.00  0.00     0.011 A 
ATOM      3  C   UNK d   1      50.970  82.984  25.319  0.00  0.00     0.030 A 
ATOM      4  C   UNK d   1      51.952  83.684  26.027  0.00  0.00     0.000 A 
ATOM      5  C   UNK d   1      52.870  84.382  25.310  0.00  0.00     0.045 A 
ATOM      6  C   UNK d   1      52.836  84.404  23.900  0.00  0.00     0.031 A 
ATOM      7  C   UNK d   1      51.867  83.712  23.211  0.00  0.00     0.021 A 
ATOM      8  N   UNK d   1      53.771  85.016  26.208  0.00  0.00    -0.320 N 
ATOM      9  C   UNK d   1      53.414  84.711  27.534  0.00  0.00     0.249 A 
ATOM     10  O   UNK d   1      53.980  85.093  28.588  0.00  0.00    -0.271 OA
ATOM     11  C   UNK d   1      52.211  83.828  27.490  0.00  0.00     0.163 A 
ATOM     12  C   UNK d   1      51.074  84.456  28.171  0.00  0.00     0.119 A 
ATOM     13  C   UNK d   1      50.409  83.831  29.175  0.00  0.00     0.159 A 
ATOM     14  O   UNK d   1      50.802  82.555  29.591  0.00  0.00    -0.286 OA
ATOM     15  C   UNK d   1      51.867  81.920  28.984  0.00  0.00     0.161 A 
ATOM     16  C   UNK d   1      52.519  82.496  28.020  0.00  0.00     0.102 A 
ATOM     17  C   UNK d   1      53.639  81.747  27.433  0.00  0.00     0.101 C 
ATOM     18  N   UNK d   1      54.501  81.164  26.970  0.00  0.00    -0.191 NA
ATOM     19  C   UNK d   1      49.330  84.469  29.793  0.00  0.00     0.210 A 
ATOM     20  O   UNK d   1      48.728  83.883  30.717  0.00  0.00    -0.285 OA
ATOM     21  C   UNK d   1      48.957  85.724  29.374  0.00  0.00     0.092 A 
ATOM     22  C   UNK d   1      49.668  86.310  28.348  0.00  0.00     0.080 A 
ATOM     23  O   UNK d   1      50.655  85.674  27.815  0.00  0.00    -0.312 OA
ATOM     24  C   UNK d   1      54.896  85.858  25.758  0.00  0.00     0.159 C 
ENDROOT
BRANCH  15  25
ATOM     25  N   UNK d   1      52.212  80.610  29.464  0.00  0.00    -0.379 N 
ATOM     26  H   UNK d   1      53.166  80.440  29.776  0.00  0.00     0.158 HD
ATOM     27  H   UNK d   1      51.488  79.892  29.476  0.00  0.00     0.158 HD
ENDBRANCH  15  25
BRANCH  22  28
ATOM     28  C   UNK d   1      49.276  87.692  27.869  0.00  0.00     0.229 C 
BRANCH  28  29
ATOM     29  O   UNK d   1      49.304  87.715  26.474  0.00  0.00    -0.394 OA
ATOM     30  H   UNK d   1      48.464  87.292  26.123  0.00  0.00     0.209 HD
ENDBRANCH  28  29
ENDBRANCH  22  28
TORSDOF 3
ENDMDL
