MODEL 1
REMARK VINA RESULT:    -7.504      0.000      0.000
REMARK INTER + INTRA:          -8.787
REMARK INTER:                  -8.381
REMARK INTRA:                  -0.406
REMARK UNBOUND:                -0.406
REMARK  2 active torsions:
REMARK  status: ('A' for Active; 'I' for Inactive)
REMARK    1  A    between atoms: N_18  and  C_21 
REMARK    2  A    between atoms: C_21  and  C_22 
ROOT
ATOM      1 Br   UNK d   1      50.164  84.784  30.692  0.00  0.00    -0.051 Br
ATOM      2  C   UNK d   1      51.569  84.141  29.574  0.00  0.00     0.011 A 
ATOM      3  C   UNK d   1      51.452  84.102  28.189  0.00  0.00     0.031 A 
ATOM      4  C   UNK d   1      52.465  83.639  27.393  0.00  0.00     0.019 A 
ATOM      5  C   UNK d   1      53.622  83.207  28.023  0.00  0.00     0.044 A 
ATOM      6  C   UNK d   1      53.745  83.243  29.396  0.00  0.00     0.031 A 
ATOM      7  C   UNK d   1      52.720  83.710  30.186  0.00  0.00     0.021 A 
ATOM      8  N   UNK d   1      54.574  82.762  27.054  0.00  0.00    -0.324 N 
ATOM      9  C   UNK d   1      54.013  82.913  25.767  0.00  0.00     0.267 A 
ATOM     10  O   UNK d   1      54.594  82.619  24.713  0.00  0.00    -0.270 OA
ATOM     11  C   UNK d   1      52.656  83.468  25.954  0.00  0.00     0.281 A 
ATOM     12  N   UNK d   1      51.742  82.582  25.299  0.00  0.00     0.118 N 
ATOM     13  C   UNK d   1      51.917  82.879  23.878  0.00  0.00     0.239 C 
ATOM     14  C   UNK d   1      52.247  84.332  23.790  0.00  0.00     0.128 C 
ATOM     15  C   UNK d   1      52.451  84.759  25.202  0.00  0.00     0.147 C 
ATOM     16  C   UNK d   1      53.636  85.611  25.171  0.00  0.00     0.235 C 
ATOM     17  O   UNK d   1      54.079  86.299  26.118  0.00  0.00    -0.272 OA
ATOM     18  N   UNK d   1      54.224  85.546  23.896  0.00  0.00    -0.285 N 
ATOM     19  C   UNK d   1      53.543  84.581  23.080  0.00  0.00     0.233 C 
ATOM     20  O   UNK d   1      53.920  84.044  22.009  0.00  0.00    -0.272 OA
ATOM     21  C   UNK d   1      50.549  82.663  23.247  0.00  0.00     0.038 C 
ATOM     22  C   UNK d   1      49.641  82.200  24.367  0.00  0.00     0.032 C 
ATOM     23  C   UNK d   1      50.343  82.842  25.571  0.00  0.00     0.275 C 
ATOM     24  H   UNK d   1      55.539  82.384  27.287  0.00  0.00     0.169 HD
ENDROOT
BRANCH  18  25
ATOM     25  C   UNK d   1      55.340  86.316  23.444  0.00  0.00     0.166 C 
BRANCH  25  26
ATOM     26  C   UNK d   1      54.998  87.551  22.694  0.00  0.00     0.140 C 
ATOM     27  O   UNK d   1      54.744  87.336  21.344  0.00  0.00    -0.384 OA
ATOM     28  C   UNK d   1      54.691  88.618  20.813  0.00  0.00     0.168 C 
ATOM     29  C   UNK d   1      55.709  89.458  21.518  0.00  0.00     0.029 C 
ATOM     30  C   UNK d   1      55.991  88.658  22.789  0.00  0.00     0.035 C 
ENDBRANCH  25  26
ENDBRANCH  18  25
TORSDOF 2
ENDMDL
