/Users/jonathanwahrer/Desktop/Msc/3_Semester/Drug_Design_Praktikum/waehrer_HTS_screening/HTS_experiment/out/docking_results/vina_output/3npc/0550_docked.pdbqt
 OpenBabel03192219413D

 30 35  0  0  1  0  0  0  0  0999 V2000
   50.1640   84.7840   30.6920 Br  0  0  0  0  0  0  0  0  0  0  0  0
   51.5690   84.1410   29.5740 C   0  0  0  0  0  0  0  0  0  0  0  0
   51.4520   84.1020   28.1890 C   0  0  0  0  0  3  0  0  0  0  0  0
   52.4650   83.6390   27.3930 C   0  0  0  0  0  0  0  0  0  0  0  0
   53.6220   83.2070   28.0230 C   0  0  0  0  0  0  0  0  0  0  0  0
   53.7450   83.2430   29.3960 C   0  0  0  0  0  3  0  0  0  0  0  0
   52.7200   83.7100   30.1860 C   0  0  0  0  0  3  0  0  0  0  0  0
   54.5740   82.7620   27.0540 N   0  0  0  0  0  0  0  0  0  0  0  0
   54.0130   82.9130   25.7670 C   0  0  0  0  0  0  0  0  0  0  0  0
   54.5940   82.6190   24.7130 O   0  0  0  0  0  0  0  0  0  0  0  0
   52.6560   83.4680   25.9540 C   0  0  1  0  0  0  0  0  0  0  0  0
   51.7420   82.5820   25.2990 N   0  0  2  0  0  0  0  0  0  0  0  0
   51.9170   82.8790   23.8780 C   0  0  2  0  0  3  0  0  0  0  0  0
   52.2470   84.3320   23.7900 C   0  0  1  0  0  3  0  0  0  0  0  0
   52.4510   84.7590   25.2020 C   0  0  2  0  0  3  0  0  0  0  0  0
   53.6360   85.6110   25.1710 C   0  0  0  0  0  0  0  0  0  0  0  0
   54.0790   86.2990   26.1180 O   0  0  0  0  0  0  0  0  0  0  0  0
   54.2240   85.5460   23.8960 N   0  0  0  0  0  0  0  0  0  0  0  0
   53.5430   84.5810   23.0800 C   0  0  0  0  0  0  0  0  0  0  0  0
   53.9200   84.0440   22.0090 O   0  0  0  0  0  0  0  0  0  0  0  0
   50.5490   82.6630   23.2470 C   0  0  0  0  0  2  0  0  0  0  0  0
   49.6410   82.2000   24.3670 C   0  0  0  0  0  2  0  0  0  0  0  0
   50.3430   82.8420   25.5710 C   0  0  0  0  0  2  0  0  0  0  0  0
   55.5390   82.3840   27.2870 H   0  0  0  0  0  0  0  0  0  0  0  0
   55.3400   86.3160   23.4440 C   0  0  0  0  0  2  0  0  0  0  0  0
   54.9980   87.5510   22.6940 C   0  0  2  0  0  3  0  0  0  0  0  0
   54.7440   87.3360   21.3440 O   0  0  0  0  0  0  0  0  0  0  0  0
   54.6910   88.6180   20.8130 C   0  0  0  0  0  2  0  0  0  0  0  0
   55.7090   89.4580   21.5180 C   0  0  0  0  0  2  0  0  0  0  0  0
   55.9910   88.6580   22.7890 C   0  0  0  0  0  2  0  0  0  0  0  0
  2  7  1  0  0  0  0
  2  1  1  0  0  0  0
  3  2  2  0  0  0  0
  4  5  2  0  0  0  0
  4  3  1  0  0  0  0
  5  6  1  0  0  0  0
  6  7  2  0  0  0  0
  8 24  1  0  0  0  0
  8  5  1  0  0  0  0
  9  8  1  0  0  0  0
 10  9  2  0  0  0  0
 11  9  1  6  0  0  0
 11  4  1  0  0  0  0
 12 23  1  1  0  0  0
 12 11  1  0  0  0  0
 13 21  1  6  0  0  0
 13 12  1  0  0  0  0
 14 19  1  6  0  0  0
 14 13  1  0  0  0  0
 14 15  1  0  0  0  0
 15 16  1  6  0  0  0
 15 11  1  0  0  0  0
 16 17  2  0  0  0  0
 18 16  1  0  0  0  0
 19 18  1  0  0  0  0
 20 19  2  0  0  0  0
 21 22  1  0  0  0  0
 22 23  1  0  0  0  0
 25 18  1  0  0  0  0
 26 30  1  0  0  0  0
 26 25  1  6  0  0  0
 27 26  1  0  0  0  0
 28 27  1  0  0  0  0
 28 29  1  0  0  0  0
 29 30  1  0  0  0  0
M  END
>  <Pose>
1

>  <Score>
-7.504

$$$$
