/Users/jonathanwahrer/Desktop/Msc/3_Semester/Drug_Design_Praktikum/waehrer_HTS_screening/HTS_experiment/out/docking_results/vina_output/3npc/0556_docked.pdbqt
 OpenBabel03192219413D

 30 33  0  0  1  0  0  0  0  0999 V2000
   52.8900   80.9740   27.1990 Br  0  0  0  0  0  0  0  0  0  0  0  0
   52.4960   82.4480   28.3440 C   0  0  0  0  0  0  0  0  0  0  0  0
   51.3930   82.3350   29.1540 C   0  0  0  0  0  3  0  0  0  0  0  0
   51.0630   83.3900   30.0120 C   0  0  0  0  0  0  0  0  0  0  0  0
   51.8390   84.5020   30.0240 C   0  0  0  0  0  0  0  0  0  0  0  0
   52.9740   84.6390   29.2010 C   0  0  0  0  0  3  0  0  0  0  0  0
   53.2740   83.5860   28.3690 C   0  0  0  0  0  3  0  0  0  0  0  0
   51.3400   85.4520   30.9480 N   0  0  0  0  0  0  0  0  0  0  0  0
   50.1990   84.9060   31.5380 C   0  0  0  0  0  0  0  0  0  0  0  0
   49.4430   85.4560   32.4290 O   0  0  0  0  0  0  0  0  0  0  0  0
   49.9770   83.5440   30.9670 C   0  0  2  0  0  0  0  0  0  0  0  0
   49.9580   82.6400   32.0880 C   0  0  0  0  0  0  0  0  0  0  0  0
   48.8350   81.9970   32.4500 C   0  0  0  0  0  0  0  0  0  0  0  0
   49.1530   81.2230   33.5410 N   0  0  0  0  0  0  0  0  0  0  0  0
   50.4260   81.3990   33.8210 N   0  0  0  0  0  0  0  0  0  0  0  0
   50.9890   82.2580   32.9700 C   0  0  0  0  0  0  0  0  0  0  0  0
   52.4010   82.7360   32.9290 C   0  0  0  0  0  1  0  0  0  0  0  0
   47.6070   82.1460   31.7810 O   0  0  0  0  0  0  0  0  0  0  0  0
   47.6040   83.0140   30.6960 C   0  0  0  0  0  0  0  0  0  0  0  0
   48.6570   83.6630   30.3010 C   0  0  0  0  0  0  0  0  0  0  0  0
   51.7320   86.4100   31.1760 H   0  0  0  0  0  0  0  0  0  0  0  0
   48.4910   80.6010   34.0580 H   0  0  0  0  0  0  0  0  0  0  0  0
   48.5460   84.5700   29.1230 C   0  0  0  0  0  0  0  0  0  0  0  0
   48.3520   84.0540   28.0070 O   0  0  0  0  0  0  0  0  0  0  0  0
   48.6450   85.9320   29.2130 O   0  0  0  0  0  0  0  0  0  0  0  0
   49.3770   86.7460   28.3280 C   0  0  0  0  0  2  0  0  0  0  0  0
   49.0490   88.2020   28.6750 C   0  0  0  0  0  1  0  0  0  0  0  0
   46.3790   83.2210   29.9570 N   0  0  0  0  0  0  0  0  0  0  0  0
   45.5440   83.4980   30.4770 H   0  0  0  0  0  0  0  0  0  0  0  0
   46.3780   83.0880   28.9450 H   0  0  0  0  0  0  0  0  0  0  0  0
  1  2  1  0  0  0  0
  2  7  2  0  0  0  0
  2  3  1  0  0  0  0
  3  4  2  0  0  0  0
  4  5  1  0  0  0  0
  5  8  1  0  0  0  0
  6  5  2  0  0  0  0
  7  6  1  0  0  0  0
  8 21  1  0  0  0  0
  8  9  1  0  0  0  0
  9 10  2  0  0  0  0
 11  4  1  6  0  0  0
 11  9  1  0  0  0  0
 11 12  1  0  0  0  0
 12 13  2  0  0  0  0
 12 16  1  0  0  0  0
 13 14  1  0  0  0  0
 14 15  1  0  0  0  0
 14 22  1  0  0  0  0
 16 15  2  0  0  0  0
 17 16  1  0  0  0  0
 18 13  1  0  0  0  0
 19 18  1  0  0  0  0
 20 19  2  0  0  0  0
 20 11  1  0  0  0  0
 23 25  1  0  0  0  0
 23 20  1  0  0  0  0
 24 23  2  0  0  0  0
 26 27  1  0  0  0  0
 26 25  1  0  0  0  0
 28 29  1  0  0  0  0
 28 19  1  0  0  0  0
 30 28  1  0  0  0  0
M  END
>  <Pose>
1

>  <Score>
-5.996

$$$$
