MODEL 1
REMARK VINA RESULT:    -7.472      0.000      0.000
REMARK INTER + INTRA:          -7.691
REMARK INTER:                  -7.691
REMARK INTRA:                   0.000
REMARK UNBOUND:                 0.000
REMARK  1 active torsions:
REMARK  status: ('A' for Active; 'I' for Inactive)
REMARK    1  A    between atoms: C_15  and  N_19 
ROOT
ATOM      1 Br   UNK d   1      53.624  80.481  28.901  0.00  0.00    -0.051 Br
ATOM      2  C   UNK d   1      52.622  82.054  28.544  0.00  0.00     0.011 A 
ATOM      3  C   UNK d   1      51.574  82.471  29.371  0.00  0.00     0.030 A 
ATOM      4  C   UNK d   1      50.856  83.607  29.107  0.00  0.00    -0.002 A 
ATOM      5  C   UNK d   1      51.168  84.354  28.009  0.00  0.00     0.043 A 
ATOM      6  C   UNK d   1      52.210  83.978  27.149  0.00  0.00     0.031 A 
ATOM      7  C   UNK d   1      52.913  82.834  27.440  0.00  0.00     0.021 A 
ATOM      8  N   UNK d   1      50.317  85.483  27.908  0.00  0.00    -0.325 N 
ATOM      9  C   UNK d   1      49.429  85.439  28.997  0.00  0.00     0.246 A 
ATOM     10  O   UNK d   1      48.511  86.253  29.281  0.00  0.00    -0.271 OA
ATOM     11  C   UNK d   1      49.729  84.243  29.813  0.00  0.00     0.146 A 
ATOM     12  C   UNK d   1      48.534  83.338  29.831  0.00  0.00     0.071 A 
ATOM     13  C   UNK d   1      47.925  82.908  30.904  0.00  0.00     0.060 A 
ATOM     14  N   UNK d   1      48.419  83.320  32.164  0.00  0.00    -0.342 N 
ATOM     15  C   UNK d   1      49.546  84.177  32.247  0.00  0.00     0.118 A 
ATOM     16  C   UNK d   1      50.160  84.609  31.173  0.00  0.00     0.093 A 
ATOM     17  C   UNK d   1      51.318  85.492  31.346  0.00  0.00     0.101 C 
ATOM     18  N   UNK d   1      52.229  86.194  31.464  0.00  0.00    -0.191 NA
ATOM     19  C   UNK d   1      46.796  82.040  30.489  0.00  0.00     0.106 A 
ATOM     20  O   UNK d   1      46.800  82.001  29.085  0.00  0.00    -0.301 OA
ATOM     21  C   UNK d   1      47.850  82.785  28.648  0.00  0.00     0.294 A 
ATOM     22  O   UNK d   1      48.161  82.983  27.423  0.00  0.00    -0.259 OA
ATOM     23  C   UNK d   1      45.457  82.659  30.896  0.00  0.00     0.053 C 
ATOM     24  C   UNK d   1      46.927  80.647  31.087  0.00  0.00     0.053 C 
ATOM     25  H   UNK d   1      50.360  86.221  27.137  0.00  0.00     0.169 HD
ATOM     26  H   UNK d   1      47.969  83.005  33.062  0.00  0.00     0.167 HD
ENDROOT
BRANCH  15  27
ATOM     27  N   UNK d   1      50.036  84.586  33.553  0.00  0.00    -0.384 N 
ATOM     28  H   UNK d   1      50.683  85.379  33.694  0.00  0.00     0.157 HD
ATOM     29  H   UNK d   1      49.713  84.051  34.376  0.00  0.00     0.157 HD
ENDBRANCH  15  27
TORSDOF 1
ENDMDL
