MODEL 1
REMARK VINA RESULT:    -7.723      0.000      0.000
REMARK INTER + INTRA:          -8.682
REMARK INTER:                  -9.077
REMARK INTRA:                   0.395
REMARK UNBOUND:                 0.395
REMARK  3 active torsions:
REMARK  status: ('A' for Active; 'I' for Inactive)
REMARK    1  A    between atoms: C_13  and  C_25 
REMARK    2  A    between atoms: N_18  and  C_21 
REMARK    3  A    between atoms: C_25  and  C_26 
REMARK       I    between atoms: C_26  and  N_28 
ROOT
ATOM      1 Br   UNK d   1      44.205  81.323  31.434  0.00  0.00    -0.051 Br
ATOM      2  C   UNK d   1      45.529  81.420  30.048  0.00  0.00     0.011 A 
ATOM      3  C   UNK d   1      46.545  82.357  30.076  0.00  0.00     0.031 A 
ATOM      4  C   UNK d   1      47.501  82.435  29.084  0.00  0.00     0.019 A 
ATOM      5  C   UNK d   1      47.390  81.524  28.054  0.00  0.00     0.044 A 
ATOM      6  C   UNK d   1      46.369  80.580  28.021  0.00  0.00     0.031 A 
ATOM      7  C   UNK d   1      45.439  80.524  29.013  0.00  0.00     0.021 A 
ATOM      8  N   UNK d   1      48.455  81.755  27.118  0.00  0.00    -0.324 N 
ATOM      9  C   UNK d   1      49.247  82.837  27.575  0.00  0.00     0.267 A 
ATOM     10  O   UNK d   1      50.248  83.282  26.966  0.00  0.00    -0.270 OA
ATOM     11  C   UNK d   1      48.676  83.306  28.855  0.00  0.00     0.279 A 
ATOM     12  N   UNK d   1      48.326  84.699  28.786  0.00  0.00     0.114 N 
ATOM     13  C   UNK d   1      49.584  85.384  28.997  0.00  0.00     0.245 C 
ATOM     14  C   UNK d   1      50.230  84.605  30.112  0.00  0.00     0.128 C 
ATOM     15  C   UNK d   1      49.711  83.201  29.918  0.00  0.00     0.147 C 
ATOM     16  C   UNK d   1      49.224  82.780  31.240  0.00  0.00     0.235 C 
ATOM     17  O   UNK d   1      48.820  81.635  31.564  0.00  0.00    -0.272 OA
ATOM     18  N   UNK d   1      49.272  83.898  32.156  0.00  0.00    -0.279 N 
ATOM     19  C   UNK d   1      49.771  85.025  31.454  0.00  0.00     0.234 C 
ATOM     20  O   UNK d   1      49.805  86.187  31.924  0.00  0.00    -0.272 OA
ATOM     21  H   UNK d   1      48.583  81.189  26.251  0.00  0.00     0.169 HD
ATOM     22  H   UNK d   1      47.694  84.925  29.571  0.00  0.00     0.318 HD
ENDROOT
BRANCH  13  23
ATOM     23  C   UNK d   1      49.344  86.832  29.331  0.00  0.00     0.139 C 
BRANCH  23  24
ATOM     24  C   UNK d   1      49.208  87.641  28.109  0.00  0.00     0.217 C 
ATOM     25  O   UNK d   1      48.625  88.757  28.183  0.00  0.00    -0.274 OA
ATOM     26  N   UNK d   1      49.691  87.260  26.831  0.00  0.00    -0.370 N 
ATOM     27  H   UNK d   1      49.553  86.338  26.393  0.00  0.00     0.159 HD
ATOM     28  H   UNK d   1      50.235  87.984  26.293  0.00  0.00     0.159 HD
ENDBRANCH  23  24
ENDBRANCH  13  23
BRANCH  18  29
ATOM     29  C   UNK d   1      48.887  83.892  33.545  0.00  0.00     0.032 C 
ATOM     30  C   UNK d   1      47.464  83.424  33.733  0.00  0.00     0.038 C 
ATOM     31  C   UNK d   1      49.837  82.972  34.317  0.00  0.00     0.038 C 
ATOM     32  C   UNK d   1      48.983  85.281  34.137  0.00  0.00     0.038 C 
ENDBRANCH  18  29
TORSDOF 3
ENDMDL
