/Users/jonathanwahrer/Desktop/Msc/3_Semester/Drug_Design_Praktikum/waehrer_HTS_screening/HTS_experiment/out/docking_results/vina_output/3npc/0571_docked.pdbqt
 OpenBabel03192219423D

 34 38  0  0  1  0  0  0  0  0999 V2000
   52.8490   79.4650   26.8580 Br  0  0  0  0  0  0  0  0  0  0  0  0
   51.3580   80.6360   27.0830 C   0  0  0  0  0  0  0  0  0  0  0  0
   51.4080   81.7560   27.8820 C   0  0  0  0  0  3  0  0  0  0  0  0
   50.3080   82.6100   28.0490 C   0  0  0  0  0  0  0  0  0  0  0  0
   49.1540   82.2890   27.3760 C   0  0  0  0  0  0  0  0  0  0  0  0
   49.0960   81.1620   26.5690 C   0  0  0  0  0  3  0  0  0  0  0  0
   50.1830   80.3300   26.4130 C   0  0  0  0  0  3  0  0  0  0  0  0
   48.1300   83.2260   27.6500 N   0  0  0  0  0  0  0  0  0  0  0  0
   48.6600   84.1840   28.5380 C   0  0  0  0  0  0  0  0  0  0  0  0
   47.9820   85.1570   28.9730 O   0  0  0  0  0  0  0  0  0  0  0  0
   50.0660   83.8280   28.8230 C   0  0  1  0  0  0  0  0  0  0  0  0
   50.2500   83.5810   30.2570 N   0  0  0  0  0  0  0  0  0  0  0  0
   51.5980   84.0110   30.5540 C   0  0  1  0  0  3  0  0  0  0  0  0
   51.9860   85.0330   29.5590 C   0  0  2  0  0  3  0  0  0  0  0  0
   50.9050   85.0050   28.4950 C   0  0  1  0  0  3  0  0  0  0  0  0
   51.6110   85.0060   27.2190 C   0  0  0  0  0  0  0  0  0  0  0  0
   51.0980   84.8620   26.0810 O   0  0  0  0  0  0  0  0  0  0  0  0
   53.0250   85.2000   27.4340 N   0  0  0  0  0  0  0  0  0  0  0  0
   53.2230   84.7700   28.7970 C   0  0  0  0  0  0  0  0  0  0  0  0
   54.2680   84.2650   29.2350 O   0  0  0  0  0  0  0  0  0  0  0  0
   47.1490   83.2080   27.2580 H   0  0  0  0  0  0  0  0  0  0  0  0
   50.1110   82.5720   30.4930 H   0  0  0  0  0  0  0  0  0  0  0  0
   51.6930   84.4850   31.9850 C   0  0  2  0  0  3  0  0  0  0  0  0
   50.4230   84.2280   32.7600 C   0  0  0  0  0  1  0  0  0  0  0  0
   52.0740   85.8120   32.0180 O   0  0  0  0  0  0  0  0  0  0  0  0
   51.9380   86.2630   31.1630 H   0  0  0  0  0  0  0  0  0  0  0  0
   54.0130   85.7220   26.5450 C   0  0  0  0  0  2  0  0  0  0  0  0
   54.7420   84.7160   25.7030 C   0  0  0  0  0  2  0  0  0  0  0  0
   53.9030   83.9960   24.7290 C   0  0  0  0  0  0  0  0  0  0  0  0
   53.4770   84.6520   23.5800 C   0  0  0  0  0  3  0  0  0  0  0  0
   52.7270   83.9930   22.6650 C   0  0  0  0  0  3  0  0  0  0  0  0
   52.3610   82.6870   22.8160 C   0  0  0  0  0  3  0  0  0  0  0  0
   52.7920   82.0420   23.9650 C   0  0  0  0  0  3  0  0  0  0  0  0
   53.5480   82.6840   24.9030 C   0  0  0  0  0  3  0  0  0  0  0  0
  1  2  1  0  0  0  0
  2  3  1  0  0  0  0
  3  4  2  0  0  0  0
  5  8  1  0  0  0  0
  5  4  1  0  0  0  0
  6  5  2  0  0  0  0
  7  6  1  0  0  0  0
  7  2  2  0  0  0  0
  8  9  1  0  0  0  0
  9 11  1  0  0  0  0
  9 10  2  0  0  0  0
 11  4  1  6  0  0  0
 11 12  1  0  0  0  0
 12 22  1  0  0  0  0
 12 13  1  0  0  0  0
 13 23  1  1  0  0  0
 14 19  1  6  0  0  0
 14 13  1  0  0  0  0
 15 16  1  6  0  0  0
 15 11  1  0  0  0  0
 15 14  1  0  0  0  0
 16 18  1  0  0  0  0
 17 16  2  0  0  0  0
 18 19  1  0  0  0  0
 19 20  2  0  0  0  0
 21  8  1  0  0  0  0
 23 25  1  0  0  0  0
 23 24  1  6  0  0  0
 26 25  1  0  0  0  0
 27 18  1  0  0  0  0
 28 27  1  0  0  0  0
 29 34  1  0  0  0  0
 29 28  1  0  0  0  0
 30 29  2  0  0  0  0
 31 32  2  0  0  0  0
 31 30  1  0  0  0  0
 32 33  1  0  0  0  0
 33 34  2  0  0  0  0
M  END
>  <Pose>
1

>  <Score>
-6.848

$$$$
