MODEL 1
REMARK VINA RESULT:    -6.054      0.000      0.000
REMARK INTER + INTRA:          -7.804
REMARK INTER:                  -7.115
REMARK INTRA:                  -0.689
REMARK UNBOUND:                -0.689
REMARK  3 active torsions:
REMARK  status: ('A' for Active; 'I' for Inactive)
REMARK    1  A    between atoms: N_18  and  C_21 
REMARK    2  A    between atoms: C_21  and  C_22 
REMARK    3  A    between atoms: C_22  and  C_23 
ROOT
ATOM      1 Br   UNK d   1      55.283  87.246  25.313  0.00  0.00    -0.051 Br
ATOM      2  C   UNK d   1      54.562  86.217  23.874  0.00  0.00     0.011 A 
ATOM      3  C   UNK d   1      53.628  85.233  24.075  0.00  0.00     0.031 A 
ATOM      4  C   UNK d   1      53.075  84.455  23.042  0.00  0.00     0.019 A 
ATOM      5  C   UNK d   1      53.512  84.718  21.778  0.00  0.00     0.044 A 
ATOM      6  C   UNK d   1      54.471  85.723  21.553  0.00  0.00     0.031 A 
ATOM      7  C   UNK d   1      54.992  86.466  22.586  0.00  0.00     0.021 A 
ATOM      8  N   UNK d   1      52.867  83.871  20.836  0.00  0.00    -0.324 N 
ATOM      9  C   UNK d   1      51.985  83.041  21.555  0.00  0.00     0.267 A 
ATOM     10  O   UNK d   1      51.214  82.149  21.044  0.00  0.00    -0.270 OA
ATOM     11  C   UNK d   1      52.106  83.381  22.985  0.00  0.00     0.279 A 
ATOM     12  N   UNK d   1      50.765  83.884  23.333  0.00  0.00     0.113 N 
ATOM     13  C   UNK d   1      50.054  82.848  24.014  0.00  0.00     0.232 C 
ATOM     14  C   UNK d   1      51.113  82.043  24.672  0.00  0.00     0.127 C 
ATOM     15  C   UNK d   1      52.361  82.201  23.847  0.00  0.00     0.147 C 
ATOM     16  C   UNK d   1      53.415  82.284  24.832  0.00  0.00     0.234 C 
ATOM     17  O   UNK d   1      54.651  82.158  24.588  0.00  0.00    -0.272 OA
ATOM     18  N   UNK d   1      52.841  82.529  26.109  0.00  0.00    -0.288 N 
ATOM     19  C   UNK d   1      51.435  82.686  25.985  0.00  0.00     0.233 C 
ATOM     20  O   UNK d   1      50.699  83.244  26.823  0.00  0.00    -0.272 OA
ATOM     21  C   UNK d   1      49.139  82.026  23.137  0.00  0.00     0.043 C 
ATOM     22  H   UNK d   1      53.010  83.851  19.784  0.00  0.00     0.169 HD
ATOM     23  H   UNK d   1      50.832  84.755  23.905  0.00  0.00     0.318 HD
ENDROOT
BRANCH  18  24
ATOM     24  C   UNK d   1      53.632  82.598  27.330  0.00  0.00     0.135 C 
BRANCH  24  25
ATOM     25  C   UNK d   1      54.169  83.976  27.574  0.00  0.00     0.020 C 
BRANCH  25  26
ATOM     26  C   UNK d   1      53.488  84.684  28.714  0.00  0.00    -0.003 C 
ATOM     27  C   UNK d   1      52.970  83.591  29.657  0.00  0.00     0.005 C 
ENDBRANCH  25  26
ENDBRANCH  24  25
ENDBRANCH  18  24
TORSDOF 3
ENDMDL
