/Users/jonathanwahrer/Desktop/Msc/3_Semester/Drug_Design_Praktikum/waehrer_HTS_screening/HTS_experiment/out/docking_results/vina_output/3npc/0578_docked.pdbqt
 OpenBabel03192219423D

 27 30  0  0  1  0  0  0  0  0999 V2000
   55.2830   87.2460   25.3130 Br  0  0  0  0  0  0  0  0  0  0  0  0
   54.5620   86.2170   23.8740 C   0  0  0  0  0  0  0  0  0  0  0  0
   53.6280   85.2330   24.0750 C   0  0  0  0  0  3  0  0  0  0  0  0
   53.0750   84.4550   23.0420 C   0  0  0  0  0  0  0  0  0  0  0  0
   53.5120   84.7180   21.7780 C   0  0  0  0  0  0  0  0  0  0  0  0
   54.4710   85.7230   21.5530 C   0  0  0  0  0  3  0  0  0  0  0  0
   54.9920   86.4660   22.5860 C   0  0  0  0  0  3  0  0  0  0  0  0
   52.8670   83.8710   20.8360 N   0  0  0  0  0  0  0  0  0  0  0  0
   51.9850   83.0410   21.5550 C   0  0  0  0  0  0  0  0  0  0  0  0
   51.2140   82.1490   21.0440 O   0  0  0  0  0  0  0  0  0  0  0  0
   52.1060   83.3810   22.9850 C   0  0  2  0  0  0  0  0  0  0  0  0
   50.7650   83.8840   23.3330 N   0  0  0  0  0  0  0  0  0  0  0  0
   50.0540   82.8480   24.0140 C   0  0  2  0  0  3  0  0  0  0  0  0
   51.1130   82.0430   24.6720 C   0  0  1  0  0  3  0  0  0  0  0  0
   52.3610   82.2010   23.8470 C   0  0  2  0  0  3  0  0  0  0  0  0
   53.4150   82.2840   24.8320 C   0  0  0  0  0  0  0  0  0  0  0  0
   54.6510   82.1580   24.5880 O   0  0  0  0  0  0  0  0  0  0  0  0
   52.8410   82.5290   26.1090 N   0  0  0  0  0  0  0  0  0  0  0  0
   51.4350   82.6860   25.9850 C   0  0  0  0  0  0  0  0  0  0  0  0
   50.6990   83.2440   26.8230 O   0  0  0  0  0  0  0  0  0  0  0  0
   49.1390   82.0260   23.1370 C   0  0  0  0  0  1  0  0  0  0  0  0
   53.0100   83.8510   19.7840 H   0  0  0  0  0  0  0  0  0  0  0  0
   50.8320   84.7550   23.9050 H   0  0  0  0  0  0  0  0  0  0  0  0
   53.6320   82.5980   27.3300 C   0  0  0  0  0  2  0  0  0  0  0  0
   54.1690   83.9760   27.5740 C   0  0  0  0  0  2  0  0  0  0  0  0
   53.4880   84.6840   28.7140 C   0  0  0  0  0  2  0  0  0  0  0  0
   52.9700   83.5910   29.6570 C   0  0  0  0  0  1  0  0  0  0  0  0
  2  3  1  0  0  0  0
  2  1  1  0  0  0  0
  4  3  2  0  0  0  0
  5  4  1  0  0  0  0
  6  5  2  0  0  0  0
  6  7  1  0  0  0  0
  7  2  2  0  0  0  0
  8  9  1  0  0  0  0
  8  5  1  0  0  0  0
 10  9  2  0  0  0  0
 11  9  1  6  0  0  0
 11  4  1  0  0  0  0
 11 12  1  0  0  0  0
 11 15  1  0  0  0  0
 12 23  1  0  0  0  0
 12 13  1  0  0  0  0
 13 21  1  6  0  0  0
 13 14  1  0  0  0  0
 14 19  1  1  0  0  0
 15 14  1  0  0  0  0
 15 16  1  1  0  0  0
 16 18  1  0  0  0  0
 17 16  2  0  0  0  0
 18 24  1  0  0  0  0
 19 18  1  0  0  0  0
 19 20  2  0  0  0  0
 22  8  1  0  0  0  0
 24 25  1  0  0  0  0
 25 26  1  0  0  0  0
 26 27  1  0  0  0  0
M  END
>  <Pose>
1

>  <Score>
-6.054

$$$$
