MODEL 1
REMARK VINA RESULT:    -6.897      0.000      0.000
REMARK INTER + INTRA:          -9.801
REMARK INTER:                  -8.913
REMARK INTRA:                  -0.887
REMARK UNBOUND:                -0.887
REMARK  5 active torsions:
REMARK  status: ('A' for Active; 'I' for Inactive)
REMARK    1  A    between atoms: C_13  and  C_25 
REMARK    2  A    between atoms: N_18  and  C_21 
REMARK    3  A    between atoms: C_21  and  C_22 
REMARK    4  A    between atoms: C_22  and  O_23 
REMARK    5  A    between atoms: C_25  and  C_26 
REMARK       I    between atoms: C_26  and  N_28 
ROOT
ATOM      1 Br   UNK d   1      55.715  89.221  23.115  0.00  0.00    -0.051 Br
ATOM      2  C   UNK d   1      55.945  87.554  24.013  0.00  0.00     0.011 A 
ATOM      3  C   UNK d   1      54.887  86.758  24.393  0.00  0.00     0.031 A 
ATOM      4  C   UNK d   1      55.062  85.540  25.049  0.00  0.00     0.019 A 
ATOM      5  C   UNK d   1      56.333  85.108  25.332  0.00  0.00     0.044 A 
ATOM      6  C   UNK d   1      57.418  85.887  24.961  0.00  0.00     0.031 A 
ATOM      7  C   UNK d   1      57.214  87.106  24.304  0.00  0.00     0.021 A 
ATOM      8  N   UNK d   1      56.286  83.842  25.997  0.00  0.00    -0.324 N 
ATOM      9  C   UNK d   1      54.927  83.465  26.136  0.00  0.00     0.267 A 
ATOM     10  O   UNK d   1      54.564  82.399  26.670  0.00  0.00    -0.270 OA
ATOM     11  C   UNK d   1      54.104  84.518  25.561  0.00  0.00     0.279 A 
ATOM     12  N   UNK d   1      53.349  83.923  24.459  0.00  0.00     0.114 N 
ATOM     13  C   UNK d   1      52.052  84.528  24.508  0.00  0.00     0.245 C 
ATOM     14  C   UNK d   1      51.782  84.678  25.960  0.00  0.00     0.128 C 
ATOM     15  C   UNK d   1      53.115  85.147  26.496  0.00  0.00     0.147 C 
ATOM     16  C   UNK d   1      53.148  84.670  27.872  0.00  0.00     0.235 C 
ATOM     17  O   UNK d   1      53.910  85.082  28.773  0.00  0.00    -0.272 OA
ATOM     18  N   UNK d   1      52.161  83.655  28.004  0.00  0.00    -0.286 N 
ATOM     19  C   UNK d   1      51.582  83.408  26.700  0.00  0.00     0.233 C 
ATOM     20  O   UNK d   1      51.061  82.324  26.393  0.00  0.00    -0.272 OA
ATOM     21  H   UNK d   1      57.139  83.304  26.318  0.00  0.00     0.169 HD
ATOM     22  H   UNK d   1      53.229  82.894  24.614  0.00  0.00     0.318 HD
ENDROOT
BRANCH  13  23
ATOM     23  C   UNK d   1      51.013  83.789  23.736  0.00  0.00     0.139 C 
BRANCH  23  24
ATOM     24  C   UNK d   1      51.446  83.627  22.344  0.00  0.00     0.217 C 
ATOM     25  O   UNK d   1      51.991  82.546  21.981  0.00  0.00    -0.274 OA
ATOM     26  N   UNK d   1      51.262  84.674  21.394  0.00  0.00    -0.370 N 
ATOM     27  H   UNK d   1      51.121  84.450  20.387  0.00  0.00     0.159 HD
ATOM     28  H   UNK d   1      51.268  85.664  21.714  0.00  0.00     0.159 HD
ENDBRANCH  23  24
ENDBRANCH  13  23
BRANCH  18  29
ATOM     29  C   UNK d   1      51.823  83.010  29.240  0.00  0.00     0.161 C 
BRANCH  29  30
ATOM     30  C   UNK d   1      50.961  83.806  30.162  0.00  0.00     0.187 C 
BRANCH  30  31
ATOM     31  O   UNK d   1      49.906  84.434  29.522  0.00  0.00    -0.394 OA
ATOM     32  C   UNK d   1      49.878  85.800  29.794  0.00  0.00     0.201 C 
ENDBRANCH  30  31
ENDBRANCH  29  30
ENDBRANCH  18  29
TORSDOF 5
ENDMDL
