MODEL 1
REMARK VINA RESULT:    -9.204      0.000      0.000
REMARK INTER + INTRA:          -9.204
REMARK INTER:                  -9.204
REMARK INTRA:                   0.000
REMARK UNBOUND:                 0.000
REMARK  0 active torsions:
REMARK  status: ('A' for Active; 'I' for Inactive)
ROOT
ATOM      1 Br   UNK d   1      55.203  98.233  26.830  0.00  0.00    -0.051 Br
ATOM      2  C   UNK d   1      53.359  98.215  27.309  0.00  0.00     0.012 A 
ATOM      3  C   UNK d   1      52.656  99.381  27.225  0.00  0.00     0.038 A 
ATOM      4  C   UNK d   1      51.314  99.397  27.567  0.00  0.00     0.062 A 
ATOM      5  C   UNK d   1      50.686  98.233  27.993  0.00  0.00     0.078 A 
ATOM      6  C   UNK d   1      51.383  97.046  28.082  0.00  0.00     0.034 A 
ATOM      7  C   UNK d   1      52.714  97.078  27.733  0.00  0.00     0.021 A 
ATOM      8  N   UNK d   1      49.326  98.129  28.365  0.00  0.00    -0.195 N 
ATOM      9  N   UNK d   1      48.689  96.953  28.330  0.00  0.00    -0.039 NA
ATOM     10  N   UNK d   1      47.469  97.194  28.727  0.00  0.00    -0.023 NA
ATOM     11  N   UNK d   1      47.320  98.478  29.010  0.00  0.00    -0.111 NA
ATOM     12  C   UNK d   1      48.517  99.089  28.779  0.00  0.00     0.182 A 
ATOM     13  C   UNK d   1      48.706 100.565  29.001  0.00  0.00     0.102 C 
ATOM     14  N   UNK d   1      49.489 101.154  27.917  0.00  0.00    -0.340 N 
ATOM     15  C   UNK d   1      50.751 100.743  27.406  0.00  0.00     0.255 C 
ATOM     16  O   UNK d   1      51.439 101.590  26.769  0.00  0.00    -0.268 OA
ATOM     17  C   UNK d   1      49.546 100.695  30.243  0.00  0.00     0.076 C 
ATOM     18  C   UNK d   1      49.380 102.061  30.824  0.00  0.00     0.056 C 
ATOM     19  O   UNK d   1      48.067 102.189  31.191  0.00  0.00    -0.381 OA
ATOM     20  C   UNK d   1      47.162 102.190  30.164  0.00  0.00     0.171 C 
ATOM     21  C   UNK d   1      47.379 101.225  29.080  0.00  0.00     0.066 C 
ATOM     22  C   UNK d   1      50.213 102.169  32.107  0.00  0.00     0.045 C 
ATOM     23  C   UNK d   1      49.861 103.161  29.916  0.00  0.00     0.045 C 
ATOM     24  H   UNK d   1      49.076 102.008  27.433  0.00  0.00     0.164 HD
ENDROOT
TORSDOF 0
ENDMDL
