/Users/jonathanwahrer/Desktop/Msc/3_Semester/Drug_Design_Praktikum/waehrer_HTS_screening/HTS_experiment/out/docking_results/vina_output/3npc/0588_docked.pdbqt
 OpenBabel03192219433D

 24 27  0  0  1  0  0  0  0  0999 V2000
   55.2030   98.2330   26.8300 Br  0  0  0  0  0  0  0  0  0  0  0  0
   53.3590   98.2150   27.3090 C   0  0  0  0  0  0  0  0  0  0  0  0
   52.6560   99.3810   27.2250 C   0  0  0  0  0  3  0  0  0  0  0  0
   51.3140   99.3970   27.5670 C   0  0  0  0  0  0  0  0  0  0  0  0
   50.6860   98.2330   27.9930 C   0  0  0  0  0  0  0  0  0  0  0  0
   51.3830   97.0460   28.0820 C   0  0  0  0  0  3  0  0  0  0  0  0
   52.7140   97.0780   27.7330 C   0  0  0  0  0  3  0  0  0  0  0  0
   49.3260   98.1290   28.3650 N   0  0  0  0  0  0  0  0  0  0  0  0
   48.6890   96.9530   28.3300 N   0  0  0  0  0  0  0  0  0  0  0  0
   47.4690   97.1940   28.7270 N   0  0  0  0  0  0  0  0  0  0  0  0
   47.3200   98.4780   29.0100 N   0  0  0  0  0  0  0  0  0  0  0  0
   48.5170   99.0890   28.7790 C   0  0  0  0  0  0  0  0  0  0  0  0
   48.7060  100.5650   29.0010 C   0  0  2  0  0  0  0  0  0  0  0  0
   49.4890  101.1540   27.9170 N   0  0  0  0  0  0  0  0  0  0  0  0
   50.7510  100.7430   27.4060 C   0  0  0  0  0  0  0  0  0  0  0  0
   51.4390  101.5900   26.7690 O   0  0  0  0  0  0  0  0  0  0  0  0
   49.5460  100.6950   30.2430 C   0  0  0  0  0  2  0  0  0  0  0  0
   49.3800  102.0610   30.8240 C   0  0  0  0  0  0  0  0  0  0  0  0
   48.0670  102.1890   31.1910 O   0  0  0  0  0  0  0  0  0  0  0  0
   47.1620  102.1900   30.1640 C   0  0  0  0  0  3  0  0  0  0  0  0
   47.3790  101.2250   29.0800 C   0  0  0  0  0  3  0  0  0  0  0  0
   50.2130  102.1690   32.1070 C   0  0  0  0  0  1  0  0  0  0  0  0
   49.8610  103.1610   29.9160 C   0  0  0  0  0  1  0  0  0  0  0  0
   49.0760  102.0080   27.4330 H   0  0  0  0  0  0  0  0  0  0  0  0
  1  2  1  0  0  0  0
  2  7  1  0  0  0  0
  3  2  2  0  0  0  0
  3  4  1  0  0  0  0
  4  5  2  0  0  0  0
  5  6  1  0  0  0  0
  5  8  1  0  0  0  0
  7  6  2  0  0  0  0
  8 12  1  0  0  0  0
  9  8  1  0  0  0  0
  9 10  2  0  0  0  0
 10 11  1  0  0  0  0
 12 13  1  0  0  0  0
 12 11  2  0  0  0  0
 13 21  1  1  0  0  0
 13 17  1  0  0  0  0
 14 13  1  0  0  0  0
 15  4  1  0  0  0  0
 15 14  1  0  0  0  0
 16 15  2  0  0  0  0
 17 18  1  0  0  0  0
 18 19  1  0  0  0  0
 18 22  1  0  0  0  0
 20 19  1  0  0  0  0
 21 20  2  0  0  0  0
 23 18  1  0  0  0  0
 24 14  1  0  0  0  0
M  END
>  <Pose>
1

>  <Score>
-9.204

$$$$
