MODEL 1
REMARK VINA RESULT:    -8.998      0.000      0.000
REMARK INTER + INTRA:          -8.998
REMARK INTER:                  -8.998
REMARK INTRA:                   0.000
REMARK UNBOUND:                 0.000
REMARK  0 active torsions:
REMARK  status: ('A' for Active; 'I' for Inactive)
ROOT
ATOM      1 Br   UNK d   1      53.847  91.864  17.092  0.00  0.00    -0.051 Br
ATOM      2  C   UNK d   1      54.011  90.402  18.325  0.00  0.00     0.012 A 
ATOM      3  C   UNK d   1      53.075  89.389  18.335  0.00  0.00     0.038 A 
ATOM      4  C   UNK d   1      53.198  88.341  19.223  0.00  0.00     0.061 A 
ATOM      5  C   UNK d   1      54.236  88.246  20.130  0.00  0.00     0.072 A 
ATOM      6  C   UNK d   1      55.171  89.278  20.107  0.00  0.00     0.034 A 
ATOM      7  C   UNK d   1      55.056  90.329  19.221  0.00  0.00     0.021 A 
ATOM      8  N   UNK d   1      54.506  87.255  21.094  0.00  0.00    -0.218 N 
ATOM      9  N   UNK d   1      55.383  87.408  22.073  0.00  0.00     0.032 NA
ATOM     10  N   UNK d   1      55.388  86.294  22.788  0.00  0.00    -0.052 NA
ATOM     11  N   UNK d   1      54.527  85.455  22.263  0.00  0.00    -0.116 NA
ATOM     12  C   UNK d   1      53.945  86.031  21.182  0.00  0.00     0.176 A 
ATOM     13  C   UNK d   1      52.939  85.307  20.403  0.00  0.00     0.100 C 
ATOM     14  N   UNK d   1      51.965  86.094  19.729  0.00  0.00    -0.340 N 
ATOM     15  C   UNK d   1      52.122  87.355  19.099  0.00  0.00     0.255 C 
ATOM     16  O   UNK d   1      51.230  87.743  18.297  0.00  0.00    -0.268 OA
ATOM     17  C   UNK d   1      53.589  84.415  19.334  0.00  0.00     0.069 C 
ATOM     18  C   UNK d   1      52.745  83.179  19.157  0.00  0.00     0.275 C 
ATOM     19  N   UNK d   1      53.026  82.299  20.269  0.00  0.00     0.084 N 
ATOM     20  C   UNK d   1      52.955  83.051  21.493  0.00  0.00     0.275 C 
ATOM     21  C   UNK d   1      52.212  84.356  21.346  0.00  0.00     0.069 C 
ATOM     22  C   UNK d   1      54.358  81.733  20.058  0.00  0.00     0.309 C 
ATOM     23  H   UNK d   1      51.008  85.686  19.695  0.00  0.00     0.164 HD
ENDROOT
TORSDOF 0
ENDMDL
