/Users/jonathanwahrer/Desktop/Msc/3_Semester/Drug_Design_Praktikum/waehrer_HTS_screening/HTS_experiment/out/docking_results/vina_output/3npc/0596_docked.pdbqt
 OpenBabel03192219433D

 29 32  0  0  0  0  0  0  0  0999 V2000
   50.1190   99.1480   28.8020 C   0  0  0  0  0  0  0  0  0  0  0  0
   49.0800   98.2540   28.5960 C   0  0  0  0  0  3  0  0  0  0  0  0
   49.3220   97.0270   28.0140 C   0  0  0  0  0  0  0  0  0  0  0  0
   48.3190   96.2620   27.8560 O   0  0  0  0  0  0  0  0  0  0  0  0
   50.5210   96.6880   27.6520 O   0  0  0  0  0  0  0  0  0  0  0  0
   51.5220   97.4650   27.8150 C   0  0  0  0  0  0  0  0  0  0  0  0
   51.3660   98.7360   28.4000 C   0  0  0  0  0  0  0  0  0  0  0  0
   52.4550   99.5390   28.5720 C   0  0  0  0  0  3  0  0  0  0  0  0
   53.6970   99.0570   28.1470 C   0  0  0  0  0  3  0  0  0  0  0  0
   53.8170   97.8070   27.5720 C   0  0  0  0  0  0  0  0  0  0  0  0
   52.7400   96.9700   27.3860 C   0  0  0  0  0  0  0  0  0  0  0  0
   55.1140   97.4190   27.1730 O   0  0  0  0  0  1  0  0  0  0  0  0
   49.8710  100.4750   29.3620 C   0  0  0  0  0  0  0  0  0  0  0  0
   49.5340  101.5350   28.5460 C   0  0  0  0  0  0  0  0  0  0  0  0
   49.3460  102.7090   29.0370 O   0  0  0  0  0  0  0  0  0  0  0  0
   49.4270  101.2640   27.3100 O   0  0  0  0  0  0  0  0  0  0  0  0
   49.4580  102.9840   30.3380 C   0  0  0  0  0  0  0  0  0  0  0  0
   49.7910  101.9660   31.2080 C   0  0  0  0  0  0  0  0  0  0  0  0
   49.2410  104.2780   30.7870 C   0  0  0  0  0  3  0  0  0  0  0  0
   49.9010  102.2790   32.5500 C   0  0  0  0  0  3  0  0  0  0  0  0
   50.0010  100.7030   30.7130 C   0  0  0  0  0  3  0  0  0  0  0  0
   49.6960  103.5500   33.0560 C   0  0  0  0  0  0  0  0  0  0  0  0
   49.8450  103.9140   34.9100 Br  0  0  0  0  0  0  0  0  0  0  0  0
   49.3610  104.5480   32.1300 C   0  0  0  0  0  3  0  0  0  0  0  0
   52.9280   95.7250   26.6900 C   0  0  0  0  0  2  0  0  0  0  0  0
   54.1540   95.2990   26.1520 N   0  0  0  0  0  4  0  0  0  0  0  0
   54.8260   94.2110   26.8080 C   0  0  0  0  0  1  0  0  0  0  0  0
   54.0950   95.1260   24.6780 C   0  0  0  0  0  1  0  0  0  0  0  0
   54.8360   96.1050   26.2630 H   0  0  0  0  0  0  0  0  0  0  0  0
  1 13  1  0  0  0  0
  2  1  2  0  0  0  0
  3  2  1  0  0  0  0
  4  3  2  0  0  0  0
  5  6  1  0  0  0  0
  5  3  1  0  0  0  0
  6  7  1  0  0  0  0
  7  8  2  0  0  0  0
  7  1  1  0  0  0  0
  9  8  1  0  0  0  0
 10  9  2  0  0  0  0
 11 10  1  0  0  0  0
 11  6  2  0  0  0  0
 12 10  1  0  0  0  0
 13 21  2  0  0  0  0
 14 15  1  0  0  0  0
 14 13  1  0  0  0  0
 15 17  1  0  0  0  0
 16 14  2  0  0  0  0
 17 19  2  0  0  0  0
 17 18  1  0  0  0  0
 18 20  2  0  0  0  0
 19 24  1  0  0  0  0
 20 22  1  0  0  0  0
 21 18  1  0  0  0  0
 22 23  1  0  0  0  0
 24 22  2  0  0  0  0
 25 11  1  0  0  0  0
 26 29  1  0  0  0  0
 26 25  1  0  0  0  0
 26 27  1  0  0  0  0
 28 26  1  0  0  0  0
M  END
>  <Pose>
1

>  <Score>
-9.032

$$$$
