MODEL 1
REMARK VINA RESULT:    -8.932      0.000      0.000
REMARK INTER + INTRA:         -12.541
REMARK INTER:                 -11.543
REMARK INTRA:                  -0.998
REMARK UNBOUND:                -0.998
REMARK  5 active torsions:
REMARK  status: ('A' for Active; 'I' for Inactive)
REMARK    1  A    between atoms: C_7  and  N_17 
REMARK    2  A    between atoms: C_9  and  C_10 
REMARK       I    between atoms: N_20  and  C_23 
REMARK    3  A    between atoms: C_23  and  C_25 
REMARK    4  A    between atoms: C_25  and  C_26 
REMARK    5  A    between atoms: C_26  and  C_27 
ROOT
ATOM      1 Br   UNK d   1      54.846  91.075  20.109  0.00  0.00    -0.051 Br
ATOM      2  C   UNK d   1      54.213  89.278  20.003  0.00  0.00     0.011 A 
ATOM      3  C   UNK d   1      54.721  88.295  20.847  0.00  0.00     0.035 A 
ATOM      4  C   UNK d   1      54.261  86.988  20.772  0.00  0.00     0.024 A 
ATOM      5  C   UNK d   1      53.290  86.651  19.854  0.00  0.00     0.073 A 
ATOM      6  N   UNK d   1      52.835  85.375  19.781  0.00  0.00    -0.207 NA
ATOM      7  C   UNK d   1      53.308  84.408  20.588  0.00  0.00     0.327 A 
ATOM      8  N   UNK d   1      54.251  84.753  21.473  0.00  0.00    -0.206 NA
ATOM      9  C   UNK d   1      54.747  85.997  21.600  0.00  0.00     0.085 A 
ATOM     10  C   UNK d   1      52.799  87.649  19.022  0.00  0.00     0.034 A 
ATOM     11  C   UNK d   1      53.241  88.953  19.080  0.00  0.00     0.021 A 
ENDROOT
BRANCH   7  12
ATOM     12  N   UNK d   1      52.802  83.071  20.484  0.00  0.00    -0.004 N 
ATOM     13  C   UNK d   1      53.886  82.128  20.536  0.00  0.00     0.265 C 
ATOM     14  C   UNK d   1      54.690  82.044  19.282  0.00  0.00     0.154 C 
ATOM     15  N   UNK d   1      54.041  82.689  18.163  0.00  0.00    -0.349 N 
ATOM     16  C   UNK d   1      52.603  82.556  18.079  0.00  0.00     0.154 C 
ATOM     17  C   UNK d   1      54.837  83.399  17.232  0.00  0.00     0.220 C 
ATOM     18  C   UNK d   1      51.922  82.884  19.372  0.00  0.00     0.265 C 
ATOM     19  O   UNK d   1      56.078  83.472  17.371  0.00  0.00    -0.273 OA
ATOM     20  H   UNK d   1      52.255  82.927  21.385  0.00  0.00     0.290 HD
BRANCH  17  21
ATOM     21  C   UNK d   1      54.118  84.044  16.096  0.00  0.00     0.113 C 
BRANCH  21  22
ATOM     22  C   UNK d   1      54.543  83.470  14.778  0.00  0.00     0.122 C 
BRANCH  22  23
ATOM     23  C   UNK d   1      53.697  82.354  14.329  0.00  0.00     0.172 C 
ATOM     24  O   UNK d   1      54.191  81.314  13.846  0.00  0.00    -0.648 OA
ATOM     25  O   UNK d   1      52.326  82.456  14.443  0.00  0.00    -0.648 OA
ENDBRANCH  22  23
ENDBRANCH  21  22
ENDBRANCH  17  21
ENDBRANCH   7  12
BRANCH   9  26
ATOM     26  C   UNK d   1      55.771  86.268  22.596  0.00  0.00     0.015 A 
ATOM     27  C   UNK d   1      55.471  86.197  23.949  0.00  0.00     0.046 A 
ATOM     28  C   UNK d   1      56.418  86.433  24.922  0.00  0.00     0.025 A 
ATOM     29 Cl   UNK d   1      53.815  85.792  24.409  0.00  0.00    -0.083 Cl
ATOM     30  C   UNK d   1      57.718  86.752  24.587  0.00  0.00     0.002 A 
ATOM     31  C   UNK d   1      58.017  86.822  23.232  0.00  0.00     0.001 A 
ATOM     32  C   UNK d   1      57.064  86.585  22.266  0.00  0.00     0.015 A 
ENDBRANCH   9  26
TORSDOF 5
ENDMDL
