MODEL 1
REMARK VINA RESULT:    -8.222      0.000      0.000
REMARK INTER + INTRA:         -12.302
REMARK INTER:                 -11.105
REMARK INTRA:                  -1.197
REMARK UNBOUND:                -1.197
REMARK  6 active torsions:
REMARK  status: ('A' for Active; 'I' for Inactive)
REMARK    1  A    between atoms: C_7  and  N_17 
REMARK    2  A    between atoms: C_9  and  C_10 
REMARK       I    between atoms: N_20  and  C_23 
REMARK    3  A    between atoms: C_23  and  C_25 
REMARK    4  A    between atoms: C_25  and  C_26 
REMARK    5  A    between atoms: C_26  and  C_27 
REMARK    6  A    between atoms: C_27  and  C_28 
ROOT
ATOM      1 Br   UNK d   1      50.390  80.071  24.416  0.00  0.00    -0.051 Br
ATOM      2  C   UNK d   1      51.485  81.591  24.032  0.00  0.00     0.011 A 
ATOM      3  C   UNK d   1      51.859  82.492  25.012  0.00  0.00     0.035 A 
ATOM      4  C   UNK d   1      52.647  83.596  24.767  0.00  0.00     0.024 A 
ATOM      5  C   UNK d   1      53.103  83.841  23.485  0.00  0.00     0.073 A 
ATOM      6  N   UNK d   1      53.873  84.926  23.221  0.00  0.00    -0.207 NA
ATOM      7  C   UNK d   1      54.230  85.805  24.172  0.00  0.00     0.327 A 
ATOM      8  N   UNK d   1      53.788  85.567  25.421  0.00  0.00    -0.206 NA
ATOM      9  C   UNK d   1      53.017  84.500  25.736  0.00  0.00     0.085 A 
ATOM     10  C   UNK d   1      52.737  82.948  22.502  0.00  0.00     0.034 A 
ATOM     11  C   UNK d   1      51.941  81.837  22.755  0.00  0.00     0.021 A 
ENDROOT
BRANCH   7  12
ATOM     12  N   UNK d   1      55.040  86.932  23.858  0.00  0.00    -0.004 N 
ATOM     13  C   UNK d   1      56.313  86.519  23.310  0.00  0.00     0.265 C 
ATOM     14  C   UNK d   1      56.921  87.683  22.593  0.00  0.00     0.154 C 
ATOM     15  N   UNK d   1      56.227  88.889  22.997  0.00  0.00    -0.349 N 
ATOM     16  C   UNK d   1      55.952  89.056  24.412  0.00  0.00     0.154 C 
ATOM     17  C   UNK d   1      55.860  89.825  22.015  0.00  0.00     0.219 C 
ATOM     18  C   UNK d   1      55.305  87.789  24.985  0.00  0.00     0.265 C 
ATOM     19  O   UNK d   1      55.256  90.861  22.389  0.00  0.00    -0.273 OA
ATOM     20  H   UNK d   1      54.523  87.492  23.149  0.00  0.00     0.290 HD
BRANCH  17  21
ATOM     21  C   UNK d   1      56.154  89.632  20.594  0.00  0.00     0.103 C 
BRANCH  21  22
ATOM     22  C   UNK d   1      55.417  90.653  19.777  0.00  0.00     0.020 C 
BRANCH  22  23
ATOM     23  C   UNK d   1      54.123  90.118  19.205  0.00  0.00     0.113 C 
BRANCH  23  24
ATOM     24  C   UNK d   1      52.938  90.886  19.634  0.00  0.00     0.172 C 
ATOM     25  O   UNK d   1      53.138  91.991  20.192  0.00  0.00    -0.648 OA
ATOM     26  O   UNK d   1      51.665  90.382  19.414  0.00  0.00    -0.648 OA
ENDBRANCH  23  24
ENDBRANCH  22  23
ENDBRANCH  21  22
ENDBRANCH  17  21
ENDBRANCH   7  12
BRANCH   9  27
ATOM     27  C   UNK d   1      52.565  84.292  27.103  0.00  0.00     0.015 A 
ATOM     28  C   UNK d   1      53.284  83.521  28.003  0.00  0.00     0.046 A 
ATOM     29  C   UNK d   1      52.855  83.300  29.300  0.00  0.00     0.025 A 
ATOM     30 Cl   UNK d   1      54.797  82.792  27.489  0.00  0.00    -0.083 Cl
ATOM     31  C   UNK d   1      51.647  83.891  29.689  0.00  0.00     0.002 A 
ATOM     32  C   UNK d   1      50.907  84.663  28.819  0.00  0.00     0.001 A 
ATOM     33  C   UNK d   1      51.367  84.852  27.554  0.00  0.00     0.015 A 
ENDBRANCH   9  27
TORSDOF 6
ENDMDL
