MODEL 1
REMARK VINA RESULT:    -8.168      0.000      0.000
REMARK INTER + INTRA:          -9.999
REMARK INTER:                  -9.601
REMARK INTRA:                  -0.398
REMARK UNBOUND:                -0.398
REMARK  3 active torsions:
REMARK  status: ('A' for Active; 'I' for Inactive)
REMARK    1  A    between atoms: C_7  and  C_9 
REMARK       I    between atoms: C_9  and  N_11 
REMARK       I    between atoms: N_14  and  C_17 
REMARK    2  A    between atoms: C_17  and  C_19 
REMARK    3  A    between atoms: C_19  and  N_20 
ROOT
ATOM      1  C   UNK d   1      54.690  91.857  21.060  0.00  0.00     0.270 C 
ATOM      2  O   UNK d   1      53.907  92.246  20.112  0.00  0.00    -0.266 OA
ATOM      3  N   UNK d   1      55.226  90.577  20.916  0.00  0.00    -0.344 N 
ATOM      4  C   UNK d   1      56.108  89.911  21.836  0.00  0.00     0.146 C 
ATOM      5  C   UNK d   1      56.450  88.486  21.381  0.00  0.00     0.145 C 
ATOM      6  N   UNK d   1      55.216  87.810  21.011  0.00  0.00    -0.348 N 
ATOM      7  C   UNK d   1      54.211  88.515  20.214  0.00  0.00     0.145 C 
ATOM      8  C   UNK d   1      54.895  89.785  19.701  0.00  0.00     0.146 C 
ATOM      9  C   UNK d   1      54.963  86.479  21.410  0.00  0.00     0.248 C 
ATOM     10  O   UNK d   1      55.845  85.910  22.097  0.00  0.00    -0.271 OA
ENDROOT
BRANCH   1  11
ATOM     11  C   UNK d   1      54.936  92.762  22.166  0.00  0.00     0.102 A 
ATOM     12  N   UNK d   1      56.063  93.253  22.687  0.00  0.00    -0.351 N 
ATOM     13  C   UNK d   1      55.800  94.076  23.749  0.00  0.00     0.043 A 
ATOM     14  H   UNK d   1      57.031  93.082  22.379  0.00  0.00     0.166 HD
ATOM     15  C   UNK d   1      54.445  94.126  23.929  0.00  0.00    -0.006 A 
ATOM     16  C   UNK d   1      56.617  94.802  24.595  0.00  0.00     0.031 A 
ATOM     17  C   UNK d   1      53.910  94.905  24.959  0.00  0.00     0.032 A 
ATOM     18  C   UNK d   1      53.907  93.324  22.963  0.00  0.00     0.049 A 
ATOM     19  C   UNK d   1      54.713  95.628  25.803  0.00  0.00     0.011 A 
ATOM     20 Br   UNK d   1      53.990  96.699  27.221  0.00  0.00    -0.051 Br
ATOM     21  C   UNK d   1      56.077  95.572  25.615  0.00  0.00     0.021 A 
ENDBRANCH   1  11
BRANCH   9  22
ATOM     22  C   UNK d   1      53.717  85.840  21.018  0.00  0.00     0.374 C 
BRANCH  22  23
ATOM     23  N   UNK d   1      53.713  85.270  19.689  0.00  0.00     0.101 N 
ATOM     24  C   UNK d   1      52.327  85.090  19.254  0.00  0.00     0.299 C 
ATOM     25  C   UNK d   1      51.866  83.694  19.492  0.00  0.00     0.198 C 
ATOM     26  O   UNK d   1      52.423  83.184  20.662  0.00  0.00    -0.388 OA
ATOM     27  C   UNK d   1      53.795  82.965  20.516  0.00  0.00     0.198 C 
ATOM     28  C   UNK d   1      54.421  84.004  19.614  0.00  0.00     0.299 C 
ENDBRANCH  22  23
ENDBRANCH   9  22
TORSDOF 3
ENDMDL
