/Users/jonathanwahrer/Desktop/Msc/3_Semester/Drug_Design_Praktikum/waehrer_HTS_screening/HTS_experiment/out/docking_results/vina_output/3npc/0616_docked.pdbqt
 OpenBabel03192219443D

 28 31  0  0  0  0  0  0  0  0999 V2000
   54.6900   91.8570   21.0600 C   0  0  0  0  0  0  0  0  0  0  0  0
   53.9070   92.2460   20.1120 O   0  0  0  0  0  0  0  0  0  0  0  0
   55.2260   90.5770   20.9160 N   0  0  0  0  0  0  0  0  0  0  0  0
   56.1080   89.9110   21.8360 C   0  0  0  0  0  2  0  0  0  0  0  0
   56.4500   88.4860   21.3810 C   0  0  0  0  0  2  0  0  0  0  0  0
   55.2160   87.8100   21.0110 N   0  0  0  0  0  0  0  0  0  0  0  0
   54.2110   88.5150   20.2140 C   0  0  0  0  0  2  0  0  0  0  0  0
   54.8950   89.7850   19.7010 C   0  0  0  0  0  2  0  0  0  0  0  0
   54.9630   86.4790   21.4100 C   0  0  0  0  0  0  0  0  0  0  0  0
   55.8450   85.9100   22.0970 O   0  0  0  0  0  0  0  0  0  0  0  0
   54.9360   92.7620   22.1660 C   0  0  0  0  0  0  0  0  0  0  0  0
   56.0630   93.2530   22.6870 N   0  0  0  0  0  0  0  0  0  0  0  0
   55.8000   94.0760   23.7490 C   0  0  0  0  0  0  0  0  0  0  0  0
   57.0310   93.0820   22.3790 H   0  0  0  0  0  0  0  0  0  0  0  0
   54.4450   94.1260   23.9290 C   0  0  0  0  0  0  0  0  0  0  0  0
   56.6170   94.8020   24.5950 C   0  0  0  0  0  3  0  0  0  0  0  0
   53.9100   94.9050   24.9590 C   0  0  0  0  0  3  0  0  0  0  0  0
   53.9070   93.3240   22.9630 C   0  0  0  0  0  3  0  0  0  0  0  0
   54.7130   95.6280   25.8030 C   0  0  0  0  0  0  0  0  0  0  0  0
   53.9900   96.6990   27.2210 Br  0  0  0  0  0  0  0  0  0  0  0  0
   56.0770   95.5720   25.6150 C   0  0  0  0  0  3  0  0  0  0  0  0
   53.7170   85.8400   21.0180 C   0  0  0  0  0  2  0  0  0  0  0  0
   53.7130   85.2700   19.6890 N   0  0  0  0  0  0  0  0  0  0  0  0
   52.3270   85.0900   19.2540 C   0  0  0  0  0  2  0  0  0  0  0  0
   51.8660   83.6940   19.4920 C   0  0  0  0  0  2  0  0  0  0  0  0
   52.4230   83.1840   20.6620 O   0  0  0  0  0  0  0  0  0  0  0  0
   53.7950   82.9650   20.5160 C   0  0  0  0  0  2  0  0  0  0  0  0
   54.4210   84.0040   19.6140 C   0  0  0  0  0  2  0  0  0  0  0  0
  1 11  1  0  0  0  0
  2  1  2  0  0  0  0
  3  1  1  0  0  0  0
  3  4  1  0  0  0  0
  5  4  1  0  0  0  0
  6  5  1  0  0  0  0
  6  9  1  0  0  0  0
  7  6  1  0  0  0  0
  8  7  1  0  0  0  0
  8  3  1  0  0  0  0
  9 10  2  0  0  0  0
 11 12  1  0  0  0  0
 11 18  2  0  0  0  0
 12 13  1  0  0  0  0
 13 15  2  0  0  0  0
 13 16  1  0  0  0  0
 14 12  1  0  0  0  0
 15 17  1  0  0  0  0
 16 21  2  0  0  0  0
 17 19  2  0  0  0  0
 18 15  1  0  0  0  0
 19 20  1  0  0  0  0
 21 19  1  0  0  0  0
 22  9  1  0  0  0  0
 23 22  1  0  0  0  0
 24 25  1  0  0  0  0
 24 23  1  0  0  0  0
 25 26  1  0  0  0  0
 27 26  1  0  0  0  0
 28 23  1  0  0  0  0
 28 27  1  0  0  0  0
M  END
>  <Pose>
1

>  <Score>
-8.168

$$$$
