MODEL 1
REMARK VINA RESULT:    -8.166      0.000      0.000
REMARK INTER + INTRA:         -10.117
REMARK INTER:                  -9.598
REMARK INTRA:                  -0.518
REMARK UNBOUND:                -0.518
REMARK  3 active torsions:
REMARK  status: ('A' for Active; 'I' for Inactive)
REMARK    1  A    between atoms: N_11  and  C_14 
REMARK    2  A    between atoms: C_14  and  C_15 
REMARK    3  A    between atoms: C_15  and  N_16 
ROOT
ATOM      1 Br   UNK d   1      56.475  97.844  26.796  0.00  0.00    -0.051 Br
ATOM      2  C   UNK d   1      54.627  97.528  27.113  0.00  0.00     0.011 A 
ATOM      3  C   UNK d   1      53.793  98.531  27.564  0.00  0.00     0.035 A 
ATOM      4  C   UNK d   1      52.450  98.318  27.799  0.00  0.00     0.023 A 
ATOM      5  C   UNK d   1      51.942  97.054  27.570  0.00  0.00     0.045 A 
ATOM      6  N   UNK d   1      50.634  97.131  27.875  0.00  0.00    -0.349 N 
ATOM      7  C   UNK d   1      50.302  98.381  28.283  0.00  0.00     0.131 A 
ATOM      8  C   UNK d   1      51.445  99.151  28.240  0.00  0.00     0.103 A 
ATOM      9  N   UNK d   1      51.360 100.445  28.606  0.00  0.00    -0.240 NA
ATOM     10  C   UNK d   1      50.200 101.000  29.007  0.00  0.00     0.213 A 
ATOM     11  N   UNK d   1      49.074 100.276  29.057  0.00  0.00    -0.305 N 
ATOM     12  C   UNK d   1      49.137  98.985  28.698  0.00  0.00     0.277 A 
ATOM     13  O   UNK d   1      48.091  98.291  28.739  0.00  0.00    -0.265 OA
ATOM     14  C   UNK d   1      52.788  96.058  27.118  0.00  0.00     0.032 A 
ATOM     15  C   UNK d   1      54.133  96.261  26.881  0.00  0.00     0.021 A 
ATOM     16  H   UNK d   1      49.950  96.354  27.816  0.00  0.00     0.166 HD
ENDROOT
BRANCH  11  17
ATOM     17  C   UNK d   1      47.803 100.876  29.497  0.00  0.00     0.152 C 
BRANCH  17  18
ATOM     18  C   UNK d   1      47.837 102.346  29.326  0.00  0.00     0.137 C 
BRANCH  18  19
ATOM     19  N   UNK d   1      47.641 103.130  30.490  0.00  0.00    -0.408 N 
ATOM     20  C   UNK d   1      48.799 103.792  30.983  0.00  0.00     0.147 C 
ATOM     21  C   UNK d   1      49.491 103.047  32.088  0.00  0.00     0.289 C 
ATOM     22  N   UNK d   1      48.562 102.382  32.977  0.00  0.00     0.086 N 
ATOM     23  C   UNK d   1      47.219 102.918  32.832  0.00  0.00     0.289 C 
ATOM     24  H   UNK d   1      48.565 101.344  32.850  0.00  0.00     0.316 HD
ATOM     25  C   UNK d   1      46.762 102.552  31.441  0.00  0.00     0.147 C 
ENDBRANCH  18  19
ENDBRANCH  17  18
ENDBRANCH  11  17
TORSDOF 3
ENDMDL
