/Users/jonathanwahrer/Desktop/Msc/3_Semester/Drug_Design_Praktikum/waehrer_HTS_screening/HTS_experiment/out/docking_results/vina_output/3npc/0617_docked.pdbqt
 OpenBabel03192219443D

 25 28  0  0  0  0  0  0  0  0999 V2000
   56.4750   97.8440   26.7960 Br  0  0  0  0  0  0  0  0  0  0  0  0
   54.6270   97.5280   27.1130 C   0  0  0  0  0  0  0  0  0  0  0  0
   53.7930   98.5310   27.5640 C   0  0  0  0  0  3  0  0  0  0  0  0
   52.4500   98.3180   27.7990 C   0  0  0  0  0  0  0  0  0  0  0  0
   51.9420   97.0540   27.5700 C   0  0  0  0  0  0  0  0  0  0  0  0
   50.6340   97.1310   27.8750 N   0  0  0  0  0  0  0  0  0  0  0  0
   50.3020   98.3810   28.2830 C   0  0  0  0  0  0  0  0  0  0  0  0
   51.4450   99.1510   28.2400 C   0  0  0  0  0  0  0  0  0  0  0  0
   51.3600  100.4450   28.6060 N   0  0  0  0  0  0  0  0  0  0  0  0
   50.2000  101.0000   29.0070 C   0  0  0  0  0  3  0  0  0  0  0  0
   49.0740  100.2760   29.0570 N   0  0  0  0  0  0  0  0  0  0  0  0
   49.1370   98.9850   28.6980 C   0  0  0  0  0  0  0  0  0  0  0  0
   48.0910   98.2910   28.7390 O   0  0  0  0  0  0  0  0  0  0  0  0
   52.7880   96.0580   27.1180 C   0  0  0  0  0  3  0  0  0  0  0  0
   54.1330   96.2610   26.8810 C   0  0  0  0  0  3  0  0  0  0  0  0
   49.9500   96.3540   27.8160 H   0  0  0  0  0  0  0  0  0  0  0  0
   47.8030  100.8760   29.4970 C   0  0  0  0  0  2  0  0  0  0  0  0
   47.8370  102.3460   29.3260 C   0  0  0  0  0  2  0  0  0  0  0  0
   47.6410  103.1300   30.4900 N   0  0  0  0  0  0  0  0  0  0  0  0
   48.7990  103.7920   30.9830 C   0  0  0  0  0  2  0  0  0  0  0  0
   49.4910  103.0470   32.0880 C   0  0  0  0  0  2  0  0  0  0  0  0
   48.5620  102.3820   32.9770 N   0  0  0  0  0  0  0  0  0  0  0  0
   47.2190  102.9180   32.8320 C   0  0  0  0  0  2  0  0  0  0  0  0
   48.5650  101.3440   32.8500 H   0  0  0  0  0  0  0  0  0  0  0  0
   46.7620  102.5520   31.4410 C   0  0  0  0  0  2  0  0  0  0  0  0
  1  2  1  0  0  0  0
  2  3  1  0  0  0  0
  3  4  2  0  0  0  0
  4  8  1  0  0  0  0
  5  4  1  0  0  0  0
  5  6  1  0  0  0  0
  6  7  1  0  0  0  0
  7 12  1  0  0  0  0
  8  7  2  0  0  0  0
  8  9  1  0  0  0  0
  9 10  2  0  0  0  0
 10 11  1  0  0  0  0
 11 17  1  0  0  0  0
 12 13  2  0  0  0  0
 12 11  1  0  0  0  0
 14  5  2  0  0  0  0
 15  2  2  0  0  0  0
 15 14  1  0  0  0  0
 16  6  1  0  0  0  0
 18 17  1  0  0  0  0
 18 19  1  0  0  0  0
 19 20  1  0  0  0  0
 19 25  1  0  0  0  0
 20 21  1  0  0  0  0
 21 22  1  0  0  0  0
 23 22  1  0  0  0  0
 24 22  1  0  0  0  0
 25 23  1  0  0  0  0
M  END
>  <Pose>
1

>  <Score>
-8.166

$$$$
