/Users/jonathanwahrer/Desktop/Msc/3_Semester/Drug_Design_Praktikum/waehrer_HTS_screening/HTS_experiment/out/docking_results/vina_output/3npc/0624_docked.pdbqt
 OpenBabel03192219443D

 22 25  0  0  0  0  0  0  0  0999 V2000
   53.4480   92.5460   17.4590 Br  0  0  0  0  0  0  0  0  0  0  0  0
   53.4800   90.8270   18.2790 C   0  0  0  0  0  0  0  0  0  0  0  0
   52.4460   89.9490   18.0280 C   0  0  0  0  0  3  0  0  0  0  0  0
   52.4400   88.6780   18.6160 C   0  0  0  0  0  0  0  0  0  0  0  0
   53.4740   88.3430   19.4290 C   0  0  0  0  0  0  0  0  0  0  0  0
   54.5280   89.1850   19.7100 C   0  0  0  0  0  0  0  0  0  0  0  0
   54.5110   90.4240   19.1240 C   0  0  0  0  0  3  0  0  0  0  0  0
   55.5040   88.7180   20.5490 C   0  0  0  0  0  0  0  0  0  0  0  0
   56.4600   89.4670   20.8100 O   0  0  0  0  0  0  0  0  0  0  0  0
   55.4650   87.4520   21.1130 C   0  0  0  0  0  0  0  0  0  0  0  0
   54.3840   86.6600   20.7920 C   0  0  0  0  0  3  0  0  0  0  0  0
   53.4000   87.1180   19.9530 N   0  0  0  0  0  0  0  0  0  0  0  0
   52.1840   86.5120   19.4590 C   0  0  0  0  0  3  0  0  0  0  0  0
   51.5220   87.5270   18.5670 C   0  0  0  0  0  3  0  0  0  0  0  0
   56.5140   86.9700   22.0050 C   0  0  0  0  0  0  0  0  0  0  0  0
   57.5650   86.4990   21.5130 O   0  0  0  0  0  0  0  0  0  0  0  0
   56.3530   87.0300   23.4290 N   0  0  0  0  0  0  0  0  0  0  0  0
   57.3770   86.5590   24.3350 C   0  0  0  0  0  2  0  0  0  0  0  0
   55.1460   87.5710   24.0210 C   0  0  0  0  0  2  0  0  0  0  0  0
   56.6880   85.5550   25.2690 C   0  0  0  0  0  2  0  0  0  0  0  0
   55.5830   86.1450   25.8340 O   0  0  0  0  0  0  0  0  0  0  0  0
   54.5930   86.4710   24.9320 C   0  0  0  0  0  2  0  0  0  0  0  0
  1  2  1  0  0  0  0
  2  7  1  0  0  0  0
  3  2  2  0  0  0  0
  3  4  1  0  0  0  0
  4  5  2  0  0  0  0
  5  6  1  0  0  0  0
  5 12  1  0  0  0  0
  6  8  1  0  0  0  0
  7  6  2  0  0  0  0
  8  9  2  0  0  0  0
  8 10  1  0  0  0  0
 10 15  1  0  0  0  0
 11 10  2  0  0  0  0
 12 11  1  0  0  0  0
 13 12  1  0  0  0  0
 14  4  1  0  0  0  0
 14 13  2  0  0  0  0
 15 17  1  0  0  0  0
 16 15  2  0  0  0  0
 17 19  1  0  0  0  0
 17 18  1  0  0  0  0
 18 20  1  0  0  0  0
 19 22  1  0  0  0  0
 20 21  1  0  0  0  0
 22 21  1  0  0  0  0
M  END
>  <Pose>
1

>  <Score>
-8.631

$$$$
