MODEL 1
REMARK VINA RESULT:    -8.631      0.000      0.000
REMARK INTER + INTRA:          -9.411
REMARK INTER:                  -9.136
REMARK INTRA:                  -0.275
REMARK UNBOUND:                -0.275
REMARK  1 active torsions:
REMARK  status: ('A' for Active; 'I' for Inactive)
REMARK    1  A    between atoms: C_10  and  C_15 
REMARK       I    between atoms: C_15  and  N_17 
ROOT
ATOM      1 Br   UNK d   1      53.448  92.546  17.459  0.00  0.00    -0.051 Br
ATOM      2  C   UNK d   1      53.480  90.827  18.279  0.00  0.00     0.012 A 
ATOM      3  C   UNK d   1      52.446  89.949  18.028  0.00  0.00     0.028 A 
ATOM      4  C   UNK d   1      52.440  88.678  18.616  0.00  0.00    -0.027 A 
ATOM      5  C   UNK d   1      53.474  88.343  19.429  0.00  0.00     0.055 A 
ATOM      6  C   UNK d   1      54.528  89.185  19.710  0.00  0.00     0.044 A 
ATOM      7  C   UNK d   1      54.511  90.424  19.124  0.00  0.00     0.037 A 
ATOM      8  C   UNK d   1      55.504  88.718  20.549  0.00  0.00     0.201 A 
ATOM      9  O   UNK d   1      56.460  89.467  20.810  0.00  0.00    -0.286 OA
ATOM     10  C   UNK d   1      55.465  87.452  21.113  0.00  0.00     0.098 A 
ATOM     11  C   UNK d   1      54.384  86.660  20.792  0.00  0.00     0.112 A 
ATOM     12  N   UNK d   1      53.400  87.118  19.953  0.00  0.00    -0.354 N 
ATOM     13  C   UNK d   1      52.184  86.512  19.459  0.00  0.00     0.133 A 
ATOM     14  C   UNK d   1      51.522  87.527  18.567  0.00  0.00     0.061 A 
ENDROOT
BRANCH  10  15
ATOM     15  C   UNK d   1      56.514  86.970  22.005  0.00  0.00     0.259 C 
ATOM     16  O   UNK d   1      57.565  86.499  21.513  0.00  0.00    -0.267 OA
ATOM     17  N   UNK d   1      56.353  87.030  23.429  0.00  0.00    -0.344 N 
ATOM     18  C   UNK d   1      57.377  86.559  24.335  0.00  0.00     0.152 C 
ATOM     19  C   UNK d   1      55.146  87.571  24.021  0.00  0.00     0.152 C 
ATOM     20  C   UNK d   1      56.688  85.555  25.269  0.00  0.00     0.187 C 
ATOM     21  O   UNK d   1      55.583  86.145  25.834  0.00  0.00    -0.388 OA
ATOM     22  C   UNK d   1      54.593  86.471  24.932  0.00  0.00     0.187 C 
ENDBRANCH  10  15
TORSDOF 1
ENDMDL
