/Users/jonathanwahrer/Desktop/Msc/3_Semester/Drug_Design_Praktikum/waehrer_HTS_screening/HTS_experiment/out/docking_results/vina_output/3npc/0625_docked.pdbqt
 OpenBabel03192219443D

 31 34  0  0  0  0  0  0  0  0999 V2000
   55.4330   91.6540   21.5860 Br  0  0  0  0  0  0  0  0  0  0  0  0
   54.9890   89.8450   21.3030 C   0  0  0  0  0  0  0  0  0  0  0  0
   54.0920   89.4700   20.3160 C   0  0  0  0  0  3  0  0  0  0  0  0
   53.7400   88.1690   20.1020 C   0  0  0  0  0  0  0  0  0  0  0  0
   52.9300   87.6140   19.1510 N   0  0  0  0  0  0  0  0  0  0  0  0
   52.9740   86.2810   19.3200 C   0  0  0  0  0  0  0  0  0  0  0  0
   53.8120   85.9800   20.4270 C   0  0  0  0  0  0  0  0  0  0  0  0
   54.2720   87.1940   20.8710 C   0  0  0  0  0  0  0  0  0  0  0  0
   55.1810   87.5460   21.8720 C   0  0  0  0  0  3  0  0  0  0  0  0
   55.5490   88.8640   22.0990 C   0  0  0  0  0  0  0  0  0  0  0  0
   51.9820   88.4420   18.3800 C   0  0  0  0  0  2  0  0  0  0  0  0
   52.8520   89.5240   17.7000 C   0  0  0  0  0  0  0  0  0  0  0  0
   52.5160   90.8140   17.9940 C   0  0  0  0  0  3  0  0  0  0  0  0
   53.2700   91.8520   17.4230 C   0  0  0  0  0  3  0  0  0  0  0  0
   54.3280   91.6260   16.5930 C   0  0  0  0  0  3  0  0  0  0  0  0
   54.6350   90.2910   16.3270 C   0  0  0  0  0  3  0  0  0  0  0  0
   53.8880   89.2470   16.8850 C   0  0  0  0  0  3  0  0  0  0  0  0
   52.3690   85.2190   18.5160 C   0  0  0  0  0  2  0  0  0  0  0  0
   53.2200   84.2620   17.8790 N   0  0  0  0  0  4  0  0  0  0  0  0
   53.9180   84.3340   16.7200 C   0  0  0  0  0  2  0  0  0  0  0  0
   53.9460   82.9160   16.0980 C   0  0  0  0  0  2  0  0  0  0  0  0
   53.7830   82.0710   17.3590 C   0  0  0  0  0  2  0  0  0  0  0  0
   52.7020   82.8940   18.0470 C   0  0  0  0  0  2  0  0  0  0  0  0
   54.0430   84.1830   18.7210 H   0  0  0  0  0  0  0  0  0  0  0  0
   54.0040   84.6840   21.0920 C   0  0  0  0  0  0  0  0  0  0  0  0
   54.6500   83.8030   20.4630 O   0  0  0  0  0  0  0  0  0  0  0  0
   53.5580   84.3560   22.3280 O   0  0  0  0  0  0  0  0  0  0  0  0
   52.3200   83.9460   22.7850 C   0  0  0  0  0  2  0  0  0  0  0  0
   51.3720   83.4580   21.6970 C   0  0  0  0  0  1  0  0  0  0  0  0
   56.4680   89.2490   23.0920 O   0  0  0  0  0  0  0  0  0  0  0  0
   56.1240   89.7570   23.9200 H   0  0  0  0  0  0  0  0  0  0  0  0
  2  1  1  0  0  0  0
  2 10  1  0  0  0  0
  3  2  2  0  0  0  0
  4  3  1  0  0  0  0
  4  8  2  0  0  0  0
  5  6  1  0  0  0  0
  5  4  1  0  0  0  0
  6  7  2  0  0  0  0
  7  8  1  0  0  0  0
  7 25  1  0  0  0  0
  8  9  1  0  0  0  0
  9 10  2  0  0  0  0
 10 30  1  0  0  0  0
 11  5  1  0  0  0  0
 12 13  1  0  0  0  0
 12 11  1  0  0  0  0
 14 13  2  0  0  0  0
 15 14  1  0  0  0  0
 16 15  2  0  0  0  0
 16 17  1  0  0  0  0
 17 12  2  0  0  0  0
 18  6  1  0  0  0  0
 19 23  1  0  0  0  0
 19 18  1  0  0  0  0
 19 24  1  0  0  0  0
 20 19  1  0  0  0  0
 21 20  1  0  0  0  0
 21 22  1  0  0  0  0
 22 23  1  0  0  0  0
 25 27  1  0  0  0  0
 26 25  2  0  0  0  0
 27 28  1  0  0  0  0
 29 28  1  0  0  0  0
 30 31  1  0  0  0  0
M  END
>  <Pose>
1

>  <Score>
-8.783

$$$$
