MODEL 1
REMARK VINA RESULT:    -8.141      0.000      0.000
REMARK INTER + INTRA:         -11.933
REMARK INTER:                 -11.234
REMARK INTRA:                  -0.698
REMARK UNBOUND:                -0.698
REMARK  7 active torsions:
REMARK  status: ('A' for Active; 'I' for Inactive)
REMARK    1  A    between atoms: C_6  and  O_28 
REMARK    2  A    between atoms: C_10  and  N_11 
REMARK       I    between atoms: N_11  and  C_12 
REMARK    3  A    between atoms: C_12  and  C_14 
REMARK    4  A    between atoms: C_14  and  N_15 
REMARK    5  A    between atoms: N_18  and  C_21 
REMARK    6  A    between atoms: C_21  and  C_22 
REMARK       I    between atoms: C_22  and  N_24 
REMARK    7  A    between atoms: N_24  and  C_25 
ROOT
ATOM      1  N   UNK d   1      52.992  85.564  24.633  0.00  0.00    -0.324 N 
ATOM      2  C   UNK d   1      54.382  85.445  24.761  0.00  0.00     0.239 C 
ATOM      3  O   UNK d   1      54.919  84.309  24.793  0.00  0.00    -0.271 OA
ATOM      4  H   UNK d   1      52.631  86.566  24.597  0.00  0.00     0.169 HD
ENDROOT
BRANCH   2   5
ATOM      5  C   UNK d   1      55.295  86.588  24.865  0.00  0.00     0.220 C 
BRANCH   5   6
ATOM      6  N   UNK d   1      55.501  87.381  23.719  0.00  0.00    -0.401 N 
ATOM      7  C   UNK d   1      55.963  88.710  23.895  0.00  0.00     0.136 C 
ATOM      8  C   UNK d   1      55.701  89.580  22.666  0.00  0.00     0.136 C 
ATOM      9  N   UNK d   1      56.257  88.937  21.553  0.00  0.00    -0.401 N 
ATOM     10  C   UNK d   1      56.782  87.638  21.711  0.00  0.00     0.136 C 
ATOM     11  C   UNK d   1      55.996  86.696  22.573  0.00  0.00     0.136 C 
BRANCH   9  12
ATOM     12  C   UNK d   1      55.847  89.384  20.300  0.00  0.00     0.219 C 
BRANCH  12  13
ATOM     13  C   UNK d   1      54.414  89.503  20.029  0.00  0.00     0.235 C 
ATOM     14  O   UNK d   1      53.753  88.395  20.083  0.00  0.00    -0.272 OA
ATOM     15  N   UNK d   1      53.689  90.651  19.728  0.00  0.00    -0.355 N 
ATOM     16  H   UNK d   1      54.163  91.576  19.680  0.00  0.00     0.162 HD
BRANCH  15  17
ATOM     17  C   UNK d   1      52.251  90.647  19.477  0.00  0.00     0.084 A 
ATOM     18  C   UNK d   1      51.605  91.763  18.768  0.00  0.00     0.027 A 
ATOM     19  C   UNK d   1      51.789  90.440  18.050  0.00  0.00     0.027 A 
ENDBRANCH  15  17
ENDBRANCH  12  13
ENDBRANCH   9  12
ENDBRANCH   5   6
ENDBRANCH   2   5
BRANCH   1  20
ATOM     20  C   UNK d   1      52.045  84.521  24.530  0.00  0.00     0.054 A 
ATOM     21  C   UNK d   1      51.578  83.919  25.688  0.00  0.00     0.040 A 
ATOM     22 Br   UNK d   1      52.287  84.541  27.358  0.00  0.00    -0.049 Br
ATOM     23  C   UNK d   1      50.648  82.905  25.698  0.00  0.00     0.055 A 
ATOM     24  C   UNK d   1      50.124  82.427  24.521  0.00  0.00     0.089 A 
ATOM     25  N   UNK d   1      49.230  81.483  24.174  0.00  0.00    -0.207 NA
ATOM     26  C   UNK d   1      50.571  83.006  23.368  0.00  0.00     0.066 A 
ATOM     27  C   UNK d   1      49.091  81.438  22.835  0.00  0.00     0.244 A 
ATOM     28  N   UNK d   1      49.924  82.382  22.363  0.00  0.00    -0.319 N 
ATOM     29  H   UNK d   1      50.061  82.614  21.340  0.00  0.00     0.169 HD
ATOM     30  C   UNK d   1      51.519  84.040  23.352  0.00  0.00     0.063 A 
BRANCH  27  31
ATOM     31  O   UNK d   1      48.247  80.579  22.104  0.00  0.00    -0.331 OA
ATOM     32  H   UNK d   1      47.241  80.699  22.284  0.00  0.00     0.221 HD
ENDBRANCH  27  31
ENDBRANCH   1  20
TORSDOF 7
ENDMDL
