/Users/jonathanwahrer/Desktop/Msc/3_Semester/Drug_Design_Praktikum/waehrer_HTS_screening/HTS_experiment/out/docking_results/vina_output/3npc/0648_docked.pdbqt
 OpenBabel03192219453D

 32 35  0  0  0  0  0  0  0  0999 V2000
   48.2040   84.1310   29.4510 C   0  0  0  0  0  0  0  0  0  0  0  0
   47.8490   85.1090   28.6980 O   0  0  0  0  0  0  0  0  0  0  0  0
   49.4230   84.2160   30.0690 N   0  0  0  0  0  0  0  0  0  0  0  0
   49.9970   83.2280   30.9280 C   0  0  0  0  0  2  0  0  0  0  0  0
   51.1270   82.5640   30.2100 C   0  0  0  0  0  2  0  0  0  0  0  0
   51.7200   83.4470   29.2170 N   0  0  0  0  0  0  0  0  0  0  0  0
   51.6030   84.8670   29.2590 C   0  0  0  0  0  2  0  0  0  0  0  0
   50.3090   85.3830   29.8790 C   0  0  0  0  0  2  0  0  0  0  0  0
   52.3840   82.7490   28.1520 C   0  0  0  0  0  0  0  0  0  0  0  0
   52.2950   81.4500   28.1610 O   0  0  0  0  0  0  0  0  0  0  0  0
   53.1190   83.3680   27.1050 C   0  0  0  0  0  0  0  0  0  0  0  0
   52.6060   83.5560   25.8270 N   0  0  0  0  0  0  0  0  0  0  0  0
   53.5090   84.0840   25.0670 N   0  0  0  0  0  0  0  0  0  0  0  0
   51.2680   83.2200   25.4030 C   0  0  0  0  0  1  0  0  0  0  0  0
   54.6440   84.2840   25.7290 C   0  0  0  0  0  0  0  0  0  0  0  0
   54.3890   83.8230   27.0370 C   0  0  0  0  0  3  0  0  0  0  0  0
   55.8920   84.8680   25.2730 C   0  0  0  0  0  0  0  0  0  0  0  0
   56.9340   84.1250   25.3640 O   0  0  0  0  0  0  0  0  0  0  0  0
   56.0440   86.1450   24.7560 N   0  0  0  0  0  0  0  0  0  0  0  0
   57.3820   86.5590   24.3220 C   0  0  0  0  0  2  0  0  0  0  0  0
   54.9930   87.1060   24.6320 C   0  0  0  0  0  2  0  0  0  0  0  0
   57.6620   87.8640   25.0380 C   0  0  0  0  0  2  0  0  0  0  0  0
   56.7460   88.7860   24.5010 O   0  0  0  0  0  0  0  0  0  0  0  0
   55.4860   88.5100   24.9560 C   0  0  0  0  0  2  0  0  0  0  0  0
   47.2570   83.0500   29.5520 C   0  0  0  0  0  0  0  0  0  0  0  0
   47.2980   81.8150   28.8960 C   0  0  0  0  0  0  0  0  0  0  0  0
   48.6850   81.2880   27.6730 Br  0  0  0  0  0  0  0  0  0  0  0  0
   46.2070   81.0800   29.2740 C   0  0  0  0  0  3  0  0  0  0  0  0
   45.5080   81.8270   30.1350 N   0  0  0  0  0  0  0  0  0  0  0  0
   46.1160   82.9710   30.2980 N   0  0  0  0  0  0  0  0  0  0  0  0
   44.2690   81.3490   30.7370 C   0  0  0  0  0  2  0  0  0  0  0  0
   43.6960   80.1520   30.0270 C   0  0  0  0  0  1  0  0  0  0  0  0
  1 25  1  0  0  0  0
  1  3  1  0  0  0  0
  2  1  2  0  0  0  0
  3  4  1  0  0  0  0
  5  4  1  0  0  0  0
  6  7  1  0  0  0  0
  6  5  1  0  0  0  0
  7  8  1  0  0  0  0
  8  3  1  0  0  0  0
  9 10  2  0  0  0  0
  9  6  1  0  0  0  0
 11  9  1  0  0  0  0
 12 11  1  0  0  0  0
 13 15  2  0  0  0  0
 13 12  1  0  0  0  0
 14 12  1  0  0  0  0
 15 16  1  0  0  0  0
 16 11  2  0  0  0  0
 17 18  2  0  0  0  0
 17 15  1  0  0  0  0
 19 17  1  0  0  0  0
 20 19  1  0  0  0  0
 20 22  1  0  0  0  0
 21 19  1  0  0  0  0
 21 24  1  0  0  0  0
 23 24  1  0  0  0  0
 23 22  1  0  0  0  0
 25 30  2  0  0  0  0
 26 28  2  0  0  0  0
 26 25  1  0  0  0  0
 27 26  1  0  0  0  0
 28 29  1  0  0  0  0
 29 30  1  0  0  0  0
 29 31  1  0  0  0  0
 32 31  1  0  0  0  0
M  END
>  <Pose>
1

>  <Score>
-7.496

$$$$
