MODEL 1
REMARK VINA RESULT:    -7.496      0.000      0.000
REMARK INTER + INTRA:         -10.332
REMARK INTER:                  -9.249
REMARK INTRA:                  -1.083
REMARK UNBOUND:                -1.083
REMARK  4 active torsions:
REMARK  status: ('A' for Active; 'I' for Inactive)
REMARK    1  A    between atoms: N_4  and  C_31 
REMARK    2  A    between atoms: C_6  and  C_7 
REMARK       I    between atoms: C_7  and  N_9 
REMARK       I    between atoms: N_12  and  C_15 
REMARK    3  A    between atoms: C_15  and  C_17 
REMARK    4  A    between atoms: C_20  and  C_22 
REMARK       I    between atoms: C_22  and  N_24 
ROOT
ATOM      1  C   UNK d   1      48.204  84.131  29.451  0.00  0.00     0.275 C 
ATOM      2  O   UNK d   1      47.849  85.109  28.698  0.00  0.00    -0.266 OA
ATOM      3  N   UNK d   1      49.423  84.216  30.069  0.00  0.00    -0.344 N 
ATOM      4  C   UNK d   1      49.997  83.228  30.928  0.00  0.00     0.146 C 
ATOM      5  C   UNK d   1      51.127  82.564  30.210  0.00  0.00     0.145 C 
ATOM      6  N   UNK d   1      51.720  83.447  29.217  0.00  0.00    -0.355 N 
ATOM      7  C   UNK d   1      51.603  84.867  29.259  0.00  0.00     0.145 C 
ATOM      8  C   UNK d   1      50.309  85.383  29.879  0.00  0.00     0.146 C 
ATOM      9  C   UNK d   1      52.384  82.749  28.152  0.00  0.00     0.205 C 
ATOM     10  O   UNK d   1      52.295  81.450  28.161  0.00  0.00    -0.170 OA
ENDROOT
BRANCH   9  11
ATOM     11  C   UNK d   1      53.119  83.368  27.105  0.00  0.00     0.108 A 
ATOM     12  N   UNK d   1      52.606  83.556  25.827  0.00  0.00    -0.269 N 
ATOM     13  N   UNK d   1      53.509  84.084  25.067  0.00  0.00    -0.167 NA
ATOM     14  C   UNK d   1      51.268  83.220  25.403  0.00  0.00     0.180 C 
ATOM     15  C   UNK d   1      54.644  84.284  25.729  0.00  0.00     0.147 A 
ATOM     16  C   UNK d   1      54.389  83.823  27.037  0.00  0.00     0.075 A 
BRANCH  15  17
ATOM     17  C   UNK d   1      55.892  84.868  25.273  0.00  0.00     0.274 C 
ATOM     18  O   UNK d   1      56.934  84.125  25.364  0.00  0.00    -0.266 OA
ATOM     19  N   UNK d   1      56.044  86.145  24.756  0.00  0.00    -0.343 N 
ATOM     20  C   UNK d   1      57.382  86.559  24.322  0.00  0.00     0.152 C 
ATOM     21  C   UNK d   1      54.993  87.106  24.632  0.00  0.00     0.152 C 
ATOM     22  C   UNK d   1      57.662  87.864  25.038  0.00  0.00     0.187 C 
ATOM     23  O   UNK d   1      56.746  88.786  24.501  0.00  0.00    -0.388 OA
ATOM     24  C   UNK d   1      55.486  88.510  24.956  0.00  0.00     0.187 C 
ENDBRANCH  15  17
ENDBRANCH   9  11
BRANCH   1  25
ATOM     25  C   UNK d   1      47.257  83.050  29.552  0.00  0.00     0.163 A 
ATOM     26  C   UNK d   1      47.298  81.815  28.896  0.00  0.00     0.064 A 
ATOM     27 Br   UNK d   1      48.685  81.288  27.673  0.00  0.00    -0.047 Br
ATOM     28  C   UNK d   1      46.207  81.080  29.274  0.00  0.00     0.134 A 
ATOM     29  N   UNK d   1      45.508  81.827  30.135  0.00  0.00    -0.279 N 
ATOM     30  N   UNK d   1      46.116  82.971  30.298  0.00  0.00    -0.166 NA
BRANCH  29  31
ATOM     31  C   UNK d   1      44.269  81.349  30.737  0.00  0.00     0.146 C 
ATOM     32  C   UNK d   1      43.696  80.152  30.027  0.00  0.00     0.028 C 
ENDBRANCH  29  31
ENDBRANCH   1  25
TORSDOF 4
ENDMDL
