/Users/jonathanwahrer/Desktop/Msc/3_Semester/Drug_Design_Praktikum/waehrer_HTS_screening/HTS_experiment/out/docking_results/vina_output/3npc/0653_docked.pdbqt
 OpenBabel03192219453D

 29 32  0  0  0  0  0  0  0  0999 V2000
   53.8300   87.4930   20.1220 C   0  0  0  0  0  0  0  0  0  0  0  0
   54.9230   87.7020   20.9240 C   0  0  0  0  0  0  0  0  0  0  0  0
   55.3840   88.9780   21.1920 C   0  0  0  0  0  0  0  0  0  0  0  0
   54.7580   90.0830   20.6590 C   0  0  0  0  0  0  0  0  0  0  0  0
   53.6360   89.8840   19.8330 C   0  0  0  0  0  0  0  0  0  0  0  0
   53.1800   88.6190   19.5680 C   0  0  0  0  0  0  0  0  0  0  0  0
   52.0050   88.4260   18.7150 C   0  0  0  0  0  2  0  0  0  0  0  0
   51.6390   89.5220   17.7950 C   0  0  0  0  0  2  0  0  0  0  0  0
   51.9160   90.8520   18.3220 N   0  0  0  0  0  0  0  0  0  0  0  0
   53.0080   91.0450   19.2110 C   0  0  0  0  0  0  0  0  0  0  0  0
   53.4120   92.2240   19.4450 O   0  0  0  0  0  0  0  0  0  0  0  0
   51.0520   91.9220   17.8780 C   0  0  0  0  0  1  0  0  0  0  0  0
   56.4790   88.8330   22.0220 O   0  0  0  0  0  0  0  0  0  0  0  0
   56.6130   87.4970   22.4340 C   0  0  0  0  0  2  0  0  0  0  0  0
   55.7380   86.7560   21.5880 O   0  0  0  0  0  0  0  0  0  0  0  0
   53.3410   86.1400   19.7810 C   0  0  0  0  0  2  0  0  0  0  0  0
   52.7730   85.4310   20.9130 N   0  0  0  0  0  0  0  0  0  0  0  0
   53.1920   84.2620   21.5120 C   0  0  0  0  0  0  0  0  0  0  0  0
   54.2120   83.6260   21.0930 O   0  0  0  0  0  0  0  0  0  0  0  0
   51.9120   85.9170   21.3180 H   0  0  0  0  0  0  0  0  0  0  0  0
   52.4640   83.6930   22.6780 C   0  0  0  0  0  2  0  0  0  0  0  0
   53.0510   84.3070   23.8840 N   0  0  0  0  0  0  0  0  0  0  0  0
   52.9110   83.9050   25.1440 C   0  0  0  0  0  3  0  0  0  0  0  0
   53.6280   84.7610   25.9480 C   0  0  0  0  0  0  0  0  0  0  0  0
   53.8060   84.7020   27.8480 Br  0  0  0  0  0  0  0  0  0  0  0  0
   54.2150   85.7050   25.1380 C   0  0  0  0  0  3  0  0  0  0  0  0
   53.8330   85.3830   23.8930 N   0  0  0  0  0  0  0  0  0  0  0  0
   55.1890   91.3740   20.9070 O   0  0  0  0  0  0  0  0  0  0  0  0
   55.0720   91.9510   22.1910 C   0  0  0  0  0  1  0  0  0  0  0  0
  1  2  1  0  0  0  0
  2  3  2  0  0  0  0
  2 15  1  0  0  0  0
  3 13  1  0  0  0  0
  4 28  1  0  0  0  0
  4  3  1  0  0  0  0
  5  4  2  0  0  0  0
  6  5  1  0  0  0  0
  6  1  2  0  0  0  0
  7  6  1  0  0  0  0
  8  9  1  0  0  0  0
  8  7  1  0  0  0  0
  9 10  1  0  0  0  0
 10 11  2  0  0  0  0
 10  5  1  0  0  0  0
 12  9  1  0  0  0  0
 13 14  1  0  0  0  0
 15 14  1  0  0  0  0
 16  1  1  0  0  0  0
 16 17  1  0  0  0  0
 17 20  1  0  0  0  0
 17 18  1  0  0  0  0
 18 21  1  0  0  0  0
 19 18  2  0  0  0  0
 21 22  1  0  0  0  0
 22 27  1  0  0  0  0
 22 23  1  0  0  0  0
 23 24  2  0  0  0  0
 24 25  1  0  0  0  0
 26 24  1  0  0  0  0
 27 26  2  0  0  0  0
 28 29  1  0  0  0  0
M  END
>  <Pose>
1

>  <Score>
-8.093

$$$$
