MODEL 1
REMARK VINA RESULT:    -8.093      0.000      0.000
REMARK INTER + INTRA:         -11.622
REMARK INTER:                 -10.459
REMARK INTRA:                  -1.163
REMARK UNBOUND:                -1.163
REMARK  5 active torsions:
REMARK  status: ('A' for Active; 'I' for Inactive)
REMARK    1  A    between atoms: N_4  and  C_7 
REMARK    2  A    between atoms: C_7  and  C_8 
REMARK       I    between atoms: C_8  and  N_10 
REMARK    3  A    between atoms: N_10  and  C_11 
REMARK    4  A    between atoms: C_11  and  C_12 
REMARK    5  A    between atoms: C_15  and  O_24 
ROOT
ATOM      1  C   UNK d   1      53.830  87.493  20.122  0.00  0.00     0.003 A 
ATOM      2  C   UNK d   1      54.923  87.702  20.924  0.00  0.00     0.116 A 
ATOM      3  C   UNK d   1      55.384  88.978  21.192  0.00  0.00     0.140 A 
ATOM      4  C   UNK d   1      54.758  90.083  20.659  0.00  0.00     0.120 A 
ATOM      5  C   UNK d   1      53.636  89.884  19.833  0.00  0.00     0.075 A 
ATOM      6  C   UNK d   1      53.180  88.619  19.568  0.00  0.00    -0.027 A 
ATOM      7  C   UNK d   1      52.005  88.426  18.715  0.00  0.00     0.060 C 
ATOM      8  C   UNK d   1      51.639  89.522  17.795  0.00  0.00     0.130 C 
ATOM      9  N   UNK d   1      51.916  90.852  18.322  0.00  0.00    -0.352 N 
ATOM     10  C   UNK d   1      53.008  91.045  19.211  0.00  0.00     0.256 C 
ATOM     11  O   UNK d   1      53.412  92.224  19.445  0.00  0.00    -0.267 OA
ATOM     12  C   UNK d   1      51.052  91.922  17.878  0.00  0.00     0.152 C 
ATOM     13  O   UNK d   1      56.479  88.833  22.022  0.00  0.00    -0.320 OA
ATOM     14  C   UNK d   1      56.613  87.497  22.434  0.00  0.00     0.352 C 
ATOM     15  O   UNK d   1      55.738  86.756  21.588  0.00  0.00    -0.322 OA
ENDROOT
BRANCH   1  16
ATOM     16  C   UNK d   1      53.341  86.140  19.781  0.00  0.00     0.164 C 
BRANCH  16  17
ATOM     17  N   UNK d   1      52.773  85.431  20.913  0.00  0.00    -0.355 N 
ATOM     18  C   UNK d   1      53.192  84.262  21.512  0.00  0.00     0.237 C 
ATOM     19  O   UNK d   1      54.212  83.626  21.093  0.00  0.00    -0.272 OA
ATOM     20  H   UNK d   1      51.912  85.917  21.318  0.00  0.00     0.162 HD
BRANCH  18  21
ATOM     21  C   UNK d   1      52.464  83.693  22.678  0.00  0.00     0.253 C 
BRANCH  21  22
ATOM     22  N   UNK d   1      53.051  84.307  23.884  0.00  0.00    -0.271 N 
ATOM     23  C   UNK d   1      52.911  83.905  25.144  0.00  0.00     0.133 A 
ATOM     24  C   UNK d   1      53.628  84.761  25.948  0.00  0.00     0.047 A 
ATOM     25 Br   UNK d   1      53.806  84.702  27.848  0.00  0.00    -0.048 Br
ATOM     26  C   UNK d   1      54.215  85.705  25.138  0.00  0.00     0.159 A 
ATOM     27  N   UNK d   1      53.833  85.383  23.893  0.00  0.00    -0.183 NA
ENDBRANCH  21  22
ENDBRANCH  18  21
ENDBRANCH  16  17
ENDBRANCH   1  16
BRANCH   4  28
ATOM     28  O   UNK d   1      55.189  91.374  20.907  0.00  0.00    -0.352 OA
ATOM     29  C   UNK d   1      55.072  91.951  22.191  0.00  0.00     0.210 C 
ENDBRANCH   4  28
TORSDOF 5
ENDMDL
