MODEL 1
REMARK VINA RESULT:    -8.790      0.000      0.000
REMARK INTER + INTRA:         -10.382
REMARK INTER:                  -9.818
REMARK INTRA:                  -0.564
REMARK UNBOUND:                -0.564
REMARK  2 active torsions:
REMARK  status: ('A' for Active; 'I' for Inactive)
REMARK    1  A    between atoms: N_4  and  C_7 
REMARK    2  A    between atoms: C_10  and  C_13 
REMARK       I    between atoms: C_13  and  N_15 
ROOT
ATOM      1  C   UNK d   1      56.526  87.017  22.508  0.00  0.00     0.253 C 
ATOM      2  O   UNK d   1      57.165  86.038  21.950  0.00  0.00    -0.267 OA
ATOM      3  N   UNK d   1      56.506  87.009  23.892  0.00  0.00    -0.348 N 
ATOM      4  C   UNK d   1      55.955  87.938  24.842  0.00  0.00     0.129 C 
ATOM      5  C   UNK d   1      54.632  87.364  25.311  0.00  0.00     0.061 C 
ATOM      6  C   UNK d   1      54.729  85.858  25.448  0.00  0.00     0.118 C 
ATOM      7  N   UNK d   1      53.978  85.487  26.627  0.00  0.00    -0.324 N 
ATOM      8  C   UNK d   1      52.616  85.347  26.250  0.00  0.00     0.323 C 
ATOM      9  O   UNK d   1      51.586  85.379  27.000  0.00  0.00    -0.247 OA
ATOM     10  N   UNK d   1      52.602  85.157  24.826  0.00  0.00    -0.277 N 
ATOM     11  C   UNK d   1      53.973  85.187  24.375  0.00  0.00     0.254 C 
ATOM     12  O   UNK d   1      54.365  84.719  23.284  0.00  0.00    -0.270 OA
ATOM     13  C   UNK d   1      56.131  85.363  25.605  0.00  0.00     0.061 C 
ATOM     14  C   UNK d   1      57.107  85.821  24.575  0.00  0.00     0.129 C 
ATOM     15  H   UNK d   1      54.327  85.339  27.594  0.00  0.00     0.165 HD
ATOM     16  H   UNK d   1      51.787  85.018  24.190  0.00  0.00     0.173 HD
ENDROOT
BRANCH   1  17
ATOM     17  C   UNK d   1      55.942  87.954  21.575  0.00  0.00     0.032 A 
ATOM     18  C   UNK d   1      54.664  87.690  21.042  0.00  0.00     0.019 A 
ATOM     19  C   UNK d   1      54.028  88.547  20.183  0.00  0.00     0.032 A 
ATOM     20  C   UNK d   1      54.599  89.730  19.783  0.00  0.00     0.058 A 
ATOM     21  C   UNK d   1      55.840  90.012  20.286  0.00  0.00     0.032 A 
ATOM     22  C   UNK d   1      56.502  89.142  21.168  0.00  0.00     0.019 A 
BRANCH  20  23
ATOM     23  N   UNK d   1      53.916  90.600  18.892  0.00  0.00    -0.244 N 
ATOM     24  C   UNK d   1      52.626  90.980  18.914  0.00  0.00     0.139 A 
ATOM     25  C   UNK d   1      52.384  91.834  17.860  0.00  0.00     0.047 A 
ATOM     26 Br   UNK d   1      50.717  92.684  17.405  0.00  0.00    -0.048 Br
ATOM     27  C   UNK d   1      53.587  91.952  17.200  0.00  0.00     0.159 A 
ATOM     28  N   UNK d   1      54.466  91.196  17.855  0.00  0.00    -0.179 NA
ENDBRANCH  20  23
ENDBRANCH   1  17
TORSDOF 2
ENDMDL
