MODEL 1
REMARK VINA RESULT:    -9.213      0.000      0.000
REMARK INTER + INTRA:         -12.334
REMARK INTER:                 -11.367
REMARK INTRA:                  -0.966
REMARK UNBOUND:                -0.966
REMARK  4 active torsions:
REMARK  status: ('A' for Active; 'I' for Inactive)
REMARK    1  A    between atoms: C_5  and  N_8 
REMARK    2  A    between atoms: N_8  and  C_9 
REMARK    3  A    between atoms: C_10  and  N_22 
REMARK    4  A    between atoms: N_13  and  C_16 
ROOT
ATOM      1  C   UNK d   1      54.064  87.004  20.847  0.00  0.00     0.136 A 
ATOM      2  C   UNK d   1      55.103  87.611  21.340  0.00  0.00     0.140 A 
ATOM      3  C   UNK d   1      55.262  88.851  20.578  0.00  0.00     0.285 A 
ATOM      4  O   UNK d   1      56.185  89.698  20.789  0.00  0.00    -0.265 OA
ATOM      5  N   UNK d   1      54.244  88.974  19.575  0.00  0.00    -0.241 N 
ATOM      6  C   UNK d   1      53.466  87.789  19.741  0.00  0.00     0.284 A 
ATOM      7  O   UNK d   1      52.452  87.469  19.066  0.00  0.00    -0.265 OA
ENDROOT
BRANCH   1   8
ATOM      8  N   UNK d   1      53.491  85.768  21.231  0.00  0.00    -0.335 N 
ATOM      9  H   UNK d   1      53.108  85.639  22.168  0.00  0.00     0.168 HD
BRANCH   8  10
ATOM     10  C   UNK d   1      53.466  84.721  20.282  0.00  0.00     0.127 A 
ATOM     11  N   UNK d   1      54.599  84.309  19.651  0.00  0.00    -0.242 NA
ATOM     12  C   UNK d   1      54.626  83.335  18.735  0.00  0.00     0.138 A 
ATOM     13  C   UNK d   1      53.481  82.678  18.370  0.00  0.00     0.028 A 
ATOM     14 Br   UNK d   1      53.482  81.288  17.057  0.00  0.00    -0.050 Br
ATOM     15  C   UNK d   1      52.297  83.042  18.970  0.00  0.00     0.024 A 
ATOM     16  C   UNK d   1      52.302  84.041  19.904  0.00  0.00     0.052 A 
ENDBRANCH   8  10
ENDBRANCH   1   8
BRANCH   2  17
ATOM     17  N   UNK d   1      55.950  87.200  22.415  0.00  0.00    -0.326 N 
ATOM     18  C   UNK d   1      55.565  87.404  23.688  0.00  0.00     0.097 A 
ATOM     19  C   UNK d   1      56.378  87.020  24.769  0.00  0.00     0.018 A 
ATOM     20  C   UNK d   1      57.601  86.421  24.531  0.00  0.00     0.003 A 
ATOM     21  C   UNK d   1      57.973  86.223  23.219  0.00  0.00     0.018 A 
ATOM     22  C   UNK d   1      57.151  86.612  22.194  0.00  0.00     0.097 A 
ENDBRANCH   2  17
BRANCH   5  23
ATOM     23  C   UNK d   1      54.072  90.026  18.639  0.00  0.00     0.046 A 
ATOM     24  C   UNK d   1      53.570  91.258  18.972  0.00  0.00     0.030 A 
ATOM     25  C   UNK d   1      53.429  92.288  18.018  0.00  0.00     0.002 A 
ATOM     26  C   UNK d   1      53.797  92.079  16.709  0.00  0.00     0.000 A 
ATOM     27  C   UNK d   1      54.299  90.849  16.370  0.00  0.00     0.002 A 
ATOM     28  C   UNK d   1      54.432  89.842  17.328  0.00  0.00     0.030 A 
ENDBRANCH   5  23
TORSDOF 4
ENDMDL
