MODEL 1
REMARK VINA RESULT:    -7.278      0.000      0.000
REMARK INTER + INTRA:          -9.000
REMARK INTER:                  -8.554
REMARK INTRA:                  -0.445
REMARK UNBOUND:                -0.445
REMARK  3 active torsions:
REMARK  status: ('A' for Active; 'I' for Inactive)
REMARK    1  A    between atoms: C_5  and  N_8 
REMARK    2  A    between atoms: C_10  and  C_12 
REMARK    3  A    between atoms: C_12  and  N_13 
ROOT
ATOM      1  C   UNK d   1      53.831  84.765  20.899  0.00  0.00     0.160 C 
ENDROOT
BRANCH   1   2
ATOM      2  C   UNK d   1      53.746  84.265  19.492  0.00  0.00     0.043 C 
ATOM      3  C   UNK d   1      54.210  82.840  19.268  0.00  0.00     0.149 C 
ATOM      4  N   UNK d   1      53.199  82.788  18.253  0.00  0.00    -0.213 N 
ATOM      5  C   UNK d   1      52.414  83.627  19.113  0.00  0.00     0.149 C 
BRANCH   4   6
ATOM      6  C   UNK d   1      53.058  82.185  16.998  0.00  0.00     0.724 A 
ATOM      7  N   UNK d   1      52.719  80.891  16.815  0.00  0.00    -0.074 NA
ATOM      8  C   UNK d   1      52.580  80.300  15.636  0.00  0.00     0.157 A 
ATOM      9  C   UNK d   1      52.787  81.026  14.485  0.00  0.00     0.047 A 
ATOM     10 Br   UNK d   1      52.594  80.202  12.770  0.00  0.00    -0.048 Br
ATOM     11  C   UNK d   1      53.134  82.352  14.630  0.00  0.00     0.157 A 
ATOM     12  N   UNK d   1      53.261  82.900  15.851  0.00  0.00    -0.074 NA
ENDBRANCH   4   6
ENDBRANCH   1   2
BRANCH   1  13
ATOM     13  N   UNK d   1      54.217  86.151  20.855  0.00  0.00    -0.257 N 
ATOM     14  N   UNK d   1      53.490  87.061  20.088  0.00  0.00    -0.296 N 
ATOM     15  C   UNK d   1      53.832  88.438  20.013  0.00  0.00     0.051 A 
ATOM     16  H   UNK d   1      52.656  86.679  19.553  0.00  0.00     0.187 HD
ATOM     17  C   UNK d   1      53.110  89.257  19.272  0.00  0.00    -0.051 A 
ATOM     18  C   UNK d   1      54.973  88.949  20.748  0.00  0.00     0.036 A 
ATOM     19  C   UNK d   1      52.016  89.637  18.357  0.00  0.00     0.041 A 
ATOM     20  C   UNK d   1      52.929  90.683  18.792  0.00  0.00     0.041 A 
ATOM     21  C   UNK d   1      55.678  88.104  21.482  0.00  0.00     0.078 A 
ATOM     22  C   UNK d   1      55.330  86.670  21.567  0.00  0.00     0.262 A 
ATOM     23  O   UNK d   1      56.018  85.886  22.273  0.00  0.00    -0.267 OA
ENDBRANCH   1  13
TORSDOF 3
ENDMDL
