MODEL 1
REMARK VINA RESULT:    -8.605      0.000      0.000
REMARK INTER + INTRA:          -8.838
REMARK INTER:                  -9.611
REMARK INTRA:                   0.774
REMARK UNBOUND:                 0.774
REMARK  2 active torsions:
REMARK  status: ('A' for Active; 'I' for Inactive)
REMARK    1  A    between atoms: C_6  and  C_8 
REMARK       I    between atoms: C_8  and  N_10 
REMARK    2  A    between atoms: C_12  and  N_14 
ROOT
ATOM      1  C   UNK d   1      56.172  87.405  24.545  0.00  0.00     0.255 C 
ATOM      2  O   UNK d   1      56.892  88.161  25.296  0.00  0.00    -0.267 OA
ATOM      3  N   UNK d   1      55.815  87.904  23.278  0.00  0.00    -0.344 N 
ATOM      4  C   UNK d   1      55.062  87.516  22.127  0.00  0.00     0.153 C 
ATOM      5  C   UNK d   1      54.840  89.015  21.854  0.00  0.00     0.132 C 
ATOM      6  C   UNK d   1      56.140  89.148  22.551  0.00  0.00     0.153 C 
ENDROOT
BRANCH   5   7
ATOM      7  N   UNK d   1      54.807  89.303  20.447  0.00  0.00    -0.280 N 
ATOM      8  C   UNK d   1      55.715  90.116  19.679  0.00  0.00     0.232 C 
ATOM      9  O   UNK d   1      56.896  90.348  19.990  0.00  0.00    -0.272 OA
ATOM     10  C   UNK d   1      54.927  90.580  18.485  0.00  0.00     0.095 C 
ATOM     11  C   UNK d   1      54.140  89.326  18.184  0.00  0.00     0.095 C 
ATOM     12  C   UNK d   1      54.094  91.732  18.933  0.00  0.00     0.041 C 
ATOM     13  C   UNK d   1      52.916  89.633  17.367  0.00  0.00     0.041 C 
ATOM     14  C   UNK d   1      53.832  88.813  19.533  0.00  0.00     0.232 C 
ATOM     15  C   UNK d   1      52.051  90.592  18.105  0.00  0.00    -0.030 C 
ATOM     16  C   UNK d   1      52.643  91.536  18.809  0.00  0.00    -0.030 C 
ATOM     17  O   UNK d   1      52.852  88.067  19.778  0.00  0.00    -0.272 OA
ENDBRANCH   5   7
BRANCH   1  18
ATOM     18  C   UNK d   1      55.822  86.125  25.115  0.00  0.00     0.051 A 
ATOM     19  C   UNK d   1      56.745  85.071  25.109  0.00  0.00     0.133 A 
ATOM     20  N   UNK d   1      56.466  83.862  25.610  0.00  0.00    -0.271 NA
ATOM     21  C   UNK d   1      55.255  83.594  26.161  0.00  0.00     0.135 A 
ATOM     22  C   UNK d   1      54.290  84.572  26.208  0.00  0.00     0.029 A 
ATOM     23 Br   UNK d   1      52.598  84.172  26.984  0.00  0.00    -0.050 Br
ATOM     24  C   UNK d   1      54.607  85.814  25.680  0.00  0.00     0.039 A 
ENDBRANCH   1  18
TORSDOF 2
ENDMDL
