/Users/jonathanwahrer/Desktop/Msc/3_Semester/Drug_Design_Praktikum/waehrer_HTS_screening/HTS_experiment/out/docking_results/vina_output/3npc/0680_docked.pdbqt
 OpenBabel03192219463D

 24 27  0  0  1  0  0  0  0  0999 V2000
   56.1720   87.4050   24.5450 C   0  0  0  0  0  0  0  0  0  0  0  0
   56.8920   88.1610   25.2960 O   0  0  0  0  0  0  0  0  0  0  0  0
   55.8150   87.9040   23.2780 N   0  0  0  0  0  0  0  0  0  0  0  0
   55.0620   87.5160   22.1270 C   0  0  0  0  0  2  0  0  0  0  0  0
   54.8400   89.0150   21.8540 C   0  0  1  0  0  3  0  0  0  0  0  0
   56.1400   89.1480   22.5510 C   0  0  0  0  0  2  0  0  0  0  0  0
   54.8070   89.3030   20.4470 N   0  0  0  0  0  0  0  0  0  0  0  0
   55.7150   90.1160   19.6790 C   0  0  0  0  0  0  0  0  0  0  0  0
   56.8960   90.3480   19.9900 O   0  0  0  0  0  0  0  0  0  0  0  0
   54.9270   90.5800   18.4850 C   0  0  1  0  0  3  0  0  0  0  0  0
   54.1400   89.3260   18.1840 C   0  0  2  0  0  3  0  0  0  0  0  0
   54.0940   91.7320   18.9330 C   0  0  0  0  0  2  0  0  0  0  0  0
   52.9160   89.6330   17.3670 C   0  0  0  0  0  2  0  0  0  0  0  0
   53.8320   88.8130   19.5330 C   0  0  0  0  0  0  0  0  0  0  0  0
   52.0510   90.5920   18.1050 C   0  0  0  0  0  3  0  0  0  0  0  0
   52.6430   91.5360   18.8090 C   0  0  0  0  0  3  0  0  0  0  0  0
   52.8520   88.0670   19.7780 O   0  0  0  0  0  0  0  0  0  0  0  0
   55.8220   86.1250   25.1150 C   0  0  0  0  0  0  0  0  0  0  0  0
   56.7450   85.0710   25.1090 C   0  0  0  0  0  3  0  0  0  0  0  0
   56.4660   83.8620   25.6100 N   0  0  0  0  0  0  0  0  0  0  0  0
   55.2550   83.5940   26.1610 C   0  0  0  0  0  3  0  0  0  0  0  0
   54.2900   84.5720   26.2080 C   0  0  0  0  0  0  0  0  0  0  0  0
   52.5980   84.1720   26.9840 Br  0  0  0  0  0  0  0  0  0  0  0  0
   54.6070   85.8140   25.6800 C   0  0  0  0  0  3  0  0  0  0  0  0
  1 18  1  0  0  0  0
  1  2  2  0  0  0  0
  3  1  1  0  0  0  0
  4  3  1  0  0  0  0
  5  7  1  6  0  0  0
  5  4  1  0  0  0  0
  5  6  1  0  0  0  0
  6  3  1  0  0  0  0
  8  9  2  0  0  0  0
  8  7  1  0  0  0  0
 10 12  1  1  0  0  0
 10  8  1  0  0  0  0
 11 13  1  1  0  0  0
 11 10  1  0  0  0  0
 11 14  1  0  0  0  0
 13 15  1  0  0  0  0
 14 17  2  0  0  0  0
 14  7  1  0  0  0  0
 15 16  2  0  0  0  0
 16 12  1  0  0  0  0
 18 24  1  0  0  0  0
 19 18  2  0  0  0  0
 19 20  1  0  0  0  0
 20 21  2  0  0  0  0
 21 22  1  0  0  0  0
 22 23  1  0  0  0  0
 24 22  2  0  0  0  0
M  END
>  <Pose>
1

>  <Score>
-8.605

$$$$
