MODEL 1
REMARK VINA RESULT:    -8.811      0.000      0.000
REMARK INTER + INTRA:         -10.460
REMARK INTER:                 -10.356
REMARK INTRA:                  -0.104
REMARK UNBOUND:                -0.104
REMARK  3 active torsions:
REMARK  status: ('A' for Active; 'I' for Inactive)
REMARK    1  A    between atoms: C_6  and  C_8 
REMARK       I    between atoms: C_8  and  N_10 
REMARK    2  A    between atoms: C_12  and  O_14 
REMARK    3  A    between atoms: O_14  and  C_15 
ROOT
ATOM      1  C   UNK d   1      49.976 100.719  27.639  0.00  0.00     0.255 C 
ATOM      2  O   UNK d   1      49.964 101.341  26.532  0.00  0.00    -0.267 OA
ATOM      3  N   UNK d   1      51.077  99.908  27.939  0.00  0.00    -0.343 N 
ATOM      4  C   UNK d   1      51.580  99.052  28.980  0.00  0.00     0.160 C 
ATOM      5  C   UNK d   1      52.933  98.912  28.299  0.00  0.00     0.166 C 
ATOM      6  C   UNK d   1      52.279  99.599  27.140  0.00  0.00     0.160 C 
ENDROOT
BRANCH   5   7
ATOM      7  O   UNK d   1      53.393  97.616  28.069  0.00  0.00    -0.325 OA
BRANCH   7   8
ATOM      8  C   UNK d   1      54.362  97.247  27.160  0.00  0.00     0.186 A 
ATOM      9  C   UNK d   1      55.465  97.981  27.035  0.00  0.00     0.087 A 
ATOM     10  C   UNK d   1      56.525  97.643  26.093  0.00  0.00     0.044 A 
ATOM     11  C   UNK d   1      57.608  98.394  25.997  0.00  0.00     0.043 C 
ATOM     12  N   UNK d   1      56.345  96.484  25.291  0.00  0.00    -0.189 N 
ATOM     13  C   UNK d   1      55.144  95.712  25.447  0.00  0.00     0.731 A 
ATOM     14  H   UNK d   1      57.091  96.234  24.620  0.00  0.00     0.184 HD
ATOM     15  N   UNK d   1      54.206  96.076  26.332  0.00  0.00    -0.038 N 
ATOM     16  N   UNK d   1      54.714  94.603  24.838  0.00  0.00    -0.054 NA
ATOM     17  N   UNK d   1      53.198  95.200  26.276  0.00  0.00    -0.143 NA
ATOM     18  C   UNK d   1      53.519  94.291  25.349  0.00  0.00     0.275 A 
ENDBRANCH   7   8
ENDBRANCH   5   7
BRANCH   1  19
ATOM     19  C   UNK d   1      48.848 100.886  28.522  0.00  0.00     0.051 A 
ATOM     20  C   UNK d   1      47.761 100.056  28.625  0.00  0.00     0.133 A 
ATOM     21  N   UNK d   1      46.735 100.282  29.497  0.00  0.00    -0.271 NA
ATOM     22  C   UNK d   1      46.714 101.335  30.321  0.00  0.00     0.135 A 
ATOM     23  C   UNK d   1      47.779 102.204  30.264  0.00  0.00     0.029 A 
ATOM     24 Br   UNK d   1      47.782 103.729  31.435  0.00  0.00    -0.050 Br
ATOM     25  C   UNK d   1      48.817 101.991  29.393  0.00  0.00     0.039 A 
ENDBRANCH   1  19
TORSDOF 3
ENDMDL
