/Users/jonathanwahrer/Desktop/Msc/3_Semester/Drug_Design_Praktikum/waehrer_HTS_screening/HTS_experiment/out/docking_results/vina_output/3npc/0683_docked.pdbqt
 OpenBabel03192219473D

 10 10  0  0  0  0  0  0  0  0999 V2000
   52.7620   97.0940   27.5540 Br  0  0  0  0  0  0  0  0  0  0  0  0
   51.4270   98.2760   28.1760 C   0  0  0  0  0  0  0  0  0  0  0  0
   51.7420   99.6030   28.4200 C   0  0  0  0  0  3  0  0  0  0  0  0
   50.7600  100.4030   28.8600 N   0  0  0  0  0  0  0  0  0  0  0  0
   49.5000   99.9950   29.0750 C   0  0  0  0  0  3  0  0  0  0  0  0
   49.1960   98.6790   28.8330 C   0  0  0  0  0  0  0  0  0  0  0  0
   50.1530   97.7880   28.3760 C   0  0  0  0  0  3  0  0  0  0  0  0
   47.8420   98.1990   29.0540 C   0  0  0  0  0  0  0  0  0  0  0  0
   46.8640   98.9990   29.0250 O   0  0  0  0  0  0  0  0  0  0  0  0
   47.5820   96.8630   29.3050 O   0  0  0  0  0  1  0  0  0  0  0  0
  1  2  1  0  0  0  0
  2  7  2  0  0  0  0
  2  3  1  0  0  0  0
  3  4  2  0  0  0  0
  4  5  1  0  0  0  0
  6  8  1  0  0  0  0
  6  5  2  0  0  0  0
  7  6  1  0  0  0  0
  8 10  1  0  0  0  0
  9  8  2  0  0  0  0
M  END
>  <Pose>
1

>  <Score>
-5.344

$$$$
