MODEL 1
REMARK VINA RESULT:    -5.344      0.000      0.000
REMARK INTER + INTRA:          -5.691
REMARK INTER:                  -5.656
REMARK INTRA:                  -0.035
REMARK UNBOUND:                -0.035
REMARK  2 active torsions:
REMARK  status: ('A' for Active; 'I' for Inactive)
REMARK    1  A    between atoms: C_6  and  C_8 
REMARK    2  A    between atoms: C_21  and  N_22 
ROOT
ATOM      1 Br   UNK d   1      52.762  97.094  27.554  0.00  0.00    -0.050 Br
ATOM      2  C   UNK d   1      51.427  98.276  28.176  0.00  0.00     0.029 A 
ATOM      3  C   UNK d   1      51.742  99.603  28.420  0.00  0.00     0.135 A 
ATOM      4  N   UNK d   1      50.760 100.403  28.860  0.00  0.00    -0.271 NA
ATOM      5  C   UNK d   1      49.500  99.995  29.075  0.00  0.00     0.134 A 
ATOM      6  C   UNK d   1      49.196  98.679  28.833  0.00  0.00     0.059 A 
ATOM      7  C   UNK d   1      50.153  97.788  28.376  0.00  0.00     0.040 A 
ENDROOT
BRANCH   6   8
ATOM      8  C   UNK d   1      47.842  98.199  29.054  0.00  0.00     0.210 C 
ATOM      9  O   UNK d   1      46.864  98.999  29.025  0.00  0.00    -0.644 OA
ATOM     10  O   UNK d   1      47.582  96.863  29.305  0.00  0.00    -0.644 OA
ENDBRANCH   6   8
TORSDOF 2
ENDMDL
