MODEL 1
REMARK VINA RESULT:    -5.375      0.000      0.000
REMARK INTER + INTRA:          -5.725
REMARK INTER:                  -5.690
REMARK INTRA:                  -0.035
REMARK UNBOUND:                -0.035
REMARK  2 active torsions:
REMARK  status: ('A' for Active; 'I' for Inactive)
REMARK    1  A    between atoms: C_6  and  C_8 
REMARK    2  A    between atoms: C_20  and  N_21 
ROOT
ATOM      1 Br   UNK d   1      52.767  97.034  27.573  0.00  0.00    -0.050 Br
ATOM      2  C   UNK d   1      51.421  98.232  28.194  0.00  0.00     0.029 A 
ATOM      3  C   UNK d   1      51.682  99.563  28.437  0.00  0.00     0.135 A 
ATOM      4  N   UNK d   1      50.738 100.414  28.875  0.00  0.00    -0.271 NA
ATOM      5  C   UNK d   1      49.497  99.949  29.083  0.00  0.00     0.134 A 
ATOM      6  C   UNK d   1      49.156  98.634  28.863  0.00  0.00     0.059 A 
ATOM      7  C   UNK d   1      50.137  97.788  28.417  0.00  0.00     0.040 A 
ENDROOT
BRANCH   6   8
ATOM      8  C   UNK d   1      47.802  98.143  29.093  0.00  0.00     0.210 C 
ATOM      9  O   UNK d   1      47.612  96.919  29.295  0.00  0.00    -0.644 OA
ATOM     10  O   UNK d   1      46.760  99.059  29.081  0.00  0.00    -0.644 OA
ENDBRANCH   6   8
TORSDOF 2
ENDMDL
