MODEL 1
REMARK VINA RESULT:    -7.996      0.000      0.000
REMARK INTER + INTRA:         -10.526
REMARK INTER:                  -9.865
REMARK INTRA:                  -0.661
REMARK UNBOUND:                -0.661
REMARK  4 active torsions:
REMARK  status: ('A' for Active; 'I' for Inactive)
REMARK    1  A    between atoms: C_11  and  C_14 
REMARK    2  A    between atoms: C_11  and  C_21 
REMARK    3  A    between atoms: C_14  and  N_15 
REMARK    4  A    between atoms: C_21  and  N_22 
ROOT
ATOM      1 Br   UNK d   1      55.707  90.244  21.373  0.00  0.00    -0.048 Br
ATOM      2  C   UNK d   1      54.218  89.822  20.271  0.00  0.00     0.046 A 
ATOM      3  C   UNK d   1      53.920  88.498  20.009  0.00  0.00     0.100 A 
ATOM      4  C   UNK d   1      52.836  88.119  19.202  0.00  0.00     0.047 A 
ATOM      5  C   UNK d   1      52.041  89.092  18.651  0.00  0.00     0.037 A 
ATOM      6  C   UNK d   1      52.334  90.418  18.909  0.00  0.00     0.013 A 
ATOM      7  C   UNK d   1      53.398  90.791  19.701  0.00  0.00     0.041 A 
ATOM      8 Br   UNK d   1      51.252  91.793  18.162  0.00  0.00    -0.051 Br
ATOM      9  C   UNK d   1      52.570  86.709  18.943  0.00  0.00     0.176 C 
ATOM     10  O   UNK d   1      51.904  86.458  17.902  0.00  0.00    -0.291 OA
ATOM     11  C   UNK d   1      53.040  85.648  19.826  0.00  0.00     0.095 C 
ATOM     12  C   UNK d   1      53.962  86.275  20.906  0.00  0.00     0.197 C 
ATOM     13  O   UNK d   1      54.627  87.412  20.492  0.00  0.00    -0.347 OA
ENDROOT
BRANCH  11  14
ATOM     14  C   UNK d   1      52.044  84.912  20.598  0.00  0.00     0.256 C 
BRANCH  14  15
ATOM     15  N   UNK d   1      52.112  84.582  21.945  0.00  0.00    -0.070 N 
ATOM     16  C   UNK d   1      53.097  83.666  22.428  0.00  0.00     0.235 C 
ATOM     17  C   UNK d   1      53.298  84.004  23.928  0.00  0.00     0.028 C 
ATOM     18  C   UNK d   1      52.053  83.487  24.618  0.00  0.00     0.003 C 
ATOM     19  C   UNK d   1      50.925  83.251  23.638  0.00  0.00     0.028 C 
ATOM     20  C   UNK d   1      50.835  84.354  22.606  0.00  0.00     0.235 C 
ATOM     21  H   UNK d   1      52.433  85.508  22.413  0.00  0.00     0.279 HD
ENDBRANCH  14  15
ENDBRANCH  11  14
BRANCH  11  22
ATOM     22  C   UNK d   1      53.865  84.679  18.993  0.00  0.00     0.256 C 
BRANCH  22  23
ATOM     23  N   UNK d   1      53.058  83.846  18.136  0.00  0.00    -0.070 N 
ATOM     24  C   UNK d   1      53.165  82.476  18.618  0.00  0.00     0.235 C 
ATOM     25  C   UNK d   1      54.607  82.101  18.705  0.00  0.00     0.028 C 
ATOM     26  C   UNK d   1      55.391  82.308  17.461  0.00  0.00     0.003 C 
ATOM     27  C   UNK d   1      54.999  83.492  16.646  0.00  0.00     0.028 C 
ATOM     28  C   UNK d   1      53.519  83.780  16.762  0.00  0.00     0.235 C 
ATOM     29  H   UNK d   1      52.075  84.171  18.101  0.00  0.00     0.279 HD
ENDBRANCH  22  23
ENDBRANCH  11  22
TORSDOF 4
ENDMDL
