/Users/jonathanwahrer/Desktop/Msc/3_Semester/Drug_Design_Praktikum/waehrer_HTS_screening/HTS_experiment/out/docking_results/vina_output/3npc/0696_docked.pdbqt
 OpenBabel03192219473D

 28 31  0  0  1  0  0  0  0  0999 V2000
   55.7350   89.8630   21.6970 Br  0  0  0  0  0  0  0  0  0  0  0  0
   54.7640   89.3640   20.1440 C   0  0  0  0  0  0  0  0  0  0  0  0
   54.0580   88.1530   20.1380 C   0  0  0  0  0  0  0  0  0  0  0  0
   53.3380   87.7470   19.0570 C   0  0  0  0  0  0  0  0  0  0  0  0
   53.3110   88.5600   17.9370 C   0  0  0  0  0  3  0  0  0  0  0  0
   54.0080   89.7630   17.9340 C   0  0  0  0  0  0  0  0  0  0  0  0
   54.7350   90.1710   19.0280 C   0  0  0  0  0  3  0  0  0  0  0  0
   54.0050   90.6660   16.7480 C   0  0  0  0  0  1  0  0  0  0  0  0
   52.5620   86.4780   19.0890 C   0  0  1  0  0  3  0  0  0  0  0  0
   53.1060   85.3850   19.9370 C   0  0  0  0  0  0  0  0  0  0  0  0
   54.2190   85.9090   20.8750 C   0  0  0  0  0  2  0  0  0  0  0  0
   54.0320   87.2740   21.2110 O   0  0  0  0  0  0  0  0  0  0  0  0
   53.8240   84.3160   19.1360 C   0  0  0  0  0  2  0  0  0  0  0  0
   53.1970   83.9840   17.8750 N   0  0  0  0  0  4  0  0  0  0  0  0
   52.8790   82.5560   17.8480 C   0  0  0  0  0  2  0  0  0  0  0  0
   52.8010   82.1370   16.4270 C   0  0  0  0  0  2  0  0  0  0  0  0
   53.3100   83.3170   15.6710 C   0  0  0  0  0  2  0  0  0  0  0  0
   54.1180   84.0470   16.7520 C   0  0  0  0  0  2  0  0  0  0  0  0
   52.3810   84.5580   17.6200 H   0  0  0  0  0  0  0  0  0  0  0  0
   52.0960   84.8320   20.8710 C   0  0  0  0  0  2  0  0  0  0  0  0
   52.1020   83.6590   21.5790 N   0  0  0  0  0  4  0  0  0  0  0  0
   51.9190   83.9340   23.0230 C   0  0  0  0  0  2  0  0  0  0  0  0
   51.1400   82.8030   23.5730 C   0  0  0  0  0  2  0  0  0  0  0  0
   50.3900   82.2130   22.4410 C   0  0  0  0  0  2  0  0  0  0  0  0
   51.2120   82.6330   21.2230 C   0  0  0  0  0  2  0  0  0  0  0  0
   53.1250   83.2250   21.6300 H   0  0  0  0  0  0  0  0  0  0  0  0
   51.2710   86.9210   19.4940 O   0  0  0  0  0  0  0  0  0  0  0  0
   50.9940   86.4930   20.3220 H   0  0  0  0  0  0  0  0  0  0  0  0
  2  1  1  0  0  0  0
  3  2  1  0  0  0  0
  3 12  1  0  0  0  0
  4  9  1  0  0  0  0
  4  3  2  0  0  0  0
  5  4  1  0  0  0  0
  6  5  2  0  0  0  0
  6  7  1  0  0  0  0
  7  2  2  0  0  0  0
  8  6  1  0  0  0  0
  9 27  1  1  0  0  0
  9 10  1  0  0  0  0
 10 20  1  0  0  0  0
 10 11  1  0  0  0  0
 11 12  1  0  0  0  0
 13 10  1  0  0  0  0
 14 13  1  0  0  0  0
 15 14  1  0  0  0  0
 16 15  1  0  0  0  0
 17 16  1  0  0  0  0
 17 18  1  0  0  0  0
 18 14  1  0  0  0  0
 19 14  1  0  0  0  0
 20 21  1  0  0  0  0
 21 26  1  0  0  0  0
 21 22  1  0  0  0  0
 22 23  1  0  0  0  0
 24 23  1  0  0  0  0
 25 21  1  0  0  0  0
 25 24  1  0  0  0  0
 27 28  1  0  0  0  0
M  END
>  <Pose>
1

>  <Score>
-8.194

$$$$
