MODEL 1
REMARK VINA RESULT:    -9.540      0.000      0.000
REMARK INTER + INTRA:         -13.335
REMARK INTER:                 -13.165
REMARK INTRA:                  -0.170
REMARK UNBOUND:                -0.170
REMARK  7 active torsions:
REMARK  status: ('A' for Active; 'I' for Inactive)
REMARK    1  A    between atoms: C_7  and  O_8 
REMARK    2  A    between atoms: O_8  and  C_9 
REMARK    3  A    between atoms: C_9  and  C_10 
REMARK    4  A    between atoms: C_10  and  O_11 
REMARK    5  A    between atoms: C_10  and  C_12 
REMARK    6  A    between atoms: C_12  and  N_13 
REMARK       I    between atoms: N_16  and  C_19 
REMARK    7  A    between atoms: C_19  and  C_21 
ROOT
ATOM      1  C   UNK d   1      55.084  91.432  22.200  0.00  0.00     0.168 C 
ENDROOT
BRANCH   1   2
ATOM      2  C   UNK d   1      54.932  92.931  22.230  0.00  0.00     0.209 C 
BRANCH   2   3
ATOM      3  O   UNK d   1      55.773  93.532  23.195  0.00  0.00    -0.347 OA
BRANCH   3   4
ATOM      4  C   UNK d   1      55.168  94.277  24.206  0.00  0.00     0.087 A 
ATOM      5  C   UNK d   1      55.837  95.290  24.865  0.00  0.00     0.055 A 
ATOM      6 Br   UNK d   1      57.632  95.653  24.351  0.00  0.00    -0.047 Br
ATOM      7  C   UNK d   1      55.256  96.039  25.869  0.00  0.00    -0.006 A 
ATOM      8  C   UNK d   1      53.956  95.798  26.261  0.00  0.00    -0.024 A 
ATOM      9  C   UNK d   1      55.932  97.053  26.525  0.00  0.00     0.014 A 
ATOM     10  C   UNK d   1      53.279  94.787  25.609  0.00  0.00     0.015 A 
ATOM     11  C   UNK d   1      53.373  96.550  27.268  0.00  0.00     0.012 A 
ATOM     12  C   UNK d   1      53.867  94.043  24.606  0.00  0.00     0.039 A 
ATOM     13  C   UNK d   1      54.049  97.561  27.921  0.00  0.00     0.001 A 
ATOM     14  C   UNK d   1      55.351  97.802  27.529  0.00  0.00     0.001 A 
ENDBRANCH   3   4
ENDBRANCH   2   3
ENDBRANCH   1   2
BRANCH   1  15
ATOM     15  O   UNK d   1      55.374  90.894  23.427  0.00  0.00    -0.392 OA
ATOM     16  H   UNK d   1      56.121  91.311  23.894  0.00  0.00     0.210 HD
ENDBRANCH   1  15
BRANCH   1  17
ATOM     17  C   UNK d   1      56.060  91.018  21.153  0.00  0.00     0.268 C 
BRANCH  17  18
ATOM     18  N   UNK d   1      55.839  89.684  20.640  0.00  0.00    -0.066 N 
ATOM     19  C   UNK d   1      54.402  89.514  20.512  0.00  0.00     0.254 C 
ATOM     20  C   UNK d   1      54.020  88.056  20.219  0.00  0.00     0.152 C 
ATOM     21  N   UNK d   1      54.531  87.232  21.255  0.00  0.00    -0.356 N 
ATOM     22  C   UNK d   1      55.324  87.944  22.279  0.00  0.00     0.152 C 
ATOM     23  C   UNK d   1      54.334  85.851  21.361  0.00  0.00     0.187 C 
ATOM     24  C   UNK d   1      56.391  88.726  21.587  0.00  0.00     0.254 C 
ATOM     25  O   UNK d   1      54.919  85.321  22.424  0.00  0.00    -0.171 OA
ATOM     26  H   UNK d   1      56.261  89.519  19.702  0.00  0.00     0.280 HD
BRANCH  23  27
ATOM     27  C   UNK d   1      53.631  84.915  20.546  0.00  0.00     0.018 A 
ATOM     28  C   UNK d   1      53.915  84.579  19.253  0.00  0.00     0.016 A 
ATOM     29  C   UNK d   1      53.187  83.657  18.513  0.00  0.00     0.001 A 
ATOM     30  C   UNK d   1      52.120  83.027  19.070  0.00  0.00     0.000 A 
ATOM     31  C   UNK d   1      51.807  83.345  20.375  0.00  0.00     0.001 A 
ATOM     32  C   UNK d   1      52.526  84.256  21.106  0.00  0.00     0.016 A 
ENDBRANCH  23  27
ENDBRANCH  17  18
ENDBRANCH   1  17
TORSDOF 7
ENDMDL
