MODEL 1
REMARK VINA RESULT:    -7.349      0.000      0.000
REMARK INTER + INTRA:          -9.304
REMARK INTER:                  -8.638
REMARK INTRA:                  -0.665
REMARK UNBOUND:                -0.665
REMARK  3 active torsions:
REMARK  status: ('A' for Active; 'I' for Inactive)
REMARK    1  A    between atoms: N_3  and  C_15 
REMARK    2  A    between atoms: C_15  and  C_16 
REMARK    3  A    between atoms: C_16  and  N_17 
ROOT
ATOM      1  C   UNK d   1      54.474  85.847  20.905  0.00  0.00     0.152 C 
ENDROOT
BRANCH   1   2
ATOM      2  N   UNK d   1      54.712  87.230  21.146  0.00  0.00    -0.316 N 
ATOM      3  C   UNK d   1      55.470  87.678  22.164  0.00  0.00     0.180 A 
ATOM      4 Br   UNK d   1      56.391  86.616  23.484  0.00  0.00    -0.008 Br
ATOM      5  N   UNK d   1      55.464  89.021  22.087  0.00  0.00    -0.203 NA
ATOM      6  C   UNK d   1      54.720  89.421  21.047  0.00  0.00     0.169 A 
ATOM      7  C   UNK d   1      54.240  88.274  20.446  0.00  0.00     0.152 A 
ATOM      8  N   UNK d   1      54.380  90.617  20.525  0.00  0.00    -0.286 N 
ATOM      9  C   UNK d   1      53.433  88.448  19.341  0.00  0.00     0.282 A 
ATOM     10  N   UNK d   1      53.101  89.645  18.829  0.00  0.00    -0.269 N 
ATOM     11  O   UNK d   1      52.986  87.424  18.784  0.00  0.00    -0.265 OA
ATOM     12  C   UNK d   1      53.587  90.742  19.439  0.00  0.00     0.332 A 
ATOM     13  C   UNK d   1      52.250  89.805  17.665  0.00  0.00     0.164 C 
ATOM     14  O   UNK d   1      53.291  91.885  18.980  0.00  0.00    -0.246 OA
ATOM     15  C   UNK d   1      54.889  91.815  21.162  0.00  0.00     0.163 C 
ENDBRANCH   1   2
BRANCH   1  16
ATOM     16  C   UNK d   1      53.137  85.312  21.270  0.00  0.00     0.152 C 
BRANCH  16  17
ATOM     17  N   UNK d   1      53.037  83.916  21.535  0.00  0.00    -0.316 N 
ATOM     18  C   UNK d   1      53.034  83.347  22.766  0.00  0.00     0.152 A 
ATOM     19  C   UNK d   1      52.931  81.984  22.637  0.00  0.00     0.169 A 
ATOM     20  C   UNK d   1      53.110  83.843  24.062  0.00  0.00     0.282 A 
ATOM     21  N   UNK d   1      52.873  81.760  21.313  0.00  0.00    -0.203 NA
ATOM     22  N   UNK d   1      52.902  81.135  23.699  0.00  0.00    -0.286 N 
ATOM     23  C   UNK d   1      52.937  82.922  20.648  0.00  0.00     0.180 A 
ATOM     24 Br   UNK d   1      52.901  83.181  18.738  0.00  0.00    -0.008 Br
ATOM     25  C   UNK d   1      52.980  81.691  24.921  0.00  0.00     0.332 A 
ATOM     26  C   UNK d   1      52.791  79.693  23.523  0.00  0.00     0.163 C 
ATOM     27  O   UNK d   1      52.954  80.915  25.914  0.00  0.00    -0.246 OA
ATOM     28  N   UNK d   1      53.082  83.019  25.108  0.00  0.00    -0.269 N 
ATOM     29  C   UNK d   1      53.163  83.568  26.445  0.00  0.00     0.164 C 
ATOM     30  O   UNK d   1      53.204  85.095  24.168  0.00  0.00    -0.265 OA
ENDBRANCH  16  17
ENDBRANCH   1  16
TORSDOF 3
ENDMDL
