MODEL 1
REMARK VINA RESULT:    -7.873      0.000      0.000
REMARK INTER + INTRA:         -10.454
REMARK INTER:                  -9.714
REMARK INTRA:                  -0.739
REMARK UNBOUND:                -0.739
REMARK  4 active torsions:
REMARK  status: ('A' for Active; 'I' for Inactive)
REMARK    1  A    between atoms: N_3  and  C_14 
REMARK    2  A    between atoms: C_14  and  C_15 
REMARK    3  A    between atoms: C_15  and  C_16 
REMARK    4  A    between atoms: C_16  and  N_17 
ROOT
ATOM      1  C   UNK d   1      53.185  85.101  22.137  0.00  0.00     0.041 C 
ENDROOT
BRANCH   1   2
ATOM      2  C   UNK d   1      53.413  83.804  22.858  0.00  0.00     0.133 C 
BRANCH   2   3
ATOM      3  N   UNK d   1      52.770  83.733  24.153  0.00  0.00    -0.318 N 
ATOM      4  C   UNK d   1      51.500  83.273  24.371  0.00  0.00     0.180 A 
ATOM      5 Br   UNK d   1      50.381  82.629  22.971  0.00  0.00    -0.008 Br
ATOM      6  N   UNK d   1      51.194  83.351  25.674  0.00  0.00    -0.203 NA
ATOM      7  C   UNK d   1      52.252  83.861  26.341  0.00  0.00     0.169 A 
ATOM      8  C   UNK d   1      53.217  84.090  25.373  0.00  0.00     0.152 A 
ATOM      9  N   UNK d   1      52.414  84.128  27.648  0.00  0.00    -0.286 N 
ATOM     10  C   UNK d   1      54.402  84.623  25.780  0.00  0.00     0.280 A 
ATOM     11  N   UNK d   1      54.563  84.892  27.106  0.00  0.00    -0.273 N 
ATOM     12  O   UNK d   1      55.306  84.853  24.951  0.00  0.00    -0.265 OA
ATOM     13  C   UNK d   1      53.598  84.652  28.013  0.00  0.00     0.330 A 
ATOM     14  H   UNK d   1      55.486  85.297  27.372  0.00  0.00     0.173 HD
ATOM     15  O   UNK d   1      53.802  84.922  29.244  0.00  0.00    -0.246 OA
ATOM     16  C   UNK d   1      51.401  83.884  28.653  0.00  0.00     0.163 C 
ENDBRANCH   2   3
ENDBRANCH   1   2
BRANCH   1  17
ATOM     17  C   UNK d   1      54.132  85.361  21.001  0.00  0.00     0.133 C 
BRANCH  17  18
ATOM     18  N   UNK d   1      54.211  86.791  20.736  0.00  0.00    -0.318 N 
ATOM     19  C   UNK d   1      53.420  87.542  19.935  0.00  0.00     0.152 A 
ATOM     20  C   UNK d   1      53.828  88.855  19.959  0.00  0.00     0.169 A 
ATOM     21  C   UNK d   1      52.343  87.220  19.152  0.00  0.00     0.280 A 
ATOM     22  N   UNK d   1      54.886  88.891  20.790  0.00  0.00    -0.203 NA
ATOM     23  N   UNK d   1      53.228  89.835  19.257  0.00  0.00    -0.286 N 
ATOM     24  C   UNK d   1      55.111  87.643  21.254  0.00  0.00     0.180 A 
ATOM     25 Br   UNK d   1      56.483  87.104  22.468  0.00  0.00    -0.008 Br
ATOM     26  C   UNK d   1      52.167  89.472  18.496  0.00  0.00     0.330 A 
ATOM     27  C   UNK d   1      53.697  91.218  19.313  0.00  0.00     0.163 C 
ATOM     28  O   UNK d   1      51.598  90.393  17.835  0.00  0.00    -0.246 OA
ATOM     29  N   UNK d   1      51.734  88.194  18.445  0.00  0.00    -0.273 N 
ATOM     30  H   UNK d   1      50.915  87.975  17.845  0.00  0.00     0.173 HD
ATOM     31  O   UNK d   1      51.966  86.024  19.127  0.00  0.00    -0.265 OA
ENDBRANCH  17  18
ENDBRANCH   1  17
TORSDOF 4
ENDMDL
