MODEL 1
REMARK VINA RESULT:    -6.723      0.000      0.000
REMARK INTER + INTRA:          -9.209
REMARK INTER:                  -7.902
REMARK INTRA:                  -1.307
REMARK UNBOUND:                -1.307
REMARK  3 active torsions:
REMARK  status: ('A' for Active; 'I' for Inactive)
REMARK    1  A    between atoms: N_3  and  C_14 
REMARK    2  A    between atoms: C_14  and  C_15 
REMARK    3  A    between atoms: C_15  and  N_16 
ROOT
ATOM      1  C   UNK d   1      53.795  84.373  27.651  0.00  0.00     0.152 C 
ENDROOT
BRANCH   1   2
ATOM      2  N   UNK d   1      52.753  83.882  28.488  0.00  0.00    -0.316 N 
ATOM      3  C   UNK d   1      52.903  82.940  29.448  0.00  0.00     0.180 A 
ATOM      4 Br   UNK d   1      54.580  82.119  29.849  0.00  0.00    -0.008 Br
ATOM      5  N   UNK d   1      51.715  82.708  30.030  0.00  0.00    -0.203 NA
ATOM      6  C   UNK d   1      50.766  83.489  29.466  0.00  0.00     0.169 A 
ATOM      7  C   UNK d   1      51.443  84.222  28.496  0.00  0.00     0.152 A 
ATOM      8  N   UNK d   1      49.445  83.648  29.661  0.00  0.00    -0.286 N 
ATOM      9  C   UNK d   1      50.680  85.099  27.763  0.00  0.00     0.280 A 
ATOM     10  N   UNK d   1      49.346  85.255  27.963  0.00  0.00    -0.273 N 
ATOM     11  O   UNK d   1      51.282  85.769  26.873  0.00  0.00    -0.265 OA
ATOM     12  C   UNK d   1      48.744  84.522  28.917  0.00  0.00     0.330 A 
ATOM     13  H   UNK d   1      48.822  85.938  27.374  0.00  0.00     0.173 HD
ATOM     14  O   UNK d   1      47.494  84.678  29.094  0.00  0.00    -0.246 OA
ATOM     15  C   UNK d   1      48.735  82.891  30.667  0.00  0.00     0.163 C 
ENDBRANCH   1   2
BRANCH   1  16
ATOM     16  C   UNK d   1      54.171  83.540  26.479  0.00  0.00     0.152 C 
BRANCH  16  17
ATOM     17  N   UNK d   1      53.337  83.577  25.330  0.00  0.00    -0.316 N 
ATOM     18  C   UNK d   1      52.395  82.690  24.968  0.00  0.00     0.152 A 
ATOM     19  C   UNK d   1      51.826  83.098  23.780  0.00  0.00     0.169 A 
ATOM     20  C   UNK d   1      51.898  81.519  25.518  0.00  0.00     0.280 A 
ATOM     21  N   UNK d   1      52.464  84.244  23.467  0.00  0.00    -0.203 NA
ATOM     22  N   UNK d   1      50.854  82.379  23.219  0.00  0.00    -0.286 N 
ATOM     23  C   UNK d   1      53.377  84.558  24.380  0.00  0.00     0.180 A 
ATOM     24 Br   UNK d   1      54.547  86.089  24.393  0.00  0.00    -0.008 Br
ATOM     25  C   UNK d   1      50.420  81.257  23.798  0.00  0.00     0.330 A 
ATOM     26  C   UNK d   1      50.250  82.793  21.974  0.00  0.00     0.163 C 
ATOM     27  O   UNK d   1      49.493  80.546  23.284  0.00  0.00    -0.246 OA
ATOM     28  N   UNK d   1      50.923  80.793  24.956  0.00  0.00    -0.273 N 
ATOM     29  H   UNK d   1      50.557  79.905  25.386  0.00  0.00     0.173 HD
ATOM     30  O   UNK d   1      52.370  81.097  26.597  0.00  0.00    -0.265 OA
ENDBRANCH  16  17
ENDBRANCH   1  16
TORSDOF 3
ENDMDL
