MODEL 1
REMARK VINA RESULT:    -9.378      0.000      0.000
REMARK INTER + INTRA:         -12.475
REMARK INTER:                 -11.571
REMARK INTRA:                  -0.904
REMARK UNBOUND:                -0.904
REMARK  4 active torsions:
REMARK  status: ('A' for Active; 'I' for Inactive)
REMARK    1  A    between atoms: N_4  and  C_7 
REMARK    2  A    between atoms: C_9  and  C_17 
REMARK       I    between atoms: C_17  and  N_19 
REMARK    3  A    between atoms: N_19  and  C_20 
REMARK    4  A    between atoms: C_21  and  C_26 
REMARK       I    between atoms: C_26  and  N_28 
ROOT
ATOM      1  C   UNK d   1      53.963  91.139  19.546  0.00  0.00     0.059 C 
ATOM      2  C   UNK d   1      53.653  89.692  19.854  0.00  0.00     0.052 C 
ATOM      3  C   UNK d   1      52.903  89.086  18.704  0.00  0.00     0.044 C 
ATOM      4  C   UNK d   1      53.880  89.065  17.521  0.00  0.00     0.024 C 
ATOM      5  C   UNK d   1      54.318  90.479  17.231  0.00  0.00    -0.011 C 
ATOM      6  C   UNK d   1      54.968  91.147  18.414  0.00  0.00     0.038 C 
ATOM      7  C   UNK d   1      53.126  91.265  16.784  0.00  0.00     0.009 C 
ATOM      8  C   UNK d   1      52.114  91.284  17.907  0.00  0.00    -0.011 C 
ATOM      9  C   UNK d   1      52.756  91.906  19.101  0.00  0.00     0.038 C 
ATOM     10  C   UNK d   1      51.712  89.870  18.264  0.00  0.00     0.024 C 
ENDROOT
BRANCH   3  11
ATOM     11  C   UNK d   1      52.485  87.699  18.999  0.00  0.00     0.231 C 
ATOM     12  O   UNK d   1      51.271  87.488  19.248  0.00  0.00    -0.272 OA
ATOM     13  N   UNK d   1      53.431  86.633  19.000  0.00  0.00    -0.323 N 
ATOM     14  H   UNK d   1      54.413  86.889  18.786  0.00  0.00     0.169 HD
BRANCH  13  15
ATOM     15  C   UNK d   1      53.124  85.274  19.272  0.00  0.00     0.088 A 
ATOM     16  C   UNK d   1      53.396  84.640  20.451  0.00  0.00     0.148 A 
ATOM     17  N   UNK d   1      52.959  83.364  20.329  0.00  0.00    -0.267 N 
ATOM     18  N   UNK d   1      52.441  83.207  19.130  0.00  0.00    -0.182 NA
ATOM     19  C   UNK d   1      53.026  82.304  21.319  0.00  0.00     0.180 C 
ATOM     20  C   UNK d   1      52.520  84.351  18.443  0.00  0.00     0.171 A 
BRANCH  16  21
ATOM     21  C   UNK d   1      54.019  85.119  21.669  0.00  0.00     0.270 C 
ATOM     22  O   UNK d   1      55.219  85.491  21.684  0.00  0.00    -0.266 OA
ATOM     23  N   UNK d   1      53.340  85.203  22.915  0.00  0.00    -0.365 N 
ATOM     24  H   UNK d   1      52.986  86.155  23.221  0.00  0.00     0.159 HD
ATOM     25  H   UNK d   1      53.162  84.403  23.552  0.00  0.00     0.159 HD
ENDBRANCH  16  21
ENDBRANCH  13  15
ENDBRANCH   3  11
BRANCH   1  26
ATOM     26  N   UNK d   1      54.502  91.783  20.743  0.00  0.00    -0.251 N 
ATOM     27  N   UNK d   1      53.891  92.655  21.535  0.00  0.00    -0.142 NA
ATOM     28  C   UNK d   1      54.700  93.030  22.543  0.00  0.00     0.217 A 
ATOM     29 Br   UNK d   1      54.313  94.264  23.959  0.00  0.00    -0.005 Br
ATOM     30  N   UNK d   1      55.866  92.366  22.375  0.00  0.00    -0.215 NA
ATOM     31  C   UNK d   1      55.726  91.611  21.275  0.00  0.00     0.232 A 
ENDBRANCH   1  26
TORSDOF 4
ENDMDL
