/Users/jonathanwahrer/Desktop/Msc/3_Semester/Drug_Design_Praktikum/waehrer_HTS_screening/HTS_experiment/out/docking_results/vina_output/3npc/0716_docked.pdbqt
 OpenBabel03192219493D

 31 35  0  0  1  0  0  0  0  0999 V2000
   53.9630   91.1390   19.5460 C   0  0  1  0  0  0  0  0  0  0  0  0
   53.6530   89.6920   19.8540 C   0  0  0  0  0  2  0  0  0  0  0  0
   52.9030   89.0860   18.7040 C   0  0  2  0  0  0  0  0  0  0  0  0
   53.8800   89.0650   17.5210 C   0  0  0  0  0  2  0  0  0  0  0  0
   54.3180   90.4790   17.2310 C   0  0  2  0  0  3  0  0  0  0  0  0
   54.9680   91.1470   18.4140 C   0  0  0  0  0  2  0  0  0  0  0  0
   53.1260   91.2650   16.7840 C   0  0  0  0  0  2  0  0  0  0  0  0
   52.1140   91.2840   17.9070 C   0  0  2  0  0  3  0  0  0  0  0  0
   52.7560   91.9060   19.1010 C   0  0  0  0  0  2  0  0  0  0  0  0
   51.7120   89.8700   18.2640 C   0  0  0  0  0  2  0  0  0  0  0  0
   52.4850   87.6990   18.9990 C   0  0  0  0  0  0  0  0  0  0  0  0
   51.2710   87.4880   19.2480 O   0  0  0  0  0  0  0  0  0  0  0  0
   53.4310   86.6330   19.0000 N   0  0  0  0  0  0  0  0  0  0  0  0
   54.4130   86.8890   18.7860 H   0  0  0  0  0  0  0  0  0  0  0  0
   53.1240   85.2740   19.2720 C   0  0  0  0  0  0  0  0  0  0  0  0
   53.3960   84.6400   20.4510 C   0  0  0  0  0  0  0  0  0  0  0  0
   52.9590   83.3640   20.3290 N   0  0  0  0  0  0  0  0  0  0  0  0
   52.4410   83.2070   19.1300 N   0  0  0  0  0  0  0  0  0  0  0  0
   53.0260   82.3040   21.3190 C   0  0  0  0  0  1  0  0  0  0  0  0
   52.5200   84.3510   18.4430 C   0  0  0  0  0  3  0  0  0  0  0  0
   54.0190   85.1190   21.6690 C   0  0  0  0  0  0  0  0  0  0  0  0
   55.2190   85.4910   21.6840 O   0  0  0  0  0  0  0  0  0  0  0  0
   53.3400   85.2030   22.9150 N   0  0  0  0  0  0  0  0  0  0  0  0
   52.9860   86.1550   23.2210 H   0  0  0  0  0  0  0  0  0  0  0  0
   53.1620   84.4030   23.5520 H   0  0  0  0  0  0  0  0  0  0  0  0
   54.5020   91.7830   20.7430 N   0  0  0  0  0  0  0  0  0  0  0  0
   53.8910   92.6550   21.5350 N   0  0  0  0  0  0  0  0  0  0  0  0
   54.7000   93.0300   22.5430 C   0  0  0  0  0  0  0  0  0  0  0  0
   54.3130   94.2640   23.9590 Br  0  0  0  0  0  0  0  0  0  0  0  0
   55.8660   92.3660   22.3750 N   0  0  0  0  0  0  0  0  0  0  0  0
   55.7260   91.6110   21.2750 C   0  0  0  0  0  3  0  0  0  0  0  0
  1  6  1  6  0  0  0
  1  2  1  0  0  0  0
  1 26  1  0  0  0  0
  3 11  1  1  0  0  0
  3  2  1  0  0  0  0
  4  3  1  0  0  0  0
  5  7  1  1  0  0  0
  5  4  1  0  0  0  0
  5  6  1  0  0  0  0
  8  7  1  6  0  0  0
  8 10  1  0  0  0  0
  8  9  1  0  0  0  0
  9  1  1  0  0  0  0
 10  3  1  0  0  0  0
 11 13  1  0  0  0  0
 11 12  2  0  0  0  0
 13 15  1  0  0  0  0
 14 13  1  0  0  0  0
 15 16  2  0  0  0  0
 16 21  1  0  0  0  0
 17 16  1  0  0  0  0
 17 19  1  0  0  0  0
 18 17  1  0  0  0  0
 20 18  2  0  0  0  0
 20 15  1  0  0  0  0
 21 22  2  0  0  0  0
 21 23  1  0  0  0  0
 23 24  1  0  0  0  0
 23 25  1  0  0  0  0
 26 31  1  0  0  0  0
 26 27  1  0  0  0  0
 27 28  2  0  0  0  0
 28 29  1  0  0  0  0
 30 28  1  0  0  0  0
 31 30  2  0  0  0  0
M  END
>  <Pose>
1

>  <Score>
-9.378

$$$$
