MODEL 1
REMARK VINA RESULT:    -6.552      0.000      0.000
REMARK INTER + INTRA:          -7.551
REMARK INTER:                  -7.318
REMARK INTRA:                  -0.234
REMARK UNBOUND:                -0.234
REMARK  2 active torsions:
REMARK  status: ('A' for Active; 'I' for Inactive)
REMARK    1  A    between atoms: C_9  and  N_11 
REMARK    2  A    between atoms: C_12  and  C_17 
ROOT
ATOM      1  N   UNK d   1      53.062  85.721  20.315  0.00  0.00    -0.348 N 
ATOM      2  C   UNK d   1      54.073  86.725  20.202  0.00  0.00     0.189 C 
ATOM      3  C   UNK d   1      53.532  88.076  19.931  0.00  0.00     0.201 C 
ATOM      4  O   UNK d   1      52.202  88.171  19.625  0.00  0.00    -0.387 OA
ATOM      5  C   UNK d   1      51.744  87.107  18.855  0.00  0.00     0.187 C 
ATOM      6  C   UNK d   1      51.841  85.801  19.575  0.00  0.00     0.151 C 
ENDROOT
BRANCH   1   7
ATOM      7  C   UNK d   1      53.224  84.571  21.159  0.00  0.00     0.145 A 
ATOM      8  N   UNK d   1      52.898  84.676  22.484  0.00  0.00    -0.223 NA
ATOM      9  C   UNK d   1      52.978  83.617  23.308  0.00  0.00     0.237 A 
ATOM     10  N   UNK d   1      53.383  82.419  22.848  0.00  0.00    -0.222 NA
ATOM     11  C   UNK d   1      53.719  82.240  21.566  0.00  0.00     0.164 A 
ATOM     12  N   UNK d   1      54.159  81.158  20.899  0.00  0.00    -0.255 N 
ATOM     13  C   UNK d   1      53.635  83.346  20.711  0.00  0.00     0.095 A 
ATOM     14  N   UNK d   1      54.354  81.546  19.660  0.00  0.00    -0.163 NA
ATOM     15  C   UNK d   1      54.380  79.823  21.423  0.00  0.00     0.182 C 
ATOM     16  C   UNK d   1      54.053  82.854  19.498  0.00  0.00     0.141 A 
ATOM     17 Br   UNK d   1      54.207  83.884  17.905  0.00  0.00    -0.026 Br
ENDBRANCH   1   7
BRANCH   2  18
ATOM     18  C   UNK d   1      55.018  86.682  21.340  0.00  0.00     0.198 A 
ATOM     19  N   UNK d   1      54.941  87.414  22.452  0.00  0.00    -0.207 NA
ATOM     20  C   UNK d   1      56.007  87.056  23.223  0.00  0.00     0.152 A 
ATOM     21  N   UNK d   1      56.679  86.118  22.533  0.00  0.00    -0.112 NA
ATOM     22  C   UNK d   1      56.366  87.585  24.559  0.00  0.00     0.096 C 
ATOM     23  O   UNK d   1      56.065  85.911  21.405  0.00  0.00    -0.194 OA
ENDBRANCH   2  18
TORSDOF 2
ENDMDL
