/Users/jonathanwahrer/Desktop/Msc/3_Semester/Drug_Design_Praktikum/waehrer_HTS_screening/HTS_experiment/out/docking_results/vina_output/3npc/0723_docked.pdbqt
 OpenBabel03192219493D

 23 26  0  0  1  0  0  0  0  0999 V2000
   53.0620   85.7210   20.3150 N   0  0  0  0  0  0  0  0  0  0  0  0
   54.0730   86.7250   20.2020 C   0  0  1  0  0  3  0  0  0  0  0  0
   53.5320   88.0760   19.9310 C   0  0  0  0  0  2  0  0  0  0  0  0
   52.2020   88.1710   19.6250 O   0  0  0  0  0  0  0  0  0  0  0  0
   51.7440   87.1070   18.8550 C   0  0  0  0  0  2  0  0  0  0  0  0
   51.8410   85.8010   19.5750 C   0  0  0  0  0  2  0  0  0  0  0  0
   53.2240   84.5710   21.1590 C   0  0  0  0  0  0  0  0  0  0  0  0
   52.8980   84.6760   22.4840 N   0  0  0  0  0  0  0  0  0  0  0  0
   52.9780   83.6170   23.3080 C   0  0  0  0  0  3  0  0  0  0  0  0
   53.3830   82.4190   22.8480 N   0  0  0  0  0  0  0  0  0  0  0  0
   53.7190   82.2400   21.5660 C   0  0  0  0  0  0  0  0  0  0  0  0
   54.1590   81.1580   20.8990 N   0  0  0  0  0  0  0  0  0  0  0  0
   53.6350   83.3460   20.7110 C   0  0  0  0  0  0  0  0  0  0  0  0
   54.3540   81.5460   19.6600 N   0  0  0  0  0  0  0  0  0  0  0  0
   54.3800   79.8230   21.4230 C   0  0  0  0  0  1  0  0  0  0  0  0
   54.0530   82.8540   19.4980 C   0  0  0  0  0  0  0  0  0  0  0  0
   54.2070   83.8840   17.9050 Br  0  0  0  0  0  0  0  0  0  0  0  0
   55.0180   86.6820   21.3400 C   0  0  0  0  0  0  0  0  0  0  0  0
   54.9410   87.4140   22.4520 N   0  0  0  0  0  0  0  0  0  0  0  0
   56.0070   87.0560   23.2230 C   0  0  0  0  0  0  0  0  0  0  0  0
   56.6790   86.1180   22.5330 N   0  0  0  0  0  0  0  0  0  0  0  0
   56.3660   87.5850   24.5590 C   0  0  0  0  0  1  0  0  0  0  0  0
   56.0650   85.9110   21.4050 O   0  0  0  0  0  0  0  0  0  0  0  0
  1  7  1  0  0  0  0
  2  1  1  0  0  0  0
  2 18  1  1  0  0  0
  3  2  1  0  0  0  0
  4  3  1  0  0  0  0
  5  6  1  0  0  0  0
  5  4  1  0  0  0  0
  6  1  1  0  0  0  0
  7  8  1  0  0  0  0
  8  9  2  0  0  0  0
 10  9  1  0  0  0  0
 11 10  2  0  0  0  0
 12 15  1  0  0  0  0
 12 11  1  0  0  0  0
 13  7  2  0  0  0  0
 13 11  1  0  0  0  0
 14 12  1  0  0  0  0
 16 14  2  0  0  0  0
 16 13  1  0  0  0  0
 17 16  1  0  0  0  0
 18 23  1  0  0  0  0
 18 19  2  0  0  0  0
 19 20  1  0  0  0  0
 20 22  1  0  0  0  0
 21 20  2  0  0  0  0
 23 21  1  0  0  0  0
M  END
>  <Pose>
1

>  <Score>
-6.552

$$$$
