MODEL 1
REMARK VINA RESULT:    -6.827      0.000      0.000
REMARK INTER + INTRA:          -7.499
REMARK INTER:                  -7.226
REMARK INTRA:                  -0.273
REMARK UNBOUND:                -0.273
REMARK  1 active torsions:
REMARK  status: ('A' for Active; 'I' for Inactive)
REMARK    1  A    between atoms: C_9  and  N_11 
ROOT
ATOM      1 Br   UNK d   1      51.228  98.565  30.781  0.00  0.00    -0.026 Br
ATOM      2  C   UNK d   1      50.308  99.702  29.562  0.00  0.00     0.141 A 
ATOM      3  N   UNK d   1      49.261 100.523  29.866  0.00  0.00    -0.163 NA
ATOM      4  N   UNK d   1      48.903 101.167  28.781  0.00  0.00    -0.255 N 
ATOM      5  C   UNK d   1      49.683 100.800  27.752  0.00  0.00     0.164 A 
ATOM      6  N   UNK d   1      49.745 101.156  26.459  0.00  0.00    -0.222 NA
ATOM      7  C   UNK d   1      50.646 100.636  25.629  0.00  0.00     0.237 A 
ATOM      8  N   UNK d   1      51.516  99.737  26.079  0.00  0.00    -0.223 NA
ATOM      9  C   UNK d   1      51.540  99.302  27.382  0.00  0.00     0.144 A 
ATOM     10  C   UNK d   1      50.605  99.851  28.224  0.00  0.00     0.095 A 
ATOM     11  C   UNK d   1      47.824 102.155  28.628  0.00  0.00     0.182 C 
ENDROOT
BRANCH   9  12
ATOM     12  N   UNK d   1      52.447  98.327  27.797  0.00  0.00    -0.359 N 
ATOM     13  C   UNK d   1      52.057  96.938  27.907  0.00  0.00     0.131 C 
ATOM     14  C   UNK d   1      52.735  96.181  26.746  0.00  0.00     0.079 C 
ATOM     15  C   UNK d   1      54.088  96.736  26.526  0.00  0.00     0.040 A 
ATOM     16  N   UNK d   1      55.038  96.255  25.691  0.00  0.00    -0.347 N 
ATOM     17  C   UNK d   1      54.628  97.834  27.125  0.00  0.00     0.076 A 
ATOM     18  C   UNK d   1      56.115  97.051  25.793  0.00  0.00     0.209 A 
ATOM     19  C   UNK d   1      54.965  95.105  24.826  0.00  0.00     0.157 C 
ATOM     20  N   UNK d   1      55.885  98.027  26.669  0.00  0.00    -0.245 NA
ATOM     21  C   UNK d   1      53.826  98.600  28.110  0.00  0.00     0.185 C 
ENDBRANCH   9  12
TORSDOF 1
ENDMDL
