/Users/jonathanwahrer/Desktop/Msc/3_Semester/Drug_Design_Praktikum/waehrer_HTS_screening/HTS_experiment/out/docking_results/vina_output/3npc/0727_docked.pdbqt
 OpenBabel03192219493D

 21 24  0  0  0  0  0  0  0  0999 V2000
   51.2280   98.5650   30.7810 Br  0  0  0  0  0  0  0  0  0  0  0  0
   50.3080   99.7020   29.5620 C   0  0  0  0  0  0  0  0  0  0  0  0
   49.2610  100.5230   29.8660 N   0  0  0  0  0  0  0  0  0  0  0  0
   48.9030  101.1670   28.7810 N   0  0  0  0  0  0  0  0  0  0  0  0
   49.6830  100.8000   27.7520 C   0  0  0  0  0  0  0  0  0  0  0  0
   49.7450  101.1560   26.4590 N   0  0  0  0  0  0  0  0  0  0  0  0
   50.6460  100.6360   25.6290 C   0  0  0  0  0  3  0  0  0  0  0  0
   51.5160   99.7370   26.0790 N   0  0  0  0  0  0  0  0  0  0  0  0
   51.5400   99.3020   27.3820 C   0  0  0  0  0  0  0  0  0  0  0  0
   50.6050   99.8510   28.2240 C   0  0  0  0  0  0  0  0  0  0  0  0
   47.8240  102.1550   28.6280 C   0  0  0  0  0  1  0  0  0  0  0  0
   52.4470   98.3270   27.7970 N   0  0  0  0  0  0  0  0  0  0  0  0
   52.0570   96.9380   27.9070 C   0  0  0  0  0  2  0  0  0  0  0  0
   52.7350   96.1810   26.7460 C   0  0  0  0  0  2  0  0  0  0  0  0
   54.0880   96.7360   26.5260 C   0  0  0  0  0  0  0  0  0  0  0  0
   55.0380   96.2550   25.6910 N   0  0  0  0  0  0  0  0  0  0  0  0
   54.6280   97.8340   27.1250 C   0  0  0  0  0  0  0  0  0  0  0  0
   56.1150   97.0510   25.7930 C   0  0  0  0  0  3  0  0  0  0  0  0
   54.9650   95.1050   24.8260 C   0  0  0  0  0  1  0  0  0  0  0  0
   55.8850   98.0270   26.6690 N   0  0  0  0  0  0  0  0  0  0  0  0
   53.8260   98.6000   28.1100 C   0  0  0  0  0  2  0  0  0  0  0  0
  2  3  2  0  0  0  0
  2  1  1  0  0  0  0
  4  3  1  0  0  0  0
  5 10  1  0  0  0  0
  5  4  1  0  0  0  0
  6  5  2  0  0  0  0
  7  8  2  0  0  0  0
  7  6  1  0  0  0  0
  8  9  1  0  0  0  0
  9 12  1  0  0  0  0
  9 10  2  0  0  0  0
 10  2  1  0  0  0  0
 11  4  1  0  0  0  0
 12 13  1  0  0  0  0
 12 21  1  0  0  0  0
 14 13  1  0  0  0  0
 15 14  1  0  0  0  0
 15 17  2  0  0  0  0
 16 18  1  0  0  0  0
 16 15  1  0  0  0  0
 17 21  1  0  0  0  0
 18 20  2  0  0  0  0
 19 16  1  0  0  0  0
 20 17  1  0  0  0  0
M  END
>  <Pose>
1

>  <Score>
-6.827

$$$$
