MODEL 1
REMARK VINA RESULT:    -7.288      0.000      0.000
REMARK INTER + INTRA:          -9.152
REMARK INTER:                  -8.566
REMARK INTRA:                  -0.586
REMARK UNBOUND:                -0.586
REMARK  3 active torsions:
REMARK  status: ('A' for Active; 'I' for Inactive)
REMARK    1  A    between atoms: C_9  and  N_11 
REMARK    2  A    between atoms: N_14  and  C_17 
REMARK    3  A    between atoms: C_17  and  C_19 
REMARK       I    between atoms: C_19  and  N_21 
ROOT
ATOM      1  N   UNK d   1      53.069  88.140  19.272  0.00  0.00    -0.362 N 
ATOM      2  C   UNK d   1      51.774  87.684  19.694  0.00  0.00     0.154 C 
ATOM      3  C   UNK d   1      51.883  86.157  19.728  0.00  0.00     0.293 C 
ATOM      4  N   UNK d   1      53.007  85.695  18.906  0.00  0.00     0.103 N 
ATOM      5  C   UNK d   1      53.027  86.438  17.643  0.00  0.00     0.293 C 
ATOM      6  C   UNK d   1      53.416  87.883  17.896  0.00  0.00     0.154 C 
ENDROOT
BRANCH   1   7
ATOM      7  C   UNK d   1      53.951  88.770  20.157  0.00  0.00     0.144 A 
ATOM      8  N   UNK d   1      54.838  88.058  20.892  0.00  0.00    -0.223 NA
ATOM      9  C   UNK d   1      55.665  88.622  21.763  0.00  0.00     0.237 A 
ATOM     10  N   UNK d   1      55.630  89.947  21.931  0.00  0.00    -0.222 NA
ATOM     11  C   UNK d   1      54.785  90.738  21.248  0.00  0.00     0.164 A 
ATOM     12  N   UNK d   1      54.575  92.069  21.237  0.00  0.00    -0.255 N 
ATOM     13  C   UNK d   1      53.918  90.148  20.333  0.00  0.00     0.095 A 
ATOM     14  N   UNK d   1      53.631  92.308  20.366  0.00  0.00    -0.163 NA
ATOM     15  C   UNK d   1      55.318  92.993  22.081  0.00  0.00     0.182 C 
ATOM     16  C   UNK d   1      53.192  91.179  19.783  0.00  0.00     0.141 A 
ATOM     17 Br   UNK d   1      51.861  90.983  18.446  0.00  0.00    -0.026 Br
ENDBRANCH   1   7
BRANCH   4  18
ATOM     18  C   UNK d   1      52.748  84.295  18.607  0.00  0.00     0.296 C 
ATOM     19  C   UNK d   1      52.293  83.631  19.935  0.00  0.00     0.052 C 
BRANCH  18  20
ATOM     20  C   UNK d   1      53.968  83.615  18.139  0.00  0.00     0.186 C 
ATOM     21  O   UNK d   1      54.830  83.389  19.088  0.00  0.00    -0.175 OA
ATOM     22  N   UNK d   1      54.302  83.201  16.840  0.00  0.00    -0.361 N 
ATOM     23  C   UNK d   1      53.552  83.363  15.631  0.00  0.00     0.124 C 
ATOM     24  C   UNK d   1      55.603  82.515  16.670  0.00  0.00     0.124 C 
ATOM     25  C   UNK d   1      53.486  82.121  14.766  0.00  0.00     0.020 C 
ATOM     26  C   UNK d   1      54.722  81.289  14.785  0.00  0.00     0.003 C 
ATOM     27  C   UNK d   1      55.286  81.126  16.180  0.00  0.00     0.020 C 
ENDBRANCH  18  20
ENDBRANCH   4  18
TORSDOF 3
ENDMDL
