MODEL 1
REMARK VINA RESULT:    -8.192      0.000      0.000
REMARK INTER + INTRA:          -8.314
REMARK INTER:                  -8.671
REMARK INTRA:                   0.357
REMARK UNBOUND:                 0.357
REMARK  1 active torsions:
REMARK  status: ('A' for Active; 'I' for Inactive)
REMARK    1  A    between atoms: N_8  and  C_11 
ROOT
ATOM      1  C   UNK d   1      51.593  98.131  27.576  0.00  0.00     0.148 A 
ATOM      2  C   UNK d   1      50.614  97.486  28.169  0.00  0.00     0.080 A 
ATOM      3  C   UNK d   1      49.358  98.155  28.539  0.00  0.00     0.043 A 
ATOM      4  C   UNK d   1      48.366  97.519  29.136  0.00  0.00     0.043 C 
ATOM      5  N   UNK d   1      49.285  99.534  28.210  0.00  0.00    -0.189 N 
ATOM      6  C   UNK d   1      50.364 100.222  27.562  0.00  0.00     0.730 A 
ATOM      7  N   UNK d   1      51.481  99.506  27.265  0.00  0.00    -0.044 N 
ATOM      8  N   UNK d   1      52.317 100.369  26.677  0.00  0.00    -0.143 NA
ATOM      9  C   UNK d   1      51.770 101.591  26.595  0.00  0.00     0.275 A 
ATOM     10  N   UNK d   1      50.551 101.488  27.150  0.00  0.00    -0.054 NA
ATOM     11  H   UNK d   1      48.420 100.066  28.446  0.00  0.00     0.184 HD
ENDROOT
BRANCH   1  12
ATOM     12  N   UNK d   1      52.774  97.440  27.244  0.00  0.00    -0.357 N 
ATOM     13  C   UNK d   1      52.685  96.018  27.023  0.00  0.00     0.203 C 
ATOM     14  C   UNK d   1      53.794  95.561  26.133  0.00  0.00     0.124 A 
ATOM     15  N   UNK d   1      54.968  96.190  26.133  0.00  0.00    -0.325 N 
ATOM     16  N   UNK d   1      53.885  94.546  25.235  0.00  0.00    -0.243 NA
ATOM     17  C   UNK d   1      55.793  95.598  25.261  0.00  0.00     0.101 A 
ATOM     18  C   UNK d   1      55.218  97.333  26.988  0.00  0.00     0.151 C 
ATOM     19 Br   UNK d   1      57.603  96.064  24.835  0.00  0.00    -0.029 Br
ATOM     20  C   UNK d   1      55.111  94.548  24.681  0.00  0.00     0.156 A 
ATOM     21  C   UNK d   1      54.001  98.196  27.149  0.00  0.00     0.145 C 
ENDBRANCH   1  12
TORSDOF 1
ENDMDL
