/Users/jonathanwahrer/Desktop/Msc/3_Semester/Drug_Design_Praktikum/waehrer_HTS_screening/HTS_experiment/out/docking_results/vina_output/3npc/0737_docked.pdbqt
 OpenBabel03192219493D

 21 24  0  0  1  0  0  0  0  0999 V2000
   51.5930   98.1310   27.5760 C   0  0  2  0  0  3  0  0  0  0  0  0
   50.6140   97.4860   28.1690 C   0  0  0  0  0  3  0  0  0  0  0  0
   49.3580   98.1550   28.5390 C   0  0  0  0  0  0  0  0  0  0  0  0
   48.3660   97.5190   29.1360 C   0  0  0  0  0  1  0  0  0  0  0  0
   49.2850   99.5340   28.2100 N   0  0  0  0  0  0  0  0  0  0  0  0
   50.3640  100.2220   27.5620 C   0  0  0  0  0  0  0  0  0  0  0  0
   51.4810   99.5060   27.2650 N   0  0  0  0  0  0  0  0  0  0  0  0
   52.3170  100.3690   26.6770 N   0  0  0  0  0  0  0  0  0  0  0  0
   51.7700  101.5910   26.5950 C   0  0  0  0  0  3  0  0  0  0  0  0
   50.5510  101.4880   27.1500 N   0  0  0  0  0  0  0  0  0  0  0  0
   48.4200  100.0660   28.4460 H   0  0  0  0  0  0  0  0  0  0  0  0
   52.7740   97.4400   27.2440 N   0  0  2  0  0  0  0  0  0  0  0  0
   52.6850   96.0180   27.0230 C   0  0  0  0  0  2  0  0  0  0  0  0
   53.7940   95.5610   26.1330 C   0  0  0  0  0  0  0  0  0  0  0  0
   54.9680   96.1900   26.1330 N   0  0  0  0  0  0  0  0  0  0  0  0
   53.8850   94.5460   25.2350 N   0  0  0  0  0  0  0  0  0  0  0  0
   55.7930   95.5980   25.2610 C   0  0  0  0  0  0  0  0  0  0  0  0
   55.2180   97.3330   26.9880 C   0  0  0  0  0  2  0  0  0  0  0  0
   57.6030   96.0640   24.8350 Br  0  0  0  0  0  0  0  0  0  0  0  0
   55.1110   94.5480   24.6810 C   0  0  0  0  0  3  0  0  0  0  0  0
   54.0010   98.1960   27.1490 C   0  0  0  0  0  2  0  0  0  0  0  0
  1  2  1  6  0  0  0
  2  3  2  0  0  0  0
  3  4  1  0  0  0  0
  5 11  1  0  0  0  0
  5  3  1  0  0  0  0
  6  5  1  0  0  0  0
  7  6  1  0  0  0  0
  7  1  1  0  0  0  0
  8  7  1  0  0  0  0
  9  8  2  0  0  0  0
  9 10  1  0  0  0  0
 10  6  2  0  0  0  0
 12 13  1  1  0  0  0
 12  1  1  0  0  0  0
 14 15  1  0  0  0  0
 14 13  1  0  0  0  0
 15 18  1  0  0  0  0
 16 14  2  0  0  0  0
 17 15  1  0  0  0  0
 18 21  1  0  0  0  0
 19 17  1  0  0  0  0
 20 16  1  0  0  0  0
 20 17  2  0  0  0  0
 21 12  1  0  0  0  0
M  END
>  <Pose>
1

>  <Score>
-8.192

$$$$
