/Users/jonathanwahrer/Desktop/Msc/3_Semester/Drug_Design_Praktikum/waehrer_HTS_screening/HTS_experiment/out/docking_results/vina_output/3npc/0743_docked.pdbqt
 OpenBabel03192219503D

 30 33  0  0  1  0  0  0  0  0999 V2000
   56.1290   88.7800   22.2880 C   0  0  0  0  0  0  0  0  0  0  0  0
   57.2220   88.1390   22.1390 O   0  0  0  0  0  0  0  0  0  0  0  0
   55.7140   89.7280   21.3140 N   0  0  0  0  0  0  0  0  0  0  0  0
   56.5340   89.9620   20.1570 C   0  0  0  0  0  2  0  0  0  0  0  0
   55.7610   90.3000   18.9190 C   0  0  0  0  0  2  0  0  0  0  0  0
   54.4090   90.8890   19.1970 C   0  0  1  0  0  0  0  0  0  0  0  0
   54.0120   91.7720   18.1440 N   0  0  0  0  0  0  0  0  0  0  0  0
   52.7560   92.4090   18.3490 C   0  0  0  0  0  2  0  0  0  0  0  0
   51.6660   91.5270   18.8610 C   0  0  0  0  0  2  0  0  0  0  0  0
   52.1020   90.1220   19.0690 C   0  0  0  0  0  0  0  0  0  0  0  0
   51.4130   88.9820   19.1390 N   0  0  0  0  0  0  0  0  0  0  0  0
   52.2610   87.9640   19.3410 C   0  0  0  0  0  3  0  0  0  0  0  0
   53.5100   88.4460   19.4020 N   0  0  0  0  0  0  0  0  0  0  0  0
   53.4190   89.7720   19.2360 C   0  0  0  0  0  0  0  0  0  0  0  0
   54.3980   91.5520   20.5650 C   0  0  0  0  0  2  0  0  0  0  0  0
   54.4510   90.4150   21.5650 C   0  0  0  0  0  2  0  0  0  0  0  0
   54.7480   92.5060   18.0420 H   0  0  0  0  0  0  0  0  0  0  0  0
   54.4080   87.8840   19.5550 H   0  0  0  0  0  0  0  0  0  0  0  0
   55.3510   88.4810   23.5010 C   0  0  0  0  0  2  0  0  0  0  0  0
   54.8290   87.0780   23.5350 C   0  0  0  0  0  2  0  0  0  0  0  0
   54.5570   86.5390   22.2390 N   0  0  0  0  0  0  0  0  0  0  0  0
   54.0510   85.2240   22.0490 C   0  0  0  0  0  0  0  0  0  0  0  0
   53.8400   84.5200   23.0810 O   0  0  0  0  0  0  0  0  0  0  0  0
   54.7310   87.1180   21.3960 H   0  0  0  0  0  0  0  0  0  0  0  0
   53.7680   84.6600   20.7540 C   0  0  0  0  0  0  0  0  0  0  0  0
   54.6280   84.3200   19.8520 O   0  0  0  0  0  0  0  0  0  0  0  0
   54.0660   83.8380   18.7850 C   0  0  0  0  0  0  0  0  0  0  0  0
   54.8920   83.1950   17.1700 Br  0  0  0  0  0  0  0  0  0  0  0  0
   52.7060   83.8600   18.9980 C   0  0  0  0  0  3  0  0  0  0  0  0
   52.4890   84.3840   20.2550 C   0  0  0  0  0  3  0  0  0  0  0  0
  1 19  1  0  0  0  0
  2  1  2  0  0  0  0
  3 16  1  0  0  0  0
  3  1  1  0  0  0  0
  4  3  1  0  0  0  0
  5  4  1  0  0  0  0
  6  5  1  6  0  0  0
  6 14  1  0  0  0  0
  6 15  1  0  0  0  0
  7  8  1  0  0  0  0
  7  6  1  0  0  0  0
  8  9  1  0  0  0  0
  9 10  1  0  0  0  0
 10 11  1  0  0  0  0
 10 14  2  0  0  0  0
 11 12  2  0  0  0  0
 12 13  1  0  0  0  0
 13 18  1  0  0  0  0
 14 13  1  0  0  0  0
 15 16  1  0  0  0  0
 17  7  1  0  0  0  0
 19 20  1  0  0  0  0
 21 20  1  0  0  0  0
 22 21  1  0  0  0  0
 22 23  2  0  0  0  0
 24 21  1  0  0  0  0
 25 22  1  0  0  0  0
 26 25  1  0  0  0  0
 27 29  2  0  0  0  0
 27 26  1  0  0  0  0
 28 27  1  0  0  0  0
 29 30  1  0  0  0  0
 30 25  2  0  0  0  0
M  END
>  <Pose>
1

>  <Score>
-8.494

$$$$
