MODEL 1
REMARK VINA RESULT:    -8.494      0.000      0.000
REMARK INTER + INTRA:         -11.640
REMARK INTER:                 -10.481
REMARK INTRA:                  -1.159
REMARK UNBOUND:                -1.159
REMARK  4 active torsions:
REMARK  status: ('A' for Active; 'I' for Inactive)
REMARK    1  A    between atoms: C_4  and  C_7 
REMARK       I    between atoms: C_7  and  N_9 
REMARK    2  A    between atoms: N_9  and  C_10 
REMARK    3  A    between atoms: C_10  and  C_11 
REMARK    4  A    between atoms: C_11  and  C_12 
REMARK       I    between atoms: C_12  and  N_14 
ROOT
ATOM      1  C   UNK d   1      56.129  88.780  22.288  0.00  0.00     0.221 C 
ATOM      2  O   UNK d   1      57.222  88.139  22.139  0.00  0.00    -0.273 OA
ATOM      3  N   UNK d   1      55.714  89.728  21.314  0.00  0.00    -0.352 N 
ATOM      4  C   UNK d   1      56.534  89.962  20.157  0.00  0.00     0.129 C 
ATOM      5  C   UNK d   1      55.761  90.300  18.919  0.00  0.00     0.068 C 
ATOM      6  C   UNK d   1      54.409  90.889  19.197  0.00  0.00     0.204 C 
ATOM      7  N   UNK d   1      54.012  91.772  18.144  0.00  0.00     0.099 N 
ATOM      8  C   UNK d   1      52.756  92.409  18.349  0.00  0.00     0.277 C 
ATOM      9  C   UNK d   1      51.666  91.527  18.861  0.00  0.00     0.091 C 
ATOM     10  C   UNK d   1      52.102  90.122  19.069  0.00  0.00     0.062 A 
ATOM     11  N   UNK d   1      51.413  88.982  19.139  0.00  0.00    -0.246 NA
ATOM     12  C   UNK d   1      52.261  87.964  19.341  0.00  0.00     0.207 A 
ATOM     13  N   UNK d   1      53.510  88.446  19.402  0.00  0.00    -0.350 N 
ATOM     14  C   UNK d   1      53.419  89.772  19.236  0.00  0.00     0.074 A 
ATOM     15  C   UNK d   1      54.398  91.552  20.565  0.00  0.00     0.068 C 
ATOM     16  C   UNK d   1      54.451  90.415  21.565  0.00  0.00     0.129 C 
ATOM     17  H   UNK d   1      54.748  92.506  18.042  0.00  0.00     0.317 HD
ATOM     18  H   UNK d   1      54.408  87.884  19.555  0.00  0.00     0.166 HD
ENDROOT
BRANCH   1  19
ATOM     19  C   UNK d   1      55.351  88.481  23.501  0.00  0.00     0.122 C 
BRANCH  19  20
ATOM     20  C   UNK d   1      54.829  87.078  23.535  0.00  0.00     0.132 C 
BRANCH  20  21
ATOM     21  N   UNK d   1      54.557  86.539  22.239  0.00  0.00    -0.355 N 
ATOM     22  C   UNK d   1      54.051  85.224  22.049  0.00  0.00     0.275 C 
ATOM     23  O   UNK d   1      53.840  84.520  23.081  0.00  0.00    -0.265 OA
ATOM     24  H   UNK d   1      54.731  87.118  21.396  0.00  0.00     0.162 HD
BRANCH  22  25
ATOM     25  C   UNK d   1      53.768  84.660  20.754  0.00  0.00     0.144 A 
ATOM     26  O   UNK d   1      54.628  84.320  19.852  0.00  0.00    -0.298 OA
ATOM     27  C   UNK d   1      54.066  83.838  18.785  0.00  0.00     0.122 A 
ATOM     28 Br   UNK d   1      54.892  83.195  17.170  0.00  0.00    -0.023 Br
ATOM     29  C   UNK d   1      52.706  83.860  18.998  0.00  0.00     0.048 A 
ATOM     30  C   UNK d   1      52.489  84.384  20.255  0.00  0.00     0.046 A 
ENDBRANCH  22  25
ENDBRANCH  20  21
ENDBRANCH  19  20
ENDBRANCH   1  19
TORSDOF 4
ENDMDL
