MODEL 1
REMARK VINA RESULT:    -8.808      0.000      0.000
REMARK INTER + INTRA:         -10.581
REMARK INTER:                 -10.353
REMARK INTRA:                  -0.228
REMARK UNBOUND:                -0.228
REMARK  3 active torsions:
REMARK  status: ('A' for Active; 'I' for Inactive)
REMARK    1  A    between atoms: C_4  and  C_7 
REMARK       I    between atoms: C_7  and  N_9 
REMARK    2  A    between atoms: N_9  and  C_10 
REMARK    3  A    between atoms: C_10  and  C_12 
REMARK       I    between atoms: C_12  and  N_14 
ROOT
ATOM      1  C   UNK d   1      55.693  90.294  21.813  0.00  0.00     0.242 C 
ATOM      2  O   UNK d   1      56.054  90.084  20.602  0.00  0.00    -0.271 OA
ATOM      3  N   UNK d   1      56.072  89.339  22.763  0.00  0.00    -0.350 N 
ATOM      4  C   UNK d   1      55.736  89.452  24.168  0.00  0.00     0.129 C 
ATOM      5  C   UNK d   1      54.876  88.281  24.531  0.00  0.00     0.068 C 
ATOM      6  C   UNK d   1      55.492  86.980  24.128  0.00  0.00     0.206 C 
ATOM      7  N   UNK d   1      55.605  86.140  25.307  0.00  0.00     0.099 N 
ATOM      8  C   UNK d   1      54.263  85.827  25.762  0.00  0.00     0.277 C 
ATOM      9  C   UNK d   1      53.776  84.668  24.886  0.00  0.00     0.089 C 
ATOM     10  C   UNK d   1      53.869  85.154  23.489  0.00  0.00     0.039 A 
ATOM     11  N   UNK d   1      53.256  84.697  22.380  0.00  0.00    -0.352 N 
ATOM     12  C   UNK d   1      53.659  85.466  21.356  0.00  0.00     0.207 A 
ATOM     13  N   UNK d   1      54.513  86.388  21.836  0.00  0.00    -0.244 NA
ATOM     14  C   UNK d   1      54.666  86.223  23.161  0.00  0.00     0.097 A 
ATOM     15  C   UNK d   1      56.894  87.225  23.568  0.00  0.00     0.068 C 
ATOM     16  C   UNK d   1      56.841  88.161  22.405  0.00  0.00     0.129 C 
ATOM     17  H   UNK d   1      56.068  86.660  26.104  0.00  0.00     0.317 HD
ATOM     18  H   UNK d   1      52.582  83.897  22.274  0.00  0.00     0.166 HD
ENDROOT
BRANCH   1  19
ATOM     19  C   UNK d   1      54.920  91.526  22.048  0.00  0.00     0.173 C 
ATOM     20  C   UNK d   1      54.275  92.113  20.845  0.00  0.00     0.042 C 
BRANCH  19  21
ATOM     21  N   UNK d   1      55.708  92.550  22.703  0.00  0.00    -0.342 N 
ATOM     22  C   UNK d   1      55.144  93.604  23.445  0.00  0.00     0.276 C 
ATOM     23  O   UNK d   1      53.904  93.683  23.558  0.00  0.00    -0.265 OA
ATOM     24  H   UNK d   1      56.743  92.494  22.615  0.00  0.00     0.163 HD
BRANCH  22  25
ATOM     25  C   UNK d   1      55.991  94.602  24.080  0.00  0.00     0.144 A 
ATOM     26  O   UNK d   1      55.585  95.467  25.009  0.00  0.00    -0.298 OA
ATOM     27  C   UNK d   1      56.575  96.235  25.384  0.00  0.00     0.122 A 
ATOM     28 Br   UNK d   1      56.472  97.634  26.703  0.00  0.00    -0.023 Br
ATOM     29  C   UNK d   1      57.716  95.883  24.682  0.00  0.00     0.048 A 
ATOM     30  C   UNK d   1      57.328  94.852  23.864  0.00  0.00     0.046 A 
ENDBRANCH  22  25
ENDBRANCH  19  21
ENDBRANCH   1  19
TORSDOF 3
ENDMDL
