MODEL 1
REMARK VINA RESULT:    -8.838      0.000      0.000
REMARK INTER + INTRA:         -11.308
REMARK INTER:                 -10.388
REMARK INTRA:                  -0.920
REMARK UNBOUND:                -0.920
REMARK  3 active torsions:
REMARK  status: ('A' for Active; 'I' for Inactive)
REMARK    1  A    between atoms: C_4  and  C_7 
REMARK       I    between atoms: C_7  and  N_9 
REMARK    2  A    between atoms: N_12  and  C_15 
REMARK    3  A    between atoms: C_17  and  N_22 
ROOT
ATOM      1  C   UNK d   1      53.959  85.157  21.786  0.00  0.00     0.277 C 
ATOM      2  O   UNK d   1      53.010  84.887  22.537  0.00  0.00    -0.265 OA
ATOM      3  N   UNK d   1      55.036  85.942  22.266  0.00  0.00    -0.343 N 
ATOM      4  C   UNK d   1      55.023  86.424  23.632  0.00  0.00     0.146 C 
ATOM      5  C   UNK d   1      55.051  87.931  23.705  0.00  0.00     0.144 C 
ATOM      6  N   UNK d   1      55.772  88.392  22.507  0.00  0.00    -0.362 N 
ATOM      7  C   UNK d   1      56.849  87.572  22.069  0.00  0.00     0.144 C 
ATOM      8  C   UNK d   1      56.190  86.315  21.470  0.00  0.00     0.146 C 
ENDROOT
BRANCH   6   9
ATOM      9  C   UNK d   1      55.322  89.598  21.916  0.00  0.00     0.146 A 
ATOM     10  N   UNK d   1      54.821  89.627  20.650  0.00  0.00    -0.045 NA
ATOM     11  C   UNK d   1      54.393  90.763  20.076  0.00  0.00     0.726 A 
ATOM     12  N   UNK d   1      54.452  91.928  20.756  0.00  0.00    -0.068 NA
ATOM     13  C   UNK d   1      54.931  91.996  22.011  0.00  0.00     0.053 A 
ATOM     14  C   UNK d   1      55.369  90.790  22.578  0.00  0.00     0.078 A 
ATOM     15  C   UNK d   1      55.004  93.269  22.778  0.00  0.00     0.071 C 
BRANCH  11  16
ATOM     16  N   UNK d   1      53.879  90.740  18.756  0.00  0.00    -0.210 N 
ATOM     17  C   UNK d   1      53.259  91.882  18.128  0.00  0.00     0.167 C 
ATOM     18  C   UNK d   1      53.904  92.153  16.802  0.00  0.00     0.188 C 
ATOM     19  O   UNK d   1      54.758  91.131  16.391  0.00  0.00    -0.388 OA
ATOM     20  C   UNK d   1      54.143  89.890  16.529  0.00  0.00     0.188 C 
ATOM     21  C   UNK d   1      53.972  89.521  17.982  0.00  0.00     0.167 C 
ENDBRANCH  11  16
ENDBRANCH   6   9
BRANCH   1  22
ATOM     22  C   UNK d   1      53.935  84.645  20.405  0.00  0.00     0.144 A 
ATOM     23  O   UNK d   1      54.603  83.650  19.902  0.00  0.00    -0.298 OA
ATOM     24  C   UNK d   1      54.343  83.475  18.657  0.00  0.00     0.122 A 
ATOM     25 Br   UNK d   1      55.069  82.140  17.461  0.00  0.00    -0.023 Br
ATOM     26  C   UNK d   1      53.426  84.421  18.271  0.00  0.00     0.048 A 
ATOM     27  C   UNK d   1      53.167  85.170  19.391  0.00  0.00     0.046 A 
ENDBRANCH   1  22
TORSDOF 3
ENDMDL
