/Users/jonathanwahrer/Desktop/Msc/3_Semester/Drug_Design_Praktikum/waehrer_HTS_screening/HTS_experiment/out/docking_results/vina_output/3npc/0767_docked.pdbqt
 OpenBabel03192219513D

 32 35  0  0  0  0  0  0  0  0999 V2000
   55.2170   88.0390   25.2560 C   0  0  0  0  0  2  0  0  0  0  0  0
   54.5810   87.3210   24.2050 N   0  0  0  0  0  0  0  0  0  0  0  0
   55.1960   86.2000   23.5810 C   0  0  0  0  0  0  0  0  0  0  0  0
   56.3530   85.8430   23.9900 O   0  0  0  0  0  0  0  0  0  0  0  0
   53.6420   87.6160   23.8790 H   0  0  0  0  0  0  0  0  0  0  0  0
   54.5480   85.4620   22.5040 C   0  0  0  0  0  0  0  0  0  0  0  0
   53.4100   84.8310   22.6400 O   0  0  0  0  0  0  0  0  0  0  0  0
   53.0720   84.2620   21.5180 N   0  0  0  0  0  0  0  0  0  0  0  0
   54.0150   84.5140   20.5820 C   0  0  0  0  0  0  0  0  0  0  0  0
   54.9190   85.2650   21.2340 N   0  0  0  0  0  0  0  0  0  0  0  0
   54.0350   84.0690   19.1940 C   0  0  0  0  0  0  0  0  0  0  0  0
   54.7040   83.0680   18.6810 O   0  0  0  0  0  0  0  0  0  0  0  0
   54.5010   82.9390   17.4050 C   0  0  0  0  0  0  0  0  0  0  0  0
   55.2270   81.6600   16.2070 Br  0  0  0  0  0  0  0  0  0  0  0  0
   53.6140   83.9350   16.9950 C   0  0  0  0  0  3  0  0  0  0  0  0
   53.3300   84.6440   18.1520 C   0  0  0  0  0  3  0  0  0  0  0  0
   56.0910   89.1690   24.7550 C   0  0  0  0  0  2  0  0  0  0  0  0
   55.4020   89.9630   23.7470 N   0  0  0  0  0  0  0  0  0  0  0  0
   55.6930   89.7430   22.3900 C   0  0  0  0  0  0  0  0  0  0  0  0
   56.5660   88.8320   22.1570 O   0  0  0  0  0  0  0  0  0  0  0  0
   54.7030   90.6820   24.0050 H   0  0  0  0  0  0  0  0  0  0  0  0
   55.1330   90.4110   21.2430 C   0  0  0  0  0  0  0  0  0  0  0  0
   55.1440   89.7500   20.0150 C   0  0  0  0  0  3  0  0  0  0  0  0
   54.6080   90.3590   18.9090 C   0  0  0  0  0  0  0  0  0  0  0  0
   54.0670   91.6030   19.0050 C   0  0  0  0  0  0  0  0  0  0  0  0
   54.6020   89.7260   17.6620 C   0  0  0  0  0  3  0  0  0  0  0  0
   53.5220   92.2190   17.8750 C   0  0  0  0  0  3  0  0  0  0  0  0
   54.0710   92.1940   20.1650 O   0  0  0  0  0  0  0  0  0  0  0  0
   53.5130   91.6000   16.6490 C   0  0  0  0  0  3  0  0  0  0  0  0
   54.0610   90.3460   16.5580 C   0  0  0  0  0  3  0  0  0  0  0  0
   54.5720   91.6630   21.2740 C   0  0  0  0  0  0  0  0  0  0  0  0
   54.5130   92.3400   22.3270 O   0  0  0  0  0  0  0  0  0  0  0  0
  2  1  1  0  0  0  0
  3  4  2  0  0  0  0
  3  2  1  0  0  0  0
  5  2  1  0  0  0  0
  6  7  1  0  0  0  0
  6  3  1  0  0  0  0
  8  7  1  0  0  0  0
  9 10  1  0  0  0  0
  9  8  2  0  0  0  0
 10  6  2  0  0  0  0
 11  9  1  0  0  0  0
 12 11  1  0  0  0  0
 13 12  1  0  0  0  0
 14 13  1  0  0  0  0
 15 13  2  0  0  0  0
 15 16  1  0  0  0  0
 16 11  2  0  0  0  0
 17  1  1  0  0  0  0
 18 21  1  0  0  0  0
 18 17  1  0  0  0  0
 19 18  1  0  0  0  0
 20 19  2  0  0  0  0
 22 31  1  0  0  0  0
 22 19  1  0  0  0  0
 23 22  2  0  0  0  0
 24 25  1  0  0  0  0
 24 23  1  0  0  0  0
 25 28  1  0  0  0  0
 26 24  2  0  0  0  0
 27 25  2  0  0  0  0
 28 31  1  0  0  0  0
 29 27  1  0  0  0  0
 30 29  2  0  0  0  0
 30 26  1  0  0  0  0
 31 32  2  0  0  0  0
M  END
>  <Pose>
1

>  <Score>
-10.004

$$$$
