MODEL 1
REMARK VINA RESULT:    -7.969      0.000      0.000
REMARK INTER + INTRA:         -11.115
REMARK INTER:                 -10.764
REMARK INTRA:                  -0.350
REMARK UNBOUND:                -0.350
REMARK  7 active torsions:
REMARK  status: ('A' for Active; 'I' for Inactive)
REMARK    1  A    between atoms: N_4  and  C_10 
REMARK    2  A    between atoms: C_11  and  O_33 
REMARK       I    between atoms: N_18  and  C_21 
REMARK    3  A    between atoms: C_21  and  C_23 
REMARK    4  A    between atoms: C_25  and  O_29 
REMARK    5  A    between atoms: O_29  and  C_30 
REMARK    6  A    between atoms: C_30  and  C_31 
REMARK    7  A    between atoms: C_31  and  N_32 
ROOT
ATOM      1  C   UNK d   1      51.232  82.791  26.258  0.00  0.00     0.152 C 
ATOM      2  C   UNK d   1      52.554  82.385  26.921  0.00  0.00     0.080 C 
ATOM      3  C   UNK d   1      53.355  83.609  27.204  0.00  0.00     0.077 C 
ATOM      4  C   UNK d   1      53.691  84.280  25.891  0.00  0.00     0.067 C 
ATOM      5  O   UNK d   1      52.860  83.881  24.860  0.00  0.00    -0.378 OA
ATOM      6  C   UNK d   1      51.520  83.821  25.217  0.00  0.00     0.197 C 
ATOM      7  C   UNK d   1      53.708  85.747  26.123  0.00  0.00     0.058 C 
ATOM      8  C   UNK d   1      54.086  86.441  24.805  0.00  0.00     0.128 C 
ATOM      9  N   UNK d   1      55.440  86.104  24.511  0.00  0.00    -0.359 N 
ATOM     10  C   UNK d   1      56.023  85.040  25.396  0.00  0.00     0.128 C 
ATOM     11  C   UNK d   1      55.101  83.872  25.518  0.00  0.00     0.058 C 
ATOM     12  C   UNK d   1      56.225  86.651  23.515  0.00  0.00     0.187 C 
ATOM     13  O   UNK d   1      57.457  86.190  23.453  0.00  0.00    -0.171 OA
ATOM     14  C   UNK d   1      52.318  81.519  28.116  0.00  0.00     0.048 C 
ENDROOT
BRANCH   2  15
ATOM     15  O   UNK d   1      53.250  81.628  25.975  0.00  0.00    -0.388 OA
ATOM     16  H   UNK d   1      53.949  82.148  25.505  0.00  0.00     0.210 HD
ENDBRANCH   2  15
BRANCH   1  17
ATOM     17  N   UNK d   1      50.225  83.134  27.210  0.00  0.00    -0.298 N 
ATOM     18  C   UNK d   1      50.336  84.132  28.105  0.00  0.00     0.121 A 
ATOM     19  C   UNK d   1      49.351  84.438  29.009  0.00  0.00     0.094 A 
ATOM     20 Br   UNK d   1      49.645  85.878  30.217  0.00  0.00    -0.044 Br
ATOM     21  C   UNK d   1      48.190  83.705  29.019  0.00  0.00     0.268 A 
ATOM     22  N   UNK d   1      48.078  82.708  28.125  0.00  0.00    -0.274 N 
ATOM     23  O   UNK d   1      47.293  83.990  29.850  0.00  0.00    -0.267 OA
ATOM     24  C   UNK d   1      49.049  82.439  27.267  0.00  0.00     0.329 A 
ATOM     25  H   UNK d   1      47.193  82.160  28.145  0.00  0.00     0.173 HD
ATOM     26  O   UNK d   1      48.868  81.483  26.456  0.00  0.00    -0.246 OA
ENDBRANCH   1  17
BRANCH  12  27
ATOM     27  C   UNK d   1      55.932  87.634  22.534  0.00  0.00     0.020 A 
ATOM     28  C   UNK d   1      54.985  87.369  21.528  0.00  0.00     0.052 A 
ATOM     29  C   UNK d   1      54.607  88.231  20.548  0.00  0.00     0.069 A 
ATOM     30  C   UNK d   1      55.224  89.498  20.553  0.00  0.00     0.037 A 
ATOM     31  C   UNK d   1      56.138  89.777  21.511  0.00  0.00     0.004 A 
ATOM     32  C   UNK d   1      56.509  88.863  22.512  0.00  0.00     0.016 A 
BRANCH  29  33
ATOM     33  O   UNK d   1      53.687  87.934  19.587  0.00  0.00    -0.349 OA
BRANCH  33  34
ATOM     34  C   UNK d   1      52.581  88.596  19.143  0.00  0.00     0.205 C 
BRANCH  34  35
ATOM     35  C   UNK d   1      51.466  87.682  18.766  0.00  0.00     0.293 C 
BRANCH  35  36
ATOM     36  N   UNK d   1      51.040  86.920  19.940  0.00  0.00     0.080 N 
ATOM     37  H   UNK d   1      51.682  87.042  20.737  0.00  0.00     0.312 HD
ATOM     38  H   UNK d   1      50.796  85.949  19.719  0.00  0.00     0.312 HD
ENDBRANCH  35  36
ENDBRANCH  34  35
ENDBRANCH  33  34
ENDBRANCH  29  33
ENDBRANCH  12  27
TORSDOF 7
ENDMDL
