/Users/jonathanwahrer/Desktop/Msc/3_Semester/Drug_Design_Praktikum/waehrer_HTS_screening/HTS_experiment/out/docking_results/vina_output/3npc/0776_docked.pdbqt
 OpenBabel03192219513D

 38 41  0  0  1  0  0  0  0  0999 V2000
   51.2320   82.7910   26.2580 C   0  0  2  0  0  3  0  0  0  0  0  0
   52.5540   82.3850   26.9210 C   0  0  1  0  0  0  0  0  0  0  0  0
   53.3550   83.6090   27.2040 C   0  0  0  0  0  2  0  0  0  0  0  0
   53.6910   84.2800   25.8910 C   0  0  1  0  0  0  0  0  0  0  0  0
   52.8600   83.8810   24.8600 O   0  0  0  0  0  0  0  0  0  0  0  0
   51.5200   83.8210   25.2170 C   0  0  0  0  0  2  0  0  0  0  0  0
   53.7080   85.7470   26.1230 C   0  0  0  0  0  2  0  0  0  0  0  0
   54.0860   86.4410   24.8050 C   0  0  0  0  0  2  0  0  0  0  0  0
   55.4400   86.1040   24.5110 N   0  0  0  0  0  0  0  0  0  0  0  0
   56.0230   85.0400   25.3960 C   0  0  0  0  0  2  0  0  0  0  0  0
   55.1010   83.8720   25.5180 C   0  0  0  0  0  2  0  0  0  0  0  0
   56.2250   86.6510   23.5150 C   0  0  0  0  0  0  0  0  0  0  0  0
   57.4570   86.1900   23.4530 O   0  0  0  0  0  0  0  0  0  0  0  0
   52.3180   81.5190   28.1160 C   0  0  0  0  0  1  0  0  0  0  0  0
   53.2500   81.6280   25.9750 O   0  0  0  0  0  0  0  0  0  0  0  0
   53.9490   82.1480   25.5050 H   0  0  0  0  0  0  0  0  0  0  0  0
   50.2250   83.1340   27.2100 N   0  0  0  0  0  0  0  0  0  0  0  0
   50.3360   84.1320   28.1050 C   0  0  0  0  0  3  0  0  0  0  0  0
   49.3510   84.4380   29.0090 C   0  0  0  0  0  0  0  0  0  0  0  0
   49.6450   85.8780   30.2170 Br  0  0  0  0  0  0  0  0  0  0  0  0
   48.1900   83.7050   29.0190 C   0  0  0  0  0  0  0  0  0  0  0  0
   48.0780   82.7080   28.1250 N   0  0  0  0  0  0  0  0  0  0  0  0
   47.2930   83.9900   29.8500 O   0  0  0  0  0  0  0  0  0  0  0  0
   49.0490   82.4390   27.2670 C   0  0  0  0  0  0  0  0  0  0  0  0
   47.1930   82.1600   28.1450 H   0  0  0  0  0  0  0  0  0  0  0  0
   48.8680   81.4830   26.4560 O   0  0  0  0  0  0  0  0  0  0  0  0
   55.9320   87.6340   22.5340 C   0  0  0  0  0  0  0  0  0  0  0  0
   54.9850   87.3690   21.5280 C   0  0  0  0  0  3  0  0  0  0  0  0
   54.6070   88.2310   20.5480 C   0  0  0  0  0  0  0  0  0  0  0  0
   55.2240   89.4980   20.5530 C   0  0  0  0  0  3  0  0  0  0  0  0
   56.1380   89.7770   21.5110 C   0  0  0  0  0  3  0  0  0  0  0  0
   56.5090   88.8630   22.5120 C   0  0  0  0  0  3  0  0  0  0  0  0
   53.6870   87.9340   19.5870 O   0  0  0  0  0  0  0  0  0  0  0  0
   52.5810   88.5960   19.1430 C   0  0  0  0  0  2  0  0  0  0  0  0
   51.4660   87.6820   18.7660 C   0  0  0  0  0  2  0  0  0  0  0  0
   51.0400   86.9200   19.9400 N   0  0  0  0  0  0  0  0  0  0  0  0
   51.6820   87.0420   20.7370 H   0  0  0  0  0  0  0  0  0  0  0  0
   50.7960   85.9490   19.7190 H   0  0  0  0  0  0  0  0  0  0  0  0
  1  6  1  6  0  0  0
  1  2  1  0  0  0  0
  1 17  1  0  0  0  0
  2  3  1  0  0  0  0
  2 14  1  1  0  0  0
  4 11  1  6  0  0  0
  4  7  1  0  0  0  0
  4  3  1  0  0  0  0
  5  6  1  0  0  0  0
  5  4  1  0  0  0  0
  8  7  1  0  0  0  0
  9  8  1  0  0  0  0
  9 10  1  0  0  0  0
 10 11  1  0  0  0  0
 12  9  1  0  0  0  0
 13 12  2  0  0  0  0
 15  2  1  0  0  0  0
 16 15  1  0  0  0  0
 17 24  1  0  0  0  0
 17 18  1  0  0  0  0
 18 19  2  0  0  0  0
 19 21  1  0  0  0  0
 19 20  1  0  0  0  0
 21 23  2  0  0  0  0
 22 25  1  0  0  0  0
 22 21  1  0  0  0  0
 24 22  1  0  0  0  0
 26 24  2  0  0  0  0
 27 12  1  0  0  0  0
 28 27  2  0  0  0  0
 29 30  2  0  0  0  0
 29 28  1  0  0  0  0
 30 31  1  0  0  0  0
 31 32  2  0  0  0  0
 32 27  1  0  0  0  0
 33 29  1  0  0  0  0
 34 33  1  0  0  0  0
 35 34  1  0  0  0  0
 35 36  1  0  0  0  0
 36 37  1  0  0  0  0
 38 36  1  0  0  0  0
M  END
>  <Pose>
1

>  <Score>
-7.969

$$$$
