MODEL 1
REMARK VINA RESULT:    -7.792      0.000      0.000
REMARK INTER + INTRA:         -11.335
REMARK INTER:                 -10.297
REMARK INTRA:                  -1.038
REMARK UNBOUND:                -1.038
REMARK  7 active torsions:
REMARK  status: ('A' for Active; 'I' for Inactive)
REMARK    1  A    between atoms: N_4  and  C_10 
REMARK    2  A    between atoms: C_11  and  O_33 
REMARK       I    between atoms: N_18  and  C_21 
REMARK    3  A    between atoms: C_21  and  C_23 
REMARK    4  A    between atoms: C_23  and  N_24 
REMARK    5  A    between atoms: C_23  and  C_25 
REMARK    6  A    between atoms: C_25  and  C_26 
REMARK    7  A    between atoms: C_29  and  O_32 
ROOT
ATOM      1  C   UNK d   1      50.401  84.223  27.530  0.00  0.00     0.152 C 
ATOM      2  C   UNK d   1      51.288  84.934  26.588  0.00  0.00     0.080 C 
ATOM      3  C   UNK d   1      51.261  84.374  25.160  0.00  0.00     0.077 C 
ATOM      4  C   UNK d   1      51.554  82.894  25.166  0.00  0.00     0.067 C 
ATOM      5  O   UNK d   1      51.294  82.323  26.397  0.00  0.00    -0.378 OA
ATOM      6  C   UNK d   1      50.206  82.810  27.053  0.00  0.00     0.197 C 
ATOM      7  C   UNK d   1      53.007  82.716  24.762  0.00  0.00     0.058 C 
ATOM      8  C   UNK d   1      53.113  82.432  23.287  0.00  0.00     0.129 C 
ATOM      9  N   UNK d   1      52.162  83.258  22.588  0.00  0.00    -0.350 N 
ATOM     10  C   UNK d   1      50.760  82.930  22.803  0.00  0.00     0.129 C 
ATOM     11  C   UNK d   1      50.658  82.237  24.143  0.00  0.00     0.058 C 
ATOM     12  C   UNK d   1      52.582  84.289  21.745  0.00  0.00     0.253 C 
ATOM     13  O   UNK d   1      51.640  84.957  21.181  0.00  0.00    -0.271 OA
ATOM     14  C   UNK d   1      52.703  85.107  27.035  0.00  0.00     0.048 C 
ENDROOT
BRANCH   2  15
ATOM     15  O   UNK d   1      50.769  86.246  26.440  0.00  0.00    -0.388 OA
ATOM     16  H   UNK d   1      50.997  86.816  27.211  0.00  0.00     0.210 HD
ENDBRANCH   2  15
BRANCH   1  17
ATOM     17  N   UNK d   1      50.837  84.257  28.912  0.00  0.00    -0.298 N 
ATOM     18  C   UNK d   1      51.619  83.289  29.378  0.00  0.00     0.121 A 
ATOM     19  C   UNK d   1      52.042  83.289  30.687  0.00  0.00     0.094 A 
ATOM     20 Br   UNK d   1      53.173  81.880  31.340  0.00  0.00    -0.044 Br
ATOM     21  C   UNK d   1      51.640  84.318  31.513  0.00  0.00     0.268 A 
ATOM     22  N   UNK d   1      50.849  85.269  30.984  0.00  0.00    -0.274 N 
ATOM     23  O   UNK d   1      52.004  84.363  32.725  0.00  0.00    -0.267 OA
ATOM     24  C   UNK d   1      50.445  85.251  29.704  0.00  0.00     0.329 A 
ATOM     25  H   UNK d   1      50.535  86.065  31.617  0.00  0.00     0.173 HD
ATOM     26  O   UNK d   1      49.695  86.197  29.294  0.00  0.00    -0.246 OA
ENDBRANCH   1  17
BRANCH  12  27
ATOM     27  C   UNK d   1      53.936  84.717  21.407  0.00  0.00     0.313 C 
BRANCH  27  28
ATOM     28  N   UNK d   1      54.293  84.368  20.031  0.00  0.00     0.092 N 
ATOM     29  H   UNK d   1      55.319  84.466  19.874  0.00  0.00     0.313 HD
ATOM     30  H   UNK d   1      53.830  85.055  19.385  0.00  0.00     0.313 HD
ENDBRANCH  27  28
BRANCH  27  31
ATOM     31  C   UNK d   1      54.196  86.201  21.539  0.00  0.00     0.083 C 
BRANCH  31  32
ATOM     32  C   UNK d   1      55.306  86.337  22.554  0.00  0.00    -0.056 A 
ATOM     33  C   UNK d   1      56.588  86.597  22.144  0.00  0.00     0.010 A 
ATOM     34  C   UNK d   1      57.581  86.714  23.113  0.00  0.00     0.037 A 
ATOM     35  C   UNK d   1      57.305  86.578  24.454  0.00  0.00     0.065 A 
ATOM     36  C   UNK d   1      56.002  86.318  24.827  0.00  0.00     0.037 A 
ATOM     37  C   UNK d   1      54.996  86.194  23.890  0.00  0.00     0.010 A 
BRANCH  35  38
ATOM     38  O   UNK d   1      58.331  86.706  25.371  0.00  0.00    -0.361 OA
ATOM     39  H   UNK d   1      58.692  87.600  25.702  0.00  0.00     0.217 HD
ENDBRANCH  35  38
ENDBRANCH  31  32
ENDBRANCH  27  31
ENDBRANCH  12  27
TORSDOF 7
ENDMDL
