/Users/jonathanwahrer/Desktop/Msc/3_Semester/Drug_Design_Praktikum/waehrer_HTS_screening/HTS_experiment/out/docking_results/vina_output/3npc/0784_docked.pdbqt
 OpenBabel03192219523D

 39 42  0  0  1  0  0  0  0  0999 V2000
   53.1060   84.0790   25.4890 C   0  0  1  0  0  3  0  0  0  0  0  0
   51.6000   84.3410   25.3300 C   0  0  2  0  0  0  0  0  0  0  0  0
   50.9480   83.3570   26.3110 C   0  0  0  0  0  2  0  0  0  0  0  0
   51.4530   81.9610   26.0750 C   0  0  2  0  0  0  0  0  0  0  0  0
   52.2090   81.9410   24.9290 O   0  0  0  0  0  0  0  0  0  0  0  0
   53.3610   82.7230   24.9730 C   0  0  0  0  0  2  0  0  0  0  0  0
   50.2230   81.1050   25.8040 C   0  0  0  0  0  2  0  0  0  0  0  0
   49.6220   80.6490   27.1100 C   0  0  0  0  0  2  0  0  0  0  0  0
   50.0360   81.5440   28.2040 N   0  0  0  0  0  0  0  0  0  0  0  0
   51.4270   81.4930   28.5430 C   0  0  0  0  0  2  0  0  0  0  0  0
   52.1810   81.3560   27.2230 C   0  0  0  0  0  2  0  0  0  0  0  0
   49.1460   82.4080   28.8400 C   0  0  0  0  0  0  0  0  0  0  0  0
   47.9160   82.4960   28.4540 O   0  0  0  0  0  0  0  0  0  0  0  0
   51.1520   84.1090   23.9220 C   0  0  0  0  0  1  0  0  0  0  0  0
   51.2540   85.6230   25.6980 O   0  0  0  0  0  0  0  0  0  0  0  0
   51.9800   86.0090   26.2510 H   0  0  0  0  0  0  0  0  0  0  0  0
   53.8980   85.1560   25.0520 N   0  0  0  0  0  0  0  0  0  0  0  0
   54.1390   85.4790   23.7800 C   0  0  0  0  0  3  0  0  0  0  0  0
   54.9380   86.5680   23.4290 C   0  0  0  0  0  0  0  0  0  0  0  0
   55.2160   86.9370   21.5920 Br  0  0  0  0  0  0  0  0  0  0  0  0
   55.5040   87.3450   24.4150 C   0  0  0  0  0  0  0  0  0  0  0  0
   55.2530   87.0080   25.6920 N   0  0  0  0  0  0  0  0  0  0  0  0
   56.2380   88.3440   24.1230 O   0  0  0  0  0  0  0  0  0  0  0  0
   54.4780   85.9530   26.0000 C   0  0  0  0  0  0  0  0  0  0  0  0
   55.6630   87.5710   26.4840 H   0  0  0  0  0  0  0  0  0  0  0  0
   54.2810   85.6900   27.2170 O   0  0  0  0  0  0  0  0  0  0  0  0
   49.5210   83.2590   29.9590 C   0  0  1  0  0  3  0  0  0  0  0  0
   49.1330   84.6280   29.7210 N   0  0  0  0  0  0  0  0  0  0  0  0
   49.8800   85.6600   29.1650 C   0  0  0  0  0  0  0  0  0  0  0  0
   51.0630   85.5720   28.7750 O   0  0  0  0  0  0  0  0  0  0  0  0
   49.2780   87.0400   28.9820 C   0  0  0  0  0  1  0  0  0  0  0  0
   48.1370   84.8610   30.0230 H   0  0  0  0  0  0  0  0  0  0  0  0
   48.8660   82.7780   31.2910 C   0  0  0  0  0  2  0  0  0  0  0  0
   49.4130   83.5450   32.4250 C   0  0  0  0  0  0  0  0  0  0  0  0
   49.0560   84.7280   32.9000 N   0  0  0  0  0  0  0  0  0  0  0  0
   49.8190   85.0870   33.9680 C   0  0  0  0  0  3  0  0  0  0  0  0
   50.6890   84.0790   34.1630 N   0  0  0  0  0  0  0  0  0  0  0  0
   50.4580   83.1290   33.2320 C   0  0  0  0  0  3  0  0  0  0  0  0
   51.4090   84.0800   34.9260 H   0  0  0  0  0  0  0  0  0  0  0  0
  1  6  1  6  0  0  0
  2 14  1  6  0  0  0
  2  1  1  0  0  0  0
  2 15  1  0  0  0  0
  2  3  1  0  0  0  0
  4  7  1  6  0  0  0
  4  3  1  0  0  0  0
  4 11  1  0  0  0  0
  5  6  1  0  0  0  0
  5  4  1  0  0  0  0
  7  8  1  0  0  0  0
  8  9  1  0  0  0  0
  9 10  1  0  0  0  0
  9 12  1  0  0  0  0
 11 10  1  0  0  0  0
 12 27  1  0  0  0  0
 13 12  2  0  0  0  0
 15 16  1  0  0  0  0
 17  1  1  0  0  0  0
 17 24  1  0  0  0  0
 18 17  1  0  0  0  0
 19 18  2  0  0  0  0
 19 21  1  0  0  0  0
 20 19  1  0  0  0  0
 21 22  1  0  0  0  0
 22 24  1  0  0  0  0
 22 25  1  0  0  0  0
 23 21  2  0  0  0  0
 24 26  2  0  0  0  0
 27 33  1  1  0  0  0
 28 27  1  0  0  0  0
 28 32  1  0  0  0  0
 29 28  1  0  0  0  0
 30 29  2  0  0  0  0
 31 29  1  0  0  0  0
 33 34  1  0  0  0  0
 34 35  1  0  0  0  0
 34 38  2  0  0  0  0
 35 36  2  0  0  0  0
 36 37  1  0  0  0  0
 37 39  1  0  0  0  0
 38 37  1  0  0  0  0
M  END
>  <Pose>
1

>  <Score>
-7.653

$$$$
