MODEL 1
REMARK VINA RESULT:    -7.653      0.000      0.000
REMARK INTER + INTRA:         -11.741
REMARK INTER:                 -10.114
REMARK INTRA:                  -1.627
REMARK UNBOUND:                -1.627
REMARK  6 active torsions:
REMARK  status: ('A' for Active; 'I' for Inactive)
REMARK    1  A    between atoms: N_4  and  C_10 
REMARK    2  A    between atoms: C_11  and  O_34 
REMARK       I    between atoms: N_18  and  C_21 
REMARK    3  A    between atoms: C_21  and  C_23 
REMARK    4  A    between atoms: C_23  and  N_24 
REMARK    5  A    between atoms: C_23  and  C_28 
REMARK       I    between atoms: N_24  and  C_25 
REMARK    6  A    between atoms: C_28  and  C_29 
ROOT
ATOM      1  C   UNK d   1      53.106  84.079  25.489  0.00  0.00     0.152 C 
ATOM      2  C   UNK d   1      51.600  84.341  25.330  0.00  0.00     0.080 C 
ATOM      3  C   UNK d   1      50.948  83.357  26.311  0.00  0.00     0.077 C 
ATOM      4  C   UNK d   1      51.453  81.961  26.075  0.00  0.00     0.067 C 
ATOM      5  O   UNK d   1      52.209  81.941  24.929  0.00  0.00    -0.378 OA
ATOM      6  C   UNK d   1      53.361  82.723  24.973  0.00  0.00     0.197 C 
ATOM      7  C   UNK d   1      50.223  81.105  25.804  0.00  0.00     0.058 C 
ATOM      8  C   UNK d   1      49.622  80.649  27.110  0.00  0.00     0.129 C 
ATOM      9  N   UNK d   1      50.036  81.544  28.204  0.00  0.00    -0.350 N 
ATOM     10  C   UNK d   1      51.427  81.493  28.543  0.00  0.00     0.129 C 
ATOM     11  C   UNK d   1      52.181  81.356  27.223  0.00  0.00     0.058 C 
ATOM     12  C   UNK d   1      49.146  82.408  28.840  0.00  0.00     0.243 C 
ATOM     13  O   UNK d   1      47.916  82.496  28.454  0.00  0.00    -0.271 OA
ATOM     14  C   UNK d   1      51.152  84.109  23.922  0.00  0.00     0.048 C 
ENDROOT
BRANCH   2  15
ATOM     15  O   UNK d   1      51.254  85.623  25.698  0.00  0.00    -0.388 OA
ATOM     16  H   UNK d   1      51.980  86.009  26.251  0.00  0.00     0.210 HD
ENDBRANCH   2  15
BRANCH   1  17
ATOM     17  N   UNK d   1      53.898  85.156  25.052  0.00  0.00    -0.298 N 
ATOM     18  C   UNK d   1      54.139  85.479  23.780  0.00  0.00     0.121 A 
ATOM     19  C   UNK d   1      54.938  86.568  23.429  0.00  0.00     0.094 A 
ATOM     20 Br   UNK d   1      55.216  86.937  21.592  0.00  0.00    -0.044 Br
ATOM     21  C   UNK d   1      55.504  87.345  24.415  0.00  0.00     0.268 A 
ATOM     22  N   UNK d   1      55.253  87.008  25.692  0.00  0.00    -0.274 N 
ATOM     23  O   UNK d   1      56.238  88.344  24.123  0.00  0.00    -0.267 OA
ATOM     24  C   UNK d   1      54.478  85.953  26.000  0.00  0.00     0.329 A 
ATOM     25  H   UNK d   1      55.663  87.571  26.484  0.00  0.00     0.173 HD
ATOM     26  O   UNK d   1      54.281  85.690  27.217  0.00  0.00    -0.246 OA
ENDBRANCH   1  17
BRANCH  12  27
ATOM     27  C   UNK d   1      49.521  83.259  29.959  0.00  0.00     0.182 C 
BRANCH  27  28
ATOM     28  N   UNK d   1      49.133  84.628  29.721  0.00  0.00    -0.348 N 
ATOM     29  C   UNK d   1      49.880  85.660  29.165  0.00  0.00     0.214 C 
ATOM     30  O   UNK d   1      51.063  85.572  28.775  0.00  0.00    -0.274 OA
ATOM     31  C   UNK d   1      49.278  87.040  28.982  0.00  0.00     0.117 C 
ATOM     32  H   UNK d   1      48.137  84.861  30.023  0.00  0.00     0.163 HD
ENDBRANCH  27  28
BRANCH  27  33
ATOM     33  C   UNK d   1      48.866  82.778  31.291  0.00  0.00     0.095 C 
BRANCH  33  34
ATOM     34  C   UNK d   1      49.413  83.545  32.425  0.00  0.00     0.053 A 
ATOM     35  N   UNK d   1      49.056  84.728  32.900  0.00  0.00    -0.247 NA
ATOM     36  C   UNK d   1      49.819  85.087  33.968  0.00  0.00     0.207 A 
ATOM     37  N   UNK d   1      50.689  84.079  34.163  0.00  0.00    -0.359 N 
ATOM     38  C   UNK d   1      50.458  83.129  33.232  0.00  0.00     0.116 A 
ATOM     39  H   UNK d   1      51.409  84.080  34.926  0.00  0.00     0.166 HD
ENDBRANCH  33  34
ENDBRANCH  27  33
ENDBRANCH  12  27
TORSDOF 6
ENDMDL
