MODEL 1
REMARK VINA RESULT:    -7.800      0.000      0.000
REMARK INTER + INTRA:          -8.414
REMARK INTER:                  -8.256
REMARK INTRA:                  -0.158
REMARK UNBOUND:                -0.158
REMARK  1 active torsions:
REMARK  status: ('A' for Active; 'I' for Inactive)
REMARK    1  A    between atoms: C_6  and  C_11 
REMARK       I    between atoms: C_11  and  N_13 
ROOT
ATOM      1  C   UNK d   1      52.414  98.419  29.193  0.00  0.00     0.274 C 
ATOM      2  O   UNK d   1      52.601  98.191  30.419  0.00  0.00    -0.266 OA
ATOM      3  N   UNK d   1      51.442  99.388  28.834  0.00  0.00    -0.343 N 
ATOM      4  C   UNK d   1      50.717 100.074  29.840  0.00  0.00     0.161 C 
ATOM      5  C   UNK d   1      49.378 100.538  29.405  0.00  0.00     0.241 C 
ATOM      6  N   UNK d   1      49.026 100.255  28.043  0.00  0.00     0.096 N 
ATOM      7  C   UNK d   1      50.105 100.594  27.134  0.00  0.00     0.292 C 
ATOM      8  C   UNK d   1      51.238  99.630  27.432  0.00  0.00     0.156 C 
ATOM      9  C   UNK d   1      47.824 101.006  27.841  0.00  0.00     0.273 C 
ATOM     10  C   UNK d   1      48.019 102.290  28.607  0.00  0.00     0.032 C 
ATOM     11  C   UNK d   1      49.236 102.050  29.472  0.00  0.00     0.039 C 
ENDROOT
BRANCH   1  12
ATOM     12  C   UNK d   1      53.204  97.680  28.198  0.00  0.00     0.148 A 
ATOM     13  N   UNK d   1      54.461  97.878  27.777  0.00  0.00    -0.161 NA
ATOM     14  N   UNK d   1      54.817  96.992  26.860  0.00  0.00    -0.225 N 
ATOM     15  C   UNK d   1      55.954  96.780  26.147  0.00  0.00     0.141 A 
ATOM     16  C   UNK d   1      53.789  96.155  26.631  0.00  0.00     0.152 A 
ATOM     17  C   UNK d   1      56.066  95.759  25.230  0.00  0.00     0.046 A 
ATOM     18 Br   UNK d   1      57.685  95.476  24.233  0.00  0.00    -0.048 Br
ATOM     19  C   UNK d   1      55.000  94.915  25.013  0.00  0.00     0.139 A 
ATOM     20  N   UNK d   1      53.888  95.144  25.727  0.00  0.00    -0.240 NA
ATOM     21  C   UNK d   1      52.772  96.576  27.464  0.00  0.00     0.091 A 
ENDBRANCH   1  12
TORSDOF 1
ENDMDL
