MODEL 1
REMARK VINA RESULT:    -8.327      0.000      0.000
REMARK INTER + INTRA:          -9.808
REMARK INTER:                  -9.301
REMARK INTRA:                  -0.507
REMARK UNBOUND:                -0.507
REMARK  2 active torsions:
REMARK  status: ('A' for Active; 'I' for Inactive)
REMARK    1  A    between atoms: C_7  and  C_11 
REMARK       I    between atoms: C_11  and  N_13 
REMARK       I    between atoms: N_16  and  C_19 
REMARK    2  A    between atoms: C_19  and  C_21 
ROOT
ATOM      1  C   UNK d   1      56.198  87.120  21.618  0.00  0.00     0.259 C 
ATOM      2  O   UNK d   1      57.155  86.584  20.990  0.00  0.00    -0.267 OA
ATOM      3  N   UNK d   1      56.349  87.528  22.968  0.00  0.00    -0.345 N 
ATOM      4  C   UNK d   1      55.185  88.143  23.623  0.00  0.00     0.146 C 
ATOM      5  C   UNK d   1      55.404  87.856  25.109  0.00  0.00     0.145 C 
ATOM      6  N   UNK d   1      55.948  86.532  25.175  0.00  0.00    -0.354 N 
ATOM      7  C   UNK d   1      57.425  86.517  24.960  0.00  0.00     0.145 C 
ATOM      8  C   UNK d   1      57.601  87.353  23.689  0.00  0.00     0.146 C 
ATOM      9  C   UNK d   1      55.283  85.332  25.362  0.00  0.00     0.211 C 
ATOM     10  O   UNK d   1      56.012  84.257  25.429  0.00  0.00    -0.169 OA
ENDROOT
BRANCH   1  11
ATOM     11  C   UNK d   1      54.949  87.303  20.920  0.00  0.00     0.099 A 
ATOM     12  C   UNK d   1      53.994  86.370  20.589  0.00  0.00     0.160 A 
ATOM     13  N   UNK d   1      52.987  86.977  19.939  0.00  0.00    -0.178 NA
ATOM     14  N   UNK d   1      53.277  88.276  19.847  0.00  0.00    -0.225 N 
ATOM     15  C   UNK d   1      52.617  89.292  19.304  0.00  0.00     0.141 A 
ATOM     16  C   UNK d   1      54.464  88.511  20.433  0.00  0.00     0.167 A 
ATOM     17  C   UNK d   1      53.122  90.553  19.333  0.00  0.00     0.046 A 
ATOM     18 Br   UNK d   1      52.169  92.005  18.551  0.00  0.00    -0.048 Br
ATOM     19  C   UNK d   1      54.330  90.788  19.930  0.00  0.00     0.139 A 
ATOM     20  N   UNK d   1      54.976  89.751  20.470  0.00  0.00    -0.239 NA
ENDBRANCH   1  11
BRANCH   9  21
ATOM     21  C   UNK d   1      53.860  85.069  25.497  0.00  0.00     0.128 A 
ATOM     22  O   UNK d   1      53.185  85.117  26.655  0.00  0.00    -0.318 OA
ATOM     23  C   UNK d   1      51.936  84.840  26.498  0.00  0.00     0.142 A 
ATOM     24  C   UNK d   1      51.689  84.579  25.174  0.00  0.00     0.027 A 
ATOM     25  C   UNK d   1      52.919  84.729  24.555  0.00  0.00     0.043 A 
ENDBRANCH   9  21
TORSDOF 2
ENDMDL
