/Users/jonathanwahrer/Desktop/Msc/3_Semester/Drug_Design_Praktikum/waehrer_HTS_screening/HTS_experiment/out/docking_results/vina_output/3npc/0790_docked.pdbqt
 OpenBabel03192219523D

 25 28  0  0  0  0  0  0  0  0999 V2000
   56.1980   87.1200   21.6180 C   0  0  0  0  0  0  0  0  0  0  0  0
   57.1550   86.5840   20.9900 O   0  0  0  0  0  0  0  0  0  0  0  0
   56.3490   87.5280   22.9680 N   0  0  0  0  0  0  0  0  0  0  0  0
   55.1850   88.1430   23.6230 C   0  0  0  0  0  2  0  0  0  0  0  0
   55.4040   87.8560   25.1090 C   0  0  0  0  0  2  0  0  0  0  0  0
   55.9480   86.5320   25.1750 N   0  0  0  0  0  0  0  0  0  0  0  0
   57.4250   86.5170   24.9600 C   0  0  0  0  0  2  0  0  0  0  0  0
   57.6010   87.3530   23.6890 C   0  0  0  0  0  2  0  0  0  0  0  0
   55.2830   85.3320   25.3620 C   0  0  0  0  0  0  0  0  0  0  0  0
   56.0120   84.2570   25.4290 O   0  0  0  0  0  0  0  0  0  0  0  0
   54.9490   87.3030   20.9200 C   0  0  0  0  0  0  0  0  0  0  0  0
   53.9940   86.3700   20.5890 C   0  0  0  0  0  3  0  0  0  0  0  0
   52.9870   86.9770   19.9390 N   0  0  0  0  0  0  0  0  0  0  0  0
   53.2770   88.2760   19.8470 N   0  0  0  0  0  0  0  0  0  0  0  0
   52.6170   89.2920   19.3040 C   0  0  0  0  0  3  0  0  0  0  0  0
   54.4640   88.5110   20.4330 C   0  0  0  0  0  0  0  0  0  0  0  0
   53.1220   90.5530   19.3330 C   0  0  0  0  0  0  0  0  0  0  0  0
   52.1690   92.0050   18.5510 Br  0  0  0  0  0  0  0  0  0  0  0  0
   54.3300   90.7880   19.9300 C   0  0  0  0  0  3  0  0  0  0  0  0
   54.9760   89.7510   20.4700 N   0  0  0  0  0  0  0  0  0  0  0  0
   53.8600   85.0690   25.4970 C   0  0  0  0  0  0  0  0  0  0  0  0
   53.1850   85.1170   26.6550 O   0  0  0  0  0  0  0  0  0  0  0  0
   51.9360   84.8400   26.4980 C   0  0  0  0  0  3  0  0  0  0  0  0
   51.6890   84.5790   25.1740 C   0  0  0  0  0  3  0  0  0  0  0  0
   52.9190   84.7290   24.5550 C   0  0  0  0  0  3  0  0  0  0  0  0
  1  3  1  0  0  0  0
  2  1  2  0  0  0  0
  3  4  1  0  0  0  0
  3  8  1  0  0  0  0
  4  5  1  0  0  0  0
  5  6  1  0  0  0  0
  6  9  1  0  0  0  0
  7  6  1  0  0  0  0
  8  7  1  0  0  0  0
  9 10  2  0  0  0  0
  9 21  1  0  0  0  0
 11  1  1  0  0  0  0
 12 11  1  0  0  0  0
 13 12  2  0  0  0  0
 14 13  1  0  0  0  0
 14 16  1  0  0  0  0
 15 17  2  0  0  0  0
 15 14  1  0  0  0  0
 16 20  1  0  0  0  0
 16 11  2  0  0  0  0
 17 19  1  0  0  0  0
 18 17  1  0  0  0  0
 19 20  2  0  0  0  0
 21 22  1  0  0  0  0
 23 22  1  0  0  0  0
 24 23  2  0  0  0  0
 25 24  1  0  0  0  0
 25 21  2  0  0  0  0
M  END
>  <Pose>
1

>  <Score>
-8.327

$$$$
