MODEL 1
REMARK VINA RESULT:    -8.621      0.000      0.000
REMARK INTER + INTRA:         -12.486
REMARK INTER:                 -11.645
REMARK INTRA:                  -0.841
REMARK UNBOUND:                -0.841
REMARK  6 active torsions:
REMARK  status: ('A' for Active; 'I' for Inactive)
REMARK    1  A    between atoms: C_16  and  N_17 
REMARK    2  A    between atoms: N_17  and  C_18 
REMARK    3  A    between atoms: C_19  and  C_24 
REMARK    4  A    between atoms: C_24  and  O_26 
REMARK    5  A    between atoms: O_26  and  C_27 
REMARK    6  A    between atoms: C_27  and  C_28 
ROOT
ATOM      1 Br   UNK d   1      57.090  87.527  24.561  0.00  0.00    -0.046 Br
ATOM      2  C   UNK d   1      55.999  87.839  23.037  0.00  0.00     0.072 A 
ATOM      3  C   UNK d   1      56.297  88.746  22.081  0.00  0.00     0.141 A 
ATOM      4  N   UNK d   1      55.580  88.909  20.965  0.00  0.00    -0.118 N 
ATOM      5  C   UNK d   1      54.511  88.136  20.781  0.00  0.00     0.716 A 
ATOM      6  N   UNK d   1      53.760  88.290  19.654  0.00  0.00    -0.063 NA
ATOM      7  C   UNK d   1      54.039  89.183  18.715  0.00  0.00     0.091 A 
ATOM      8  C   UNK d   1      55.138  89.994  18.882  0.00  0.00     0.062 A 
ATOM      9  C   UNK d   1      55.475  90.948  17.942  0.00  0.00     0.019 A 
ATOM     10  C   UNK d   1      54.729  91.143  16.780  0.00  0.00     0.001 A 
ATOM     11  C   UNK d   1      53.630  90.326  16.623  0.00  0.00     0.002 A 
ATOM     12  C   UNK d   1      53.289  89.368  17.562  0.00  0.00     0.033 A 
ATOM     13  C   UNK d   1      55.891  89.820  20.037  0.00  0.00     0.278 A 
ATOM     14  O   UNK d   1      56.893  90.552  20.201  0.00  0.00    -0.266 OA
ATOM     15  N   UNK d   1      54.190  87.220  21.724  0.00  0.00    -0.173 N 
ATOM     16  C   UNK d   1      54.849  87.001  22.854  0.00  0.00     0.140 A 
ATOM     17  H   UNK d   1      53.314  86.665  21.456  0.00  0.00     0.186 HD
ENDROOT
BRANCH  16  18
ATOM     18  N   UNK d   1      54.529  86.179  23.888  0.00  0.00    -0.340 N 
ATOM     19  H   UNK d   1      55.810  85.711  23.975  0.00  0.00     0.167 HD
BRANCH  18  20
ATOM     20  C   UNK d   1      54.214  85.369  24.908  0.00  0.00     0.050 A 
ATOM     21  C   UNK d   1      53.347  84.291  24.690  0.00  0.00     0.066 A 
ATOM     22  C   UNK d   1      52.824  83.600  25.733  0.00  0.00     0.020 A 
ATOM     23  C   UNK d   1      53.141  83.942  27.025  0.00  0.00     0.001 A 
ATOM     24  C   UNK d   1      53.992  84.987  27.306  0.00  0.00     0.002 A 
ATOM     25  C   UNK d   1      54.507  85.674  26.232  0.00  0.00     0.030 A 
BRANCH  21  26
ATOM     26  C   UNK d   1      53.085  83.769  23.342  0.00  0.00     0.295 C 
ATOM     27  O   UNK d   1      53.793  82.812  22.940  0.00  0.00    -0.259 OA
BRANCH  26  28
ATOM     28  O   UNK d   1      52.137  84.239  22.480  0.00  0.00    -0.317 OA
BRANCH  28  29
ATOM     29  C   UNK d   1      50.759  83.957  22.626  0.00  0.00     0.178 C 
BRANCH  29  30
ATOM     30  C   UNK d   1      50.385  82.710  21.819  0.00  0.00     0.022 C 
ATOM     31  C   UNK d   1      49.576  81.789  22.701  0.00  0.00     0.007 C 
ENDBRANCH  29  30
ENDBRANCH  28  29
ENDBRANCH  26  28
ENDBRANCH  21  26
ENDBRANCH  18  20
ENDBRANCH  16  18
TORSDOF 6
ENDMDL
