/Users/jonathanwahrer/Desktop/Msc/3_Semester/Drug_Design_Praktikum/waehrer_HTS_screening/HTS_experiment/out/docking_results/vina_output/3npc/0827_docked.pdbqt
 OpenBabel03192219543D

 29 32  0  0  1  0  0  0  0  0999 V2000
   52.2500   84.6280   20.9350 C   0  0  2  0  0  0  0  0  0  0  0  0
   53.0510   85.2420   21.9920 N   0  0  0  0  0  4  0  0  0  0  0  0
   53.1110   84.4010   23.0760 C   0  0  0  0  0  0  0  0  0  0  0  0
   53.4310   84.6570   24.3200 C   0  0  0  0  0  3  0  0  0  0  0  0
   53.5350   83.8340   25.5600 C   0  0  0  0  0  2  0  0  0  0  0  0
   53.0220   82.4360   25.4130 C   0  0  0  0  0  2  0  0  0  0  0  0
   53.7320   81.6960   24.3040 C   0  0  0  0  0  2  0  0  0  0  0  0
   52.9170   81.7700   23.0290 C   0  0  0  0  0  2  0  0  0  0  0  0
   52.6180   83.1120   22.6450 N   0  0  0  0  0  0  0  0  0  0  0  0
   51.5980   83.3860   21.6230 C   0  0  0  0  0  2  0  0  0  0  0  0
   52.2820   86.0020   22.3530 H   0  0  0  0  0  0  0  0  0  0  0  0
   54.0660   86.0640   21.5800 C   0  0  0  0  0  0  0  0  0  0  0  0
   55.3650   85.9880   21.9850 C   0  0  0  0  0  3  0  0  0  0  0  0
   56.3250   86.9630   21.6650 C   0  0  0  0  0  3  0  0  0  0  0  0
   55.9870   88.0590   20.9150 C   0  0  0  0  0  0  0  0  0  0  0  0
   54.6670   88.1430   20.4970 C   0  0  0  0  0  3  0  0  0  0  0  0
   53.7290   87.1850   20.8140 C   0  0  0  0  0  3  0  0  0  0  0  0
   56.9170   89.0360   20.5990 O   0  0  0  0  0  0  0  0  0  0  0  0
   56.6190   90.2810   20.0180 C   0  0  0  0  0  2  0  0  0  0  0  0
   56.0370   91.1400   21.1560 C   0  0  0  0  0  1  0  0  0  0  0  0
   53.1280   83.9970   19.9080 C   0  0  0  0  0  0  0  0  0  0  0  0
   53.8890   82.8810   20.1670 C   0  0  0  0  0  3  0  0  0  0  0  0
   54.6810   82.3270   19.1840 C   0  0  0  0  0  3  0  0  0  0  0  0
   54.7220   82.8860   17.9210 C   0  0  0  0  0  0  0  0  0  0  0  0
   55.8260   82.1100   16.5940 Br  0  0  0  0  0  0  0  0  0  0  0  0
   53.9670   84.0000   17.6490 C   0  0  0  0  0  3  0  0  0  0  0  0
   53.1690   84.5470   18.6620 C   0  0  0  0  0  3  0  0  0  0  0  0
   51.2550   85.4080   20.4910 O   0  0  0  0  0  0  0  0  0  0  0  0
   51.3480   86.3720   20.4740 H   0  0  0  0  0  0  0  0  0  0  0  0
  1 28  1  6  0  0  0
  1 10  1  0  0  0  0
  1  2  1  0  0  0  0
  2 11  1  0  0  0  0
  2  3  1  0  0  0  0
  3  4  2  0  0  0  0
  4  5  1  0  0  0  0
  6  5  1  0  0  0  0
  7  6  1  0  0  0  0
  8  7  1  0  0  0  0
  9  8  1  0  0  0  0
  9  3  1  0  0  0  0
 10  9  1  0  0  0  0
 12 13  1  0  0  0  0
 12  2  1  0  0  0  0
 14 13  2  0  0  0  0
 15 14  1  0  0  0  0
 16 17  1  0  0  0  0
 16 15  2  0  0  0  0
 17 12  2  0  0  0  0
 18 15  1  0  0  0  0
 19 18  1  0  0  0  0
 19 20  1  0  0  0  0
 21 22  1  0  0  0  0
 21  1  1  0  0  0  0
 23 22  2  0  0  0  0
 24 23  1  0  0  0  0
 25 24  1  0  0  0  0
 26 24  2  0  0  0  0
 26 27  1  0  0  0  0
 27 21  2  0  0  0  0
 29 28  1  0  0  0  0
M  END
>  <Pose>
1

>  <Score>
-6.634

$$$$
