MODEL 1
REMARK VINA RESULT:    -7.528      0.000      0.000
REMARK INTER + INTRA:          -9.409
REMARK INTER:                  -9.068
REMARK INTRA:                  -0.341
REMARK UNBOUND:                -0.341
REMARK  4 active torsions:
REMARK  status: ('A' for Active; 'I' for Inactive)
REMARK    1  A    between atoms: C_5  and  C_8 
REMARK    2  A    between atoms: C_8  and  O_26 
REMARK    3  A    between atoms: N_16  and  C_18 
REMARK    4  A    between atoms: C_19  and  O_24 
ROOT
ATOM      1  C   UNK d   1      53.361  86.064  20.304  0.00  0.00     0.189 C 
ATOM      2  N   UNK d   1      54.605  86.743  20.638  0.00  0.00    -0.324 N 
ATOM      3  C   UNK d   1      55.884  86.046  20.719  0.00  0.00     0.128 C 
ATOM      4  C   UNK d   1      56.951  86.851  21.364  0.00  0.00     0.020 C 
ATOM      5  C   UNK d   1      56.561  87.433  22.699  0.00  0.00     0.005 C 
ATOM      6  C   UNK d   1      56.110  88.854  22.420  0.00  0.00     0.031 C 
ATOM      7  C   UNK d   1      54.935  88.988  21.610  0.00  0.00     0.030 C 
ATOM      8  C   UNK d   1      54.285  88.083  20.843  0.00  0.00     0.208 C 
ATOM      9  N   UNK d   1      53.140  88.449  20.109  0.00  0.00     0.011 N 
ATOM     10  C   UNK d   1      52.613  87.188  19.677  0.00  0.00     0.316 C 
ATOM     11  H   UNK d   1      52.408  88.944  20.669  0.00  0.00     0.295 HD
ENDROOT
BRANCH   1  12
ATOM     12  C   UNK d   1      53.617  84.933  19.388  0.00  0.00    -0.001 A 
ATOM     13  C   UNK d   1      53.478  85.150  18.015  0.00  0.00     0.013 A 
ATOM     14  C   UNK d   1      53.689  84.054  17.176  0.00  0.00     0.020 A 
ATOM     15  C   UNK d   1      54.016  82.824  17.697  0.00  0.00     0.011 A 
ATOM     16 Br   UNK d   1      54.298  81.347  16.511  0.00  0.00    -0.051 Br
ATOM     17  C   UNK d   1      54.147  82.648  19.065  0.00  0.00     0.020 A 
ATOM     18  C   UNK d   1      53.941  83.722  19.913  0.00  0.00     0.013 A 
ENDBRANCH   1  12
BRANCH   1  19
ATOM     19  O   UNK d   1      52.816  85.607  21.475  0.00  0.00    -0.365 OA
ATOM     20  H   UNK d   1      53.439  85.105  22.041  0.00  0.00     0.213 HD
ENDBRANCH   1  19
BRANCH   9  21
ATOM     21  C   UNK d   1      53.605  89.248  19.021  0.00  0.00     0.175 A 
ATOM     22  C   UNK d   1      53.585  90.630  19.096  0.00  0.00     0.103 A 
ATOM     23  C   UNK d   1      53.986  91.314  17.956  0.00  0.00     0.039 A 
ATOM     24  C   UNK d   1      54.391  90.702  16.784  0.00  0.00     0.003 A 
ATOM     25  C   UNK d   1      54.395  89.291  16.756  0.00  0.00     0.002 A 
ATOM     26  C   UNK d   1      54.006  88.639  17.870  0.00  0.00     0.041 A 
BRANCH  22  27
ATOM     27  O   UNK d   1      53.190  91.245  20.244  0.00  0.00    -0.354 OA
ATOM     28  C   UNK d   1      53.979  92.228  20.863  0.00  0.00     0.210 C 
ENDBRANCH  22  27
ENDBRANCH   9  21
TORSDOF 4
ENDMDL
