MODEL 1
REMARK VINA RESULT:    -7.100      0.000      0.000
REMARK INTER + INTRA:          -8.972
REMARK INTER:                  -8.552
REMARK INTRA:                  -0.420
REMARK UNBOUND:                -0.420
REMARK  4 active torsions:
REMARK  status: ('A' for Active; 'I' for Inactive)
REMARK    1  A    between atoms: C_5  and  C_8 
REMARK    2  A    between atoms: C_8  and  O_26 
REMARK    3  A    between atoms: N_16  and  C_18 
REMARK    4  A    between atoms: C_21  and  O_24 
ROOT
ATOM      1  C   UNK d   1      53.241  84.386  20.846  0.00  0.00     0.189 C 
ATOM      2  N   UNK d   1      53.479  85.579  20.099  0.00  0.00    -0.324 N 
ATOM      3  C   UNK d   1      54.498  86.561  20.308  0.00  0.00     0.128 C 
ATOM      4  C   UNK d   1      54.092  87.983  20.271  0.00  0.00     0.020 C 
ATOM      5  C   UNK d   1      52.667  88.277  19.969  0.00  0.00     0.005 C 
ATOM      6  C   UNK d   1      52.323  88.026  18.501  0.00  0.00     0.031 C 
ATOM      7  C   UNK d   1      51.974  86.576  18.387  0.00  0.00     0.030 C 
ATOM      8  C   UNK d   1      52.462  85.549  19.061  0.00  0.00     0.208 C 
ATOM      9  N   UNK d   1      52.039  84.203  18.880  0.00  0.00     0.009 N 
ATOM     10  C   UNK d   1      51.978  83.764  20.242  0.00  0.00     0.316 C 
ATOM     11  H   UNK d   1      51.093  84.223  18.420  0.00  0.00     0.295 HD
ENDROOT
BRANCH   1  12
ATOM     12  C   UNK d   1      52.946  84.518  22.271  0.00  0.00    -0.001 A 
ATOM     13  C   UNK d   1      53.718  85.071  23.238  0.00  0.00     0.013 A 
ATOM     14  C   UNK d   1      53.311  85.135  24.565  0.00  0.00     0.020 A 
ATOM     15  C   UNK d   1      52.086  84.627  24.940  0.00  0.00     0.011 A 
ATOM     16 Br   UNK d   1      51.498  84.706  26.759  0.00  0.00    -0.051 Br
ATOM     17  C   UNK d   1      51.300  84.066  23.962  0.00  0.00     0.020 A 
ATOM     18  C   UNK d   1      51.690  83.998  22.649  0.00  0.00     0.013 A 
ENDBRANCH   1  12
BRANCH   1  19
ATOM     19  O   UNK d   1      54.313  83.477  20.758  0.00  0.00    -0.365 OA
ATOM     20  H   UNK d   1      53.895  82.613  20.510  0.00  0.00     0.213 HD
ENDBRANCH   1  19
BRANCH   9  21
ATOM     21  C   UNK d   1      52.994  83.520  18.110  0.00  0.00     0.142 A 
ATOM     22  C   UNK d   1      53.051  82.114  18.115  0.00  0.00     0.040 A 
ATOM     23  C   UNK d   1      53.973  81.419  17.379  0.00  0.00     0.039 A 
ATOM     24  C   UNK d   1      54.893  82.078  16.592  0.00  0.00     0.068 A 
ATOM     25  C   UNK d   1      54.856  83.448  16.570  0.00  0.00     0.039 A 
ATOM     26  C   UNK d   1      53.928  84.148  17.313  0.00  0.00     0.040 A 
BRANCH  24  27
ATOM     27  O   UNK d   1      55.836  81.355  15.838  0.00  0.00    -0.356 OA
ATOM     28  C   UNK d   1      55.782  79.953  15.805  0.00  0.00     0.210 C 
ENDBRANCH  24  27
ENDBRANCH   9  21
TORSDOF 4
ENDMDL
