/Users/jonathanwahrer/Desktop/Msc/3_Semester/Drug_Design_Praktikum/waehrer_HTS_screening/HTS_experiment/out/docking_results/vina_output/3npc/0834_docked.pdbqt
 OpenBabel03192219543D

 28 31  0  0  1  0  0  0  0  0999 V2000
   53.2410   84.3860   20.8460 C   0  0  2  0  0  0  0  0  0  0  0  0
   53.4790   85.5790   20.0990 N   0  0  0  0  0  0  0  0  0  0  0  0
   54.4980   86.5610   20.3080 C   0  0  0  0  0  3  0  0  0  0  0  0
   54.0920   87.9830   20.2710 C   0  0  0  0  0  3  0  0  0  0  0  0
   52.6670   88.2770   19.9690 C   0  0  0  0  0  2  0  0  0  0  0  0
   52.3230   88.0260   18.5010 C   0  0  0  0  0  2  0  0  0  0  0  0
   51.9740   86.5760   18.3870 C   0  0  0  0  0  3  0  0  0  0  0  0
   52.4620   85.5490   19.0610 C   0  0  0  0  0  0  0  0  0  0  0  0
   52.0390   84.2030   18.8800 N   0  0  0  0  0  4  0  0  0  0  0  0
   51.9780   83.7640   20.2420 C   0  0  0  0  0  2  0  0  0  0  0  0
   51.0930   84.2230   18.4200 H   0  0  0  0  0  0  0  0  0  0  0  0
   52.9460   84.5180   22.2710 C   0  0  0  0  0  0  0  0  0  0  0  0
   53.7180   85.0710   23.2380 C   0  0  0  0  0  3  0  0  0  0  0  0
   53.3110   85.1350   24.5650 C   0  0  0  0  0  3  0  0  0  0  0  0
   52.0860   84.6270   24.9400 C   0  0  0  0  0  0  0  0  0  0  0  0
   51.4980   84.7060   26.7590 Br  0  0  0  0  0  0  0  0  0  0  0  0
   51.3000   84.0660   23.9620 C   0  0  0  0  0  3  0  0  0  0  0  0
   51.6900   83.9980   22.6490 C   0  0  0  0  0  3  0  0  0  0  0  0
   54.3130   83.4770   20.7580 O   0  0  0  0  0  0  0  0  0  0  0  0
   53.8950   82.6130   20.5100 H   0  0  0  0  0  0  0  0  0  0  0  0
   52.9940   83.5200   18.1100 C   0  0  0  0  0  0  0  0  0  0  0  0
   53.0510   82.1140   18.1150 C   0  0  0  0  0  3  0  0  0  0  0  0
   53.9730   81.4190   17.3790 C   0  0  0  0  0  3  0  0  0  0  0  0
   54.8930   82.0780   16.5920 C   0  0  0  0  0  0  0  0  0  0  0  0
   54.8560   83.4480   16.5700 C   0  0  0  0  0  3  0  0  0  0  0  0
   53.9280   84.1480   17.3130 C   0  0  0  0  0  3  0  0  0  0  0  0
   55.8360   81.3550   15.8380 O   0  0  0  0  0  0  0  0  0  0  0  0
   55.7820   79.9530   15.8050 C   0  0  0  0  0  1  0  0  0  0  0  0
  1 19  1  6  0  0  0
  1 12  1  0  0  0  0
  2  3  1  0  0  0  0
  2  1  1  0  0  0  0
  4  3  2  0  0  0  0
  5  4  1  0  0  0  0
  6  5  1  0  0  0  0
  7  6  1  0  0  0  0
  7  8  2  0  0  0  0
  8  2  1  0  0  0  0
  9  8  1  0  0  0  0
  9 10  1  0  0  0  0
 10  1  1  0  0  0  0
 11  9  1  0  0  0  0
 12 18  2  0  0  0  0
 12 13  1  0  0  0  0
 13 14  2  0  0  0  0
 14 15  1  0  0  0  0
 15 16  1  0  0  0  0
 17 15  2  0  0  0  0
 18 17  1  0  0  0  0
 20 19  1  0  0  0  0
 21 22  1  0  0  0  0
 21  9  1  0  0  0  0
 23 22  2  0  0  0  0
 24 23  1  0  0  0  0
 25 24  2  0  0  0  0
 25 26  1  0  0  0  0
 26 21  2  0  0  0  0
 27 24  1  0  0  0  0
 28 27  1  0  0  0  0
M  END
>  <Pose>
1

>  <Score>
-7.100

$$$$
