MODEL 1
REMARK VINA RESULT:    -7.184      0.000      0.000
REMARK INTER + INTRA:          -8.660
REMARK INTER:                  -8.654
REMARK INTRA:                  -0.006
REMARK UNBOUND:                -0.006
REMARK  4 active torsions:
REMARK  status: ('A' for Active; 'I' for Inactive)
REMARK    1  A    between atoms: C_5  and  C_8 
REMARK    2  A    between atoms: C_8  and  O_25 
REMARK    3  A    between atoms: N_15  and  C_17 
REMARK    4  A    between atoms: C_18  and  O_23 
ROOT
ATOM      1  C   UNK d   1      54.558  85.944  20.829  0.00  0.00     0.189 C 
ATOM      2  N   UNK d   1      53.791  87.027  20.252  0.00  0.00    -0.324 N 
ATOM      3  C   UNK d   1      53.915  88.460  20.090  0.00  0.00     0.128 C 
ATOM      4  C   UNK d   1      53.318  88.942  18.784  0.00  0.00     0.024 C 
ATOM      5  C   UNK d   1      51.882  88.539  18.749  0.00  0.00     0.032 C 
ATOM      6  C   UNK d   1      51.711  87.102  19.046  0.00  0.00     0.030 C 
ATOM      7  C   UNK d   1      52.609  86.405  19.749  0.00  0.00     0.208 C 
ATOM      8  N   UNK d   1      52.552  85.046  20.120  0.00  0.00     0.011 N 
ATOM      9  C   UNK d   1      53.482  84.992  21.267  0.00  0.00     0.316 C 
ATOM     10  H   UNK d   1      51.613  84.815  20.584  0.00  0.00     0.295 HD
ENDROOT
BRANCH   1  11
ATOM     11  C   UNK d   1      55.419  86.374  21.957  0.00  0.00    -0.001 A 
ATOM     12  C   UNK d   1      56.774  86.535  21.765  0.00  0.00     0.013 A 
ATOM     13  C   UNK d   1      57.634  86.947  22.782  0.00  0.00     0.020 A 
ATOM     14  C   UNK d   1      57.110  87.203  24.029  0.00  0.00     0.011 A 
ATOM     15 Br   UNK d   1      58.284  87.762  25.443  0.00  0.00    -0.051 Br
ATOM     16  C   UNK d   1      55.757  87.045  24.237  0.00  0.00     0.020 A 
ATOM     17  C   UNK d   1      54.918  86.637  23.218  0.00  0.00     0.013 A 
ENDBRANCH   1  11
BRANCH   1  18
ATOM     18  O   UNK d   1      55.355  85.292  19.894  0.00  0.00    -0.365 OA
ATOM     19  H   UNK d   1      54.744  84.798  19.296  0.00  0.00     0.213 HD
ENDBRANCH   1  18
BRANCH   8  20
ATOM     20  C   UNK d   1      52.893  84.108  19.151  0.00  0.00     0.175 A 
ATOM     21  C   UNK d   1      52.912  82.754  19.377  0.00  0.00     0.103 A 
ATOM     22  C   UNK d   1      53.284  81.869  18.362  0.00  0.00     0.039 A 
ATOM     23  C   UNK d   1      53.637  82.331  17.120  0.00  0.00     0.003 A 
ATOM     24  C   UNK d   1      53.618  83.688  16.884  0.00  0.00     0.002 A 
ATOM     25  C   UNK d   1      53.252  84.552  17.885  0.00  0.00     0.041 A 
BRANCH  21  26
ATOM     26  O   UNK d   1      52.570  82.203  20.595  0.00  0.00    -0.354 OA
ATOM     27  C   UNK d   1      53.508  81.542  21.377  0.00  0.00     0.210 C 
ENDBRANCH  21  26
ENDBRANCH   8  20
TORSDOF 4
ENDMDL
