MODEL 1
REMARK VINA RESULT:    -7.060      0.000      0.000
REMARK INTER + INTRA:          -9.153
REMARK INTER:                  -8.505
REMARK INTRA:                  -0.648
REMARK UNBOUND:                -0.648
REMARK  4 active torsions:
REMARK  status: ('A' for Active; 'I' for Inactive)
REMARK    1  A    between atoms: C_5  and  C_8 
REMARK    2  A    between atoms: C_8  and  O_25 
REMARK    3  A    between atoms: N_15  and  C_17 
REMARK    4  A    between atoms: C_20  and  O_23 
ROOT
ATOM      1  C   UNK d   1      54.033  83.163  19.305  0.00  0.00     0.189 C 
ATOM      2  N   UNK d   1      52.899  83.398  20.163  0.00  0.00    -0.324 N 
ATOM      3  C   UNK d   1      51.535  82.894  20.250  0.00  0.00     0.128 C 
ATOM      4  C   UNK d   1      50.963  82.874  21.614  0.00  0.00     0.024 C 
ATOM      5  C   UNK d   1      51.906  83.261  22.726  0.00  0.00     0.032 C 
ATOM      6  C   UNK d   1      52.852  84.305  22.343  0.00  0.00     0.030 C 
ATOM      7  C   UNK d   1      53.324  84.365  21.111  0.00  0.00     0.208 C 
ATOM      8  N   UNK d   1      54.233  85.247  20.461  0.00  0.00     0.009 N 
ATOM      9  C   UNK d   1      54.793  84.466  19.402  0.00  0.00     0.316 C 
ATOM     10  H   UNK d   1      54.974  85.493  21.171  0.00  0.00     0.295 HD
ENDROOT
BRANCH   1  11
ATOM     11  C   UNK d   1      53.699  82.795  17.931  0.00  0.00    -0.001 A 
ATOM     12  C   UNK d   1      53.405  81.485  17.612  0.00  0.00     0.013 A 
ATOM     13  C   UNK d   1      53.083  81.080  16.333  0.00  0.00     0.020 A 
ATOM     14  C   UNK d   1      53.039  81.987  15.291  0.00  0.00     0.011 A 
ATOM     15 Br   UNK d   1      52.600  81.451  13.513  0.00  0.00    -0.051 Br
ATOM     16  C   UNK d   1      53.330  83.300  15.592  0.00  0.00     0.020 A 
ATOM     17  C   UNK d   1      53.651  83.698  16.876  0.00  0.00     0.013 A 
ENDBRANCH   1  11
BRANCH   1  18
ATOM     18  O   UNK d   1      54.772  82.107  19.877  0.00  0.00    -0.365 OA
ATOM     19  H   UNK d   1      54.440  81.282  19.445  0.00  0.00     0.213 HD
ENDBRANCH   1  18
BRANCH   8  20
ATOM     20  C   UNK d   1      53.552  86.391  20.068  0.00  0.00     0.142 A 
ATOM     21  C   UNK d   1      52.357  86.302  19.394  0.00  0.00     0.040 A 
ATOM     22  C   UNK d   1      51.670  87.461  18.997  0.00  0.00     0.039 A 
ATOM     23  C   UNK d   1      52.159  88.710  19.262  0.00  0.00     0.068 A 
ATOM     24  C   UNK d   1      53.383  88.798  19.951  0.00  0.00     0.039 A 
ATOM     25  C   UNK d   1      54.032  87.641  20.328  0.00  0.00     0.040 A 
BRANCH  23  26
ATOM     26  O   UNK d   1      51.532  89.900  18.898  0.00  0.00    -0.356 OA
ATOM     27  C   UNK d   1      51.940  91.186  19.236  0.00  0.00     0.210 C 
ENDBRANCH  23  26
ENDBRANCH   8  20
TORSDOF 4
ENDMDL
