/Users/jonathanwahrer/Desktop/Msc/3_Semester/Drug_Design_Praktikum/waehrer_HTS_screening/HTS_experiment/out/docking_results/vina_output/3npc/0847_docked.pdbqt
 OpenBabel03192219553D

 31 34  0  0  1  0  0  0  0  0999 V2000
   55.3060   91.6740   21.2140 C   0  0  0  0  0  0  0  0  0  0  0  0
   54.3380   91.1410   20.4500 N   0  0  0  0  0  0  0  0  0  0  0  0
   54.7700   89.9460   20.0060 C   0  0  1  0  0  3  0  0  0  0  0  0
   56.0320   89.7330   20.5060 N   0  0  0  0  0  0  0  0  0  0  0  0
   56.3200   90.8000   21.2310 N   0  0  0  0  0  0  0  0  0  0  0  0
   54.1560   88.9230   19.1540 C   0  0  0  0  0  2  0  0  0  0  0  0
   53.2460   89.4530   18.0790 C   0  0  0  0  0  2  0  0  0  0  0  0
   52.0680   90.2060   18.6060 C   0  0  0  0  0  2  0  0  0  0  0  0
   52.5190   91.6290   18.8410 C   0  0  0  0  0  2  0  0  0  0  0  0
   53.1020   91.8130   20.2210 C   0  0  0  0  0  2  0  0  0  0  0  0
   56.8660   88.6080   20.3560 C   0  0  0  0  0  3  0  0  0  0  0  0
   56.8480   87.5970   21.3790 C   0  0  0  0  0  0  0  0  0  0  0  0
   57.7100   86.6090   21.1360 O   0  0  0  0  0  1  0  0  0  0  0  0
   56.1150   87.4120   22.6000 C   0  0  0  0  0  0  0  0  0  0  0  0
   55.2070   86.3400   22.7350 C   0  0  0  0  0  3  0  0  0  0  0  0
   54.4780   86.1210   23.8740 C   0  0  0  0  0  3  0  0  0  0  0  0
   54.6000   86.9520   24.9590 C   0  0  0  0  0  0  0  0  0  0  0  0
   55.4700   88.0040   24.8700 C   0  0  0  0  0  3  0  0  0  0  0  0
   56.2130   88.2170   23.6930 C   0  0  0  0  0  3  0  0  0  0  0  0
   53.8590   86.7270   26.1170 O   0  0  0  0  0  0  0  0  0  0  0  0
   53.8330   85.4810   26.7680 C   0  0  0  0  0  1  0  0  0  0  0  0
   55.3400   92.9820   21.9440 C   0  0  0  0  0  2  0  0  0  0  0  0
   55.0450   92.8400   23.3560 N   0  0  0  0  0  0  0  0  0  0  0  0
   54.8220   91.9070   23.7670 H   0  0  0  0  0  0  0  0  0  0  0  0
   55.0400   93.9500   24.2610 C   0  0  0  0  0  0  0  0  0  0  0  0
   56.2120   94.6070   24.5680 C   0  0  0  0  0  3  0  0  0  0  0  0
   56.2020   95.6700   25.4300 C   0  0  0  0  0  3  0  0  0  0  0  0
   55.0070   96.0940   26.0040 C   0  0  0  0  0  0  0  0  0  0  0  0
   54.9920   97.5710   27.2000 Br  0  0  0  0  0  0  0  0  0  0  0  0
   53.8200   95.4480   25.7090 C   0  0  0  0  0  3  0  0  0  0  0  0
   53.8650   94.3840   24.8390 C   0  0  0  0  0  3  0  0  0  0  0  0
  1  5  2  0  0  0  0
  1 22  1  0  0  0  0
  2  1  1  0  0  0  0
  3  6  1  1  0  0  0
  3  2  1  0  0  0  0
  3  4  1  0  0  0  0
  4  5  1  0  0  0  0
  7  8  1  0  0  0  0
  7  6  1  0  0  0  0
  8  9  1  0  0  0  0
  9 10  1  0  0  0  0
 10  2  1  0  0  0  0
 11  4  1  0  0  0  0
 11 12  2  0  0  0  0
 12 14  1  0  0  0  0
 13 12  1  0  0  0  0
 14 15  2  0  0  0  0
 14 19  1  0  0  0  0
 15 16  1  0  0  0  0
 16 17  2  0  0  0  0
 17 20  1  0  0  0  0
 18 17  1  0  0  0  0
 19 18  2  0  0  0  0
 20 21  1  0  0  0  0
 22 23  1  0  0  0  0
 23 24  1  0  0  0  0
 23 25  1  0  0  0  0
 25 26  2  0  0  0  0
 25 31  1  0  0  0  0
 26 27  1  0  0  0  0
 27 28  2  0  0  0  0
 28 29  1  0  0  0  0
 30 28  1  0  0  0  0
 31 30  2  0  0  0  0
M  END
>  <Pose>
1

>  <Score>
-9.351

$$$$
