MODEL 1
REMARK VINA RESULT:    -9.351      0.000      0.000
REMARK INTER + INTRA:         -13.715
REMARK INTER:                 -12.632
REMARK INTRA:                  -1.083
REMARK UNBOUND:                -1.083
REMARK  6 active torsions:
REMARK  status: ('A' for Active; 'I' for Inactive)
REMARK    1  A    between atoms: C_5  and  N_8 
REMARK    2  A    between atoms: N_8  and  C_9 
REMARK    3  A    between atoms: C_9  and  C_10 
REMARK    4  A    between atoms: N_13  and  C_15 
REMARK    5  A    between atoms: C_16  and  C_18 
REMARK    6  A    between atoms: C_21  and  O_24 
ROOT
ATOM      1  C   UNK d   1      55.306  91.674  21.214  0.00  0.00     0.145 A 
ATOM      2  N   UNK d   1      54.338  91.141  20.450  0.00  0.00    -0.321 N 
ATOM      3  C   UNK d   1      54.770  89.946  20.006  0.00  0.00     0.104 A 
ATOM      4  N   UNK d   1      56.032  89.733  20.506  0.00  0.00    -0.250 N 
ATOM      5  N   UNK d   1      56.320  90.800  21.231  0.00  0.00    -0.155 NA
ATOM      6  C   UNK d   1      54.156  88.923  19.154  0.00  0.00     0.078 C 
ATOM      7  C   UNK d   1      53.246  89.453  18.079  0.00  0.00     0.008 C 
ATOM      8  C   UNK d   1      52.068  90.206  18.606  0.00  0.00     0.002 C 
ATOM      9  C   UNK d   1      52.519  91.629  18.841  0.00  0.00     0.020 C 
ATOM     10  C   UNK d   1      53.102  91.813  20.221  0.00  0.00     0.132 C 
ENDROOT
BRANCH   4  11
ATOM     11  C   UNK d   1      56.866  88.608  20.356  0.00  0.00     0.221 C 
ATOM     12  C   UNK d   1      56.848  87.597  21.379  0.00  0.00     0.114 C 
ATOM     13  O   UNK d   1      57.710  86.609  21.136  0.00  0.00    -0.194 OA
BRANCH  12  14
ATOM     14  C   UNK d   1      56.115  87.412  22.600  0.00  0.00    -0.002 A 
ATOM     15  C   UNK d   1      55.207  86.340  22.735  0.00  0.00     0.017 A 
ATOM     16  C   UNK d   1      54.478  86.121  23.874  0.00  0.00     0.037 A 
ATOM     17  C   UNK d   1      54.600  86.952  24.959  0.00  0.00     0.068 A 
ATOM     18  C   UNK d   1      55.470  88.004  24.870  0.00  0.00     0.037 A 
ATOM     19  C   UNK d   1      56.213  88.217  23.693  0.00  0.00     0.017 A 
BRANCH  17  20
ATOM     20  O   UNK d   1      53.859  86.727  26.117  0.00  0.00    -0.356 OA
ATOM     21  C   UNK d   1      53.833  85.481  26.768  0.00  0.00     0.210 C 
ENDBRANCH  17  20
ENDBRANCH  12  14
ENDBRANCH   4  11
BRANCH   1  22
ATOM     22  C   UNK d   1      55.340  92.982  21.944  0.00  0.00     0.200 C 
BRANCH  22  23
ATOM     23  N   UNK d   1      55.045  92.840  23.356  0.00  0.00    -0.383 N 
ATOM     24  H   UNK d   1      54.822  91.907  23.767  0.00  0.00     0.160 HD
BRANCH  23  25
ATOM     25  C   UNK d   1      55.040  93.950  24.261  0.00  0.00     0.028 A 
ATOM     26  C   UNK d   1      56.212  94.607  24.568  0.00  0.00     0.030 A 
ATOM     27  C   UNK d   1      56.202  95.670  25.430  0.00  0.00     0.021 A 
ATOM     28  C   UNK d   1      55.007  96.094  26.004  0.00  0.00     0.011 A 
ATOM     29 Br   UNK d   1      54.992  97.571  27.200  0.00  0.00    -0.051 Br
ATOM     30  C   UNK d   1      53.820  95.448  25.709  0.00  0.00     0.021 A 
ATOM     31  C   UNK d   1      53.865  94.384  24.839  0.00  0.00     0.030 A 
ENDBRANCH  23  25
ENDBRANCH  22  23
ENDBRANCH   1  22
TORSDOF 6
ENDMDL
