MODEL 1
REMARK VINA RESULT:    -6.197      0.000      0.000
REMARK INTER + INTRA:          -7.892
REMARK INTER:                  -7.827
REMARK INTRA:                  -0.065
REMARK UNBOUND:                -0.065
REMARK  5 active torsions:
REMARK  status: ('A' for Active; 'I' for Inactive)
REMARK    1  A    between atoms: C_5  and  N_8 
REMARK    2  A    between atoms: C_9  and  O_18 
REMARK    3  A    between atoms: C_9  and  C_19 
REMARK    4  A    between atoms: C_22  and  O_25 
REMARK    5  A    between atoms: O_25  and  C_26 
ROOT
ATOM      1  N   UNK d   1      52.079  84.503  28.377  0.00  0.00     0.042 N 
ATOM      2  C   UNK d   1      51.300  84.736  27.198  0.00  0.00     0.283 C 
ATOM      3  C   UNK d   1      50.618  83.375  27.062  0.00  0.00     0.200 C 
ATOM      4  N   UNK d   1      51.687  82.434  27.431  0.00  0.00    -0.356 N 
ATOM      5  C   UNK d   1      51.614  81.065  27.062  0.00  0.00     0.124 C 
ATOM      6  C   UNK d   1      52.802  80.239  27.453  0.00  0.00     0.020 C 
ATOM      7  C   UNK d   1      54.060  80.936  27.012  0.00  0.00     0.005 C 
ATOM      8  C   UNK d   1      54.598  81.624  28.275  0.00  0.00     0.031 C 
ATOM      9  C   UNK d   1      53.873  82.897  28.460  0.00  0.00     0.030 C 
ATOM     10  C   UNK d   1      52.646  83.228  28.128  0.00  0.00     0.210 C 
ATOM     11  H   UNK d   1      52.812  85.279  28.419  0.00  0.00     0.299 HD
ENDROOT
BRANCH   2  12
ATOM     12  O   UNK d   1      50.467  85.809  27.194  0.00  0.00    -0.359 OA
ATOM     13  H   UNK d   1      50.929  86.662  27.097  0.00  0.00     0.213 HD
ENDBRANCH   2  12
BRANCH   2  14
ATOM     14  C   UNK d   1      52.154  84.863  25.982  0.00  0.00     0.007 A 
ATOM     15  C   UNK d   1      51.898  84.276  24.779  0.00  0.00     0.015 A 
ATOM     16  C   UNK d   1      52.745  84.442  23.663  0.00  0.00     0.037 A 
ATOM     17  C   UNK d   1      53.878  85.215  23.749  0.00  0.00     0.068 A 
ATOM     18  C   UNK d   1      54.147  85.811  24.957  0.00  0.00     0.037 A 
ATOM     19  C   UNK d   1      53.318  85.645  26.043  0.00  0.00     0.015 A 
BRANCH  17  20
ATOM     20  O   UNK d   1      54.726  85.391  22.643  0.00  0.00    -0.352 OA
BRANCH  20  21
ATOM     21  C   UNK d   1      55.180  86.667  22.258  0.00  0.00     0.171 C 
ATOM     22  C   UNK d   1      56.653  86.699  21.998  0.00  0.00     0.034 C 
ENDBRANCH  20  21
ENDBRANCH  17  20
ENDBRANCH   2  14
BRANCH   1  23
ATOM     23  C   UNK d   1      51.437  84.545  29.596  0.00  0.00     0.146 A 
ATOM     24  C   UNK d   1      51.949  85.351  30.611  0.00  0.00     0.039 A 
ATOM     25  C   UNK d   1      51.338  85.458  31.851  0.00  0.00     0.021 A 
ATOM     26  C   UNK d   1      50.183  84.761  32.129  0.00  0.00     0.011 A 
ATOM     27 Br   UNK d   1      49.312  84.911  33.830  0.00  0.00    -0.051 Br
ATOM     28  C   UNK d   1      49.659  83.965  31.159  0.00  0.00     0.021 A 
ATOM     29  C   UNK d   1      50.295  83.876  29.923  0.00  0.00     0.039 A 
ENDBRANCH   1  23
TORSDOF 5
ENDMDL
