/Users/jonathanwahrer/Desktop/Msc/3_Semester/Drug_Design_Praktikum/waehrer_HTS_screening/HTS_experiment/out/docking_results/vina_output/3npc/0861_docked.pdbqt
 OpenBabel03192219563D

 32 35  0  0  1  0  0  0  0  0999 V2000
   50.2510   84.9970   28.7180 Br  0  0  0  0  0  0  0  0  0  0  0  0
   51.9500   84.1420   28.4890 C   0  0  0  0  0  0  0  0  0  0  0  0
   52.6860   84.3750   27.3510 C   0  0  0  0  0  0  0  0  0  0  0  0
   53.9360   83.7680   27.1440 C   0  0  0  0  0  0  0  0  0  0  0  0
   54.3840   82.9290   28.1410 C   0  0  0  0  0  3  0  0  0  0  0  0
   53.6660   82.6780   29.2910 C   0  0  0  0  0  0  0  0  0  0  0  0
   52.4440   83.2850   29.4710 C   0  0  0  0  0  0  0  0  0  0  0  0
   51.5970   83.0790   30.6740 C   0  0  0  0  0  1  0  0  0  0  0  0
   54.3120   81.5110   30.6550 Br  0  0  0  0  0  0  0  0  0  0  0  0
   54.6750   84.0400   25.9290 C   0  0  0  0  0  0  0  0  0  0  0  0
   55.8190   83.5940   25.7850 O   0  0  0  0  0  0  0  0  0  0  0  0
   54.0530   84.8510   24.8680 C   0  0  1  0  0  0  0  0  0  0  0  0
   53.1620   85.8670   25.5470 C   0  0  0  0  0  2  0  0  0  0  0  0
   52.2000   85.2300   26.3670 O   0  0  0  0  0  0  0  0  0  0  0  0
   55.0430   85.5070   23.9530 C   0  0  0  0  0  2  0  0  0  0  0  0
   54.8770   86.8950   23.7530 N   0  0  0  0  0  4  0  0  0  0  0  0
   55.8510   87.6200   24.5150 C   0  0  0  0  0  2  0  0  0  0  0  0
   57.2480   87.5190   24.0180 C   0  0  2  0  0  3  0  0  0  0  0  0
   57.4420   86.8780   22.6990 C   0  0  0  0  0  2  0  0  0  0  0  0
   58.0490   86.7120   25.0480 C   0  0  0  0  0  1  0  0  0  0  0  0
   56.2780   86.8700   21.7860 C   0  0  0  0  0  2  0  0  0  0  0  0
   54.9930   87.3490   22.3950 C   0  0  0  0  0  2  0  0  0  0  0  0
   53.9300   87.1970   24.0940 H   0  0  0  0  0  0  0  0  0  0  0  0
   53.1710   83.9030   24.0820 C   0  0  0  0  0  2  0  0  0  0  0  0
   52.2840   84.5230   23.1580 N   0  0  0  0  0  4  0  0  0  0  0  0
   50.9440   83.9530   23.2810 C   0  0  0  0  0  2  0  0  0  0  0  0
   50.6440   82.9470   22.2080 C   0  0  1  0  0  3  0  0  0  0  0  0
   51.8560   82.0730   21.9800 C   0  0  0  0  0  2  0  0  0  0  0  0
   49.5440   82.0260   22.7530 C   0  0  0  0  0  1  0  0  0  0  0  0
   52.9340   82.9300   21.3950 C   0  0  0  0  0  2  0  0  0  0  0  0
   52.6660   84.3660   21.7710 C   0  0  0  0  0  2  0  0  0  0  0  0
   52.1920   85.5220   23.3580 H   0  0  0  0  0  0  0  0  0  0  0  0
  2  1  1  0  0  0  0
  2  7  1  0  0  0  0
  3  2  2  0  0  0  0
  4  3  1  0  0  0  0
  4  5  2  0  0  0  0
  5  6  1  0  0  0  0
  6  7  2  0  0  0  0
  6  9  1  0  0  0  0
  7  8  1  0  0  0  0
 10  4  1  0  0  0  0
 11 10  2  0  0  0  0
 12 15  1  6  0  0  0
 12 13  1  0  0  0  0
 12 10  1  0  0  0  0
 13 14  1  0  0  0  0
 14  3  1  0  0  0  0
 16 15  1  0  0  0  0
 16 23  1  0  0  0  0
 16 17  1  0  0  0  0
 18 17  1  0  0  0  0
 18 20  1  1  0  0  0
 19 18  1  0  0  0  0
 21 22  1  0  0  0  0
 21 19  1  0  0  0  0
 22 16  1  0  0  0  0
 24 12  1  0  0  0  0
 25 26  1  0  0  0  0
 25 32  1  0  0  0  0
 25 24  1  0  0  0  0
 27 29  1  1  0  0  0
 27 26  1  0  0  0  0
 28 27  1  0  0  0  0
 30 31  1  0  0  0  0
 30 28  1  0  0  0  0
 31 25  1  0  0  0  0
M  END
>  <Pose>
1

>  <Score>
-7.459

$$$$
