MODEL 1
REMARK VINA RESULT:    -7.815      0.000      0.000
REMARK INTER + INTRA:         -10.665
REMARK INTER:                  -9.642
REMARK INTRA:                  -1.022
REMARK UNBOUND:                -1.022
REMARK  4 active torsions:
REMARK  status: ('A' for Active; 'I' for Inactive)
REMARK    1  A    between atoms: C_12  and  C_15 
REMARK    2  A    between atoms: C_12  and  C_22 
REMARK    3  A    between atoms: C_15  and  N_16 
REMARK    4  A    between atoms: C_22  and  N_23 
ROOT
ATOM      1 Br   UNK d   1      51.750  88.678  17.843  0.00  0.00    -0.048 Br
ATOM      2  C   UNK d   1      53.035  88.296  19.171  0.00  0.00     0.052 A 
ATOM      3  C   UNK d   1      53.050  87.032  19.707  0.00  0.00     0.100 A 
ATOM      4  C   UNK d   1      53.960  86.630  20.700  0.00  0.00     0.047 A 
ATOM      5  C   UNK d   1      54.895  87.562  21.166  0.00  0.00     0.038 A 
ATOM      6  C   UNK d   1      54.868  88.826  20.620  0.00  0.00     0.019 A 
ATOM      7  C   UNK d   1      53.964  89.201  19.643  0.00  0.00    -0.024 A 
ATOM      8  C   UNK d   1      53.960  90.589  19.068  0.00  0.00     0.051 C 
ATOM      9 Br   UNK d   1      56.143  90.093  21.255  0.00  0.00    -0.051 Br
ATOM     10  C   UNK d   1      53.923  85.282  21.234  0.00  0.00     0.176 C 
ATOM     11  O   UNK d   1      54.264  85.149  22.436  0.00  0.00    -0.291 OA
ATOM     12  C   UNK d   1      53.492  84.205  20.323  0.00  0.00     0.095 C 
ATOM     13  C   UNK d   1      52.067  84.776  19.890  0.00  0.00     0.197 C 
ATOM     14  O   UNK d   1      52.174  86.033  19.324  0.00  0.00    -0.347 OA
ENDROOT
BRANCH  12  15
ATOM     15  C   UNK d   1      53.226  82.907  20.911  0.00  0.00     0.256 C 
BRANCH  15  16
ATOM     16  N   UNK d   1      53.104  82.567  22.248  0.00  0.00    -0.070 N 
ATOM     17  C   UNK d   1      53.475  81.305  22.758  0.00  0.00     0.235 C 
ATOM     18  C   UNK d   1      52.691  80.889  23.996  0.00  0.00     0.028 C 
ATOM     19  C   UNK d   1      51.244  80.671  23.692  0.00  0.00     0.003 C 
ATOM     20  C   UNK d   1      50.835  81.646  22.631  0.00  0.00     0.028 C 
ATOM     21  C   UNK d   1      51.721  82.847  22.693  0.00  0.00     0.235 C 
ATOM     22  H   UNK d   1      53.633  83.293  22.891  0.00  0.00     0.279 HD
ENDBRANCH  15  16
ENDBRANCH  12  15
BRANCH  12  23
ATOM     23  C   UNK d   1      54.343  84.197  19.111  0.00  0.00     0.256 C 
BRANCH  23  24
ATOM     24  N   UNK d   1      54.082  83.316  18.051  0.00  0.00    -0.070 N 
ATOM     25  C   UNK d   1      54.061  84.093  16.803  0.00  0.00     0.235 C 
ATOM     26  C   UNK d   1      53.500  83.295  15.645  0.00  0.00     0.028 C 
ATOM     27  C   UNK d   1      54.502  82.153  15.407  0.00  0.00     0.003 C 
ATOM     28  C   UNK d   1      54.489  81.372  16.701  0.00  0.00     0.028 C 
ATOM     29  C   UNK d   1      55.071  82.282  17.797  0.00  0.00     0.235 C 
ATOM     30  H   UNK d   1      53.172  82.813  18.037  0.00  0.00     0.279 HD
ENDBRANCH  23  24
ENDBRANCH  12  23
TORSDOF 4
ENDMDL
