MODEL 1
REMARK VINA RESULT:    -9.625      0.000      0.000
REMARK INTER + INTRA:         -13.198
REMARK INTER:                 -12.438
REMARK INTRA:                  -0.760
REMARK UNBOUND:                -0.760
REMARK  5 active torsions:
REMARK  status: ('A' for Active; 'I' for Inactive)
REMARK    1  A    between atoms: C_5  and  C_8 
REMARK    2  A    between atoms: N_9  and  N_10 
REMARK    3  A    between atoms: N_10  and  C_11 
REMARK    4  A    between atoms: C_13  and  N_23 
REMARK    5  A    between atoms: C_15  and  N_17 
ROOT
ATOM      1  C   UNK d   1      55.283  90.965  21.698  0.00  0.00     0.774 A 
ATOM      2  N   UNK d   1      54.613  90.358  20.694  0.00  0.00     0.133 NA
ATOM      3  C   UNK d   1      54.399  89.019  20.658  0.00  0.00     0.756 A 
ATOM      4  N   UNK d   1      54.890  88.311  21.677  0.00  0.00     0.131 NA
ATOM      5  C   UNK d   1      55.565  88.847  22.709  0.00  0.00     0.756 A 
ATOM      6  N   UNK d   1      55.743  90.179  22.687  0.00  0.00     0.133 NA
ENDROOT
BRANCH   1   7
ATOM      7  N   UNK d   1      55.469  92.366  21.672  0.00  0.00    -0.105 N 
ATOM      8  H   UNK d   1      55.966  92.795  20.874  0.00  0.00     0.208 HD
BRANCH   7   9
ATOM      9  N   UNK d   1      54.994  93.165  22.703  0.00  0.00    -0.172 NA
ATOM     10  C   UNK d   1      55.746  93.703  23.595  0.00  0.00     0.150 C 
BRANCH  10  11
ATOM     11  C   UNK d   1      55.175  94.531  24.649  0.00  0.00    -0.016 A 
ATOM     12  C   UNK d   1      55.864  95.597  25.205  0.00  0.00     0.035 A 
ATOM     13  C   UNK d   1      55.319  96.378  26.203  0.00  0.00     0.050 A 
ATOM     14  C   UNK d   1      54.054  96.122  26.689  0.00  0.00     0.133 A 
ATOM     15 Br   UNK d   1      56.292  97.841  26.951  0.00  0.00    -0.048 Br
ATOM     16  F   UNK d   1      53.497  96.881  27.673  0.00  0.00    -0.205 F 
ATOM     17  C   UNK d   1      53.359  95.067  26.146  0.00  0.00     0.044 A 
ATOM     18  C   UNK d   1      53.912  94.283  25.142  0.00  0.00     0.016 A 
ENDBRANCH  10  11
ENDBRANCH   7   9
ENDBRANCH   1   7
BRANCH   3  19
ATOM     19  N   UNK d   1      53.687  88.432  19.575  0.00  0.00    -0.209 N 
ATOM     20  C   UNK d   1      53.486  89.070  18.296  0.00  0.00     0.167 C 
ATOM     21  C   UNK d   1      51.971  89.029  18.099  0.00  0.00     0.188 C 
ATOM     22  O   UNK d   1      51.585  87.751  17.931  0.00  0.00    -0.388 OA
ATOM     23  C   UNK d   1      52.043  86.794  18.748  0.00  0.00     0.188 C 
ATOM     24  C   UNK d   1      53.110  87.115  19.717  0.00  0.00     0.167 C 
ENDBRANCH   3  19
BRANCH   5  25
ATOM     25  N   UNK d   1      56.058  88.028  23.760  0.00  0.00    -0.209 N 
ATOM     26  C   UNK d   1      55.724  86.617  23.767  0.00  0.00     0.167 C 
ATOM     27  C   UNK d   1      56.319  85.963  24.994  0.00  0.00     0.188 C 
ATOM     28  O   UNK d   1      57.639  86.247  25.200  0.00  0.00    -0.388 OA
ATOM     29  C   UNK d   1      58.034  87.539  24.984  0.00  0.00     0.188 C 
ATOM     30  C   UNK d   1      56.876  88.512  24.832  0.00  0.00     0.167 C 
ENDBRANCH   5  25
TORSDOF 5
ENDMDL
