/Users/jonathanwahrer/Desktop/Msc/3_Semester/Drug_Design_Praktikum/waehrer_HTS_screening/HTS_experiment/out/docking_results/vina_output/3npc/0872_docked.pdbqt
 OpenBabel03192219573D

 32 35  0  0  0  0  0  0  0  0999 V2000
   55.9070   94.4380   24.9130 N   0  0  0  0  0  0  0  0  0  0  0  0
   57.1430   94.7680   24.5840 N   0  0  0  0  0  0  0  0  0  0  0  0
   57.3240   95.9950   25.0430 N   0  0  0  0  0  0  0  0  0  0  0  0
   56.2150   96.4510   25.6600 C   0  0  0  0  0  0  0  0  0  0  0  0
   55.3210   95.4530   25.5710 C   0  0  0  0  0  0  0  0  0  0  0  0
   54.1990   95.9340   26.2030 C   0  0  0  0  0  0  0  0  0  0  0  0
   53.1220   95.2930   26.3360 O   0  0  0  0  0  0  0  0  0  0  0  0
   54.3840   97.1860   26.6690 N   0  0  0  0  0  0  0  0  0  0  0  0
   55.6420   97.5160   26.3330 C   0  0  0  0  0  0  0  0  0  0  0  0
   56.1980   98.6140   26.5940 O   0  0  0  0  0  0  0  0  0  0  0  0
   57.8550   94.1810   24.0620 H   0  0  0  0  0  0  0  0  0  0  0  0
   58.2320   96.5160   24.9210 H   0  0  0  0  0  0  0  0  0  0  0  0
   55.3150   93.1570   24.5940 C   0  0  0  0  0  2  0  0  0  0  0  0
   55.2850   92.9880   23.0880 C   0  0  0  0  0  0  0  0  0  0  0  0
   54.9170   91.7590   22.5480 N   0  0  0  0  0  0  0  0  0  0  0  0
   54.6680   90.9910   23.2610 H   0  0  0  0  0  0  0  0  0  0  0  0
   55.5980   93.9750   22.4140 O   0  0  0  0  0  0  0  0  0  0  0  0
   54.8490   91.4670   21.1770 C   0  0  0  0  0  0  0  0  0  0  0  0
   55.8180   90.6120   20.6260 C   0  0  0  0  0  0  0  0  0  0  0  0
   56.7700   90.1170   21.4650 F   0  0  0  0  0  0  0  0  0  0  0  0
   55.7870   90.3010   19.2920 C   0  0  0  0  0  3  0  0  0  0  0  0
   54.8110   90.8190   18.4660 C   0  0  0  0  0  0  0  0  0  0  0  0
   53.8430   91.6590   18.9670 C   0  0  0  0  0  3  0  0  0  0  0  0
   54.8160   90.4870   17.1540 F   0  0  0  0  0  0  0  0  0  0  0  0
   53.8950   91.9640   20.3440 C   0  0  0  0  0  3  0  0  0  0  0  0
   53.4070   97.9700   27.3760 C   0  0  0  0  0  0  0  0  0  0  0  0
   52.7220   98.9860   26.7380 C   0  0  0  0  0  3  0  0  0  0  0  0
   51.7780   99.7640   27.3760 C   0  0  0  0  0  3  0  0  0  0  0  0
   51.5310   99.4900   28.7080 C   0  0  0  0  0  0  0  0  0  0  0  0
   52.1870   98.4840   29.3990 C   0  0  0  0  0  3  0  0  0  0  0  0
   50.2130  100.5850   29.5750 Br  0  0  0  0  0  0  0  0  0  0  0  0
   53.1200   97.7440   28.7010 C   0  0  0  0  0  3  0  0  0  0  0  0
  1  5  1  0  0  0  0
  2  1  1  0  0  0  0
  2  3  1  0  0  0  0
  3  4  1  0  0  0  0
  4  9  1  0  0  0  0
  5  4  2  0  0  0  0
  5  6  1  0  0  0  0
  6  7  2  0  0  0  0
  6  8  1  0  0  0  0
  8 26  1  0  0  0  0
  9 10  2  0  0  0  0
  9  8  1  0  0  0  0
 11  2  1  0  0  0  0
 12  3  1  0  0  0  0
 13  1  1  0  0  0  0
 14 13  1  0  0  0  0
 15 14  1  0  0  0  0
 15 16  1  0  0  0  0
 17 14  2  0  0  0  0
 18 15  1  0  0  0  0
 19 18  1  0  0  0  0
 19 20  1  0  0  0  0
 21 19  2  0  0  0  0
 22 23  2  0  0  0  0
 22 21  1  0  0  0  0
 23 25  1  0  0  0  0
 24 22  1  0  0  0  0
 25 18  2  0  0  0  0
 26 32  1  0  0  0  0
 27 26  2  0  0  0  0
 27 28  1  0  0  0  0
 28 29  2  0  0  0  0
 29 30  1  0  0  0  0
 29 31  1  0  0  0  0
 32 30  2  0  0  0  0
M  END
>  <Pose>
1

>  <Score>
-10.194

$$$$
