MODEL 1
REMARK VINA RESULT:    -7.738      0.000      0.000
REMARK INTER + INTRA:         -10.727
REMARK INTER:                 -10.000
REMARK INTRA:                  -0.727
REMARK UNBOUND:                -0.727
REMARK  5 active torsions:
REMARK  status: ('A' for Active; 'I' for Inactive)
REMARK    1  A    between atoms: C_3  and  C_8 
REMARK    2  A    between atoms: N_9  and  C_24 
REMARK    3  A    between atoms: C_15  and  C_17 
REMARK    4  A    between atoms: C_24  and  C_25 
REMARK    5  A    between atoms: C_25  and  N_26 
ROOT
ATOM      1  C   UNK d   1      52.342  84.313  19.457  0.00  0.00     0.164 C 
ATOM      2  N   UNK d   1      52.501  85.759  19.441  0.00  0.00    -0.330 N 
ATOM      3  C   UNK d   1      53.618  85.935  20.338  0.00  0.00     0.295 C 
ATOM      4  O   UNK d   1      54.509  86.824  20.318  0.00  0.00    -0.264 OA
ATOM      5  C   UNK d   1      53.580  84.854  21.363  0.00  0.00     0.250 C 
ATOM      6  O   UNK d   1      54.308  84.593  22.319  0.00  0.00    -0.282 OA
ATOM      7  C   UNK d   1      52.367  84.087  20.954  0.00  0.00     0.062 C 
ATOM      8  C   UNK d   1      51.567  83.402  21.734  0.00  0.00     0.130 C 
ATOM      9  O   UNK d   1      50.467  82.726  21.167  0.00  0.00    -0.190 OA
ENDROOT
BRANCH   2  10
ATOM     10  C   UNK d   1      51.843  86.813  18.796  0.00  0.00     0.155 C 
BRANCH  10  11
ATOM     11  C   UNK d   1      51.611  88.102  19.501  0.00  0.00     0.255 C 
BRANCH  11  12
ATOM     12  N   UNK d   1      52.626  89.091  19.272  0.00  0.00    -0.066 N 
ATOM     13  C   UNK d   1      52.024  90.406  19.347  0.00  0.00     0.261 C 
ATOM     14  C   UNK d   1      53.082  91.488  19.229  0.00  0.00     0.195 C 
ATOM     15  O   UNK d   1      53.739  91.347  18.022  0.00  0.00    -0.388 OA
ATOM     16  C   UNK d   1      54.291  90.075  17.911  0.00  0.00     0.195 C 
ATOM     17  C   UNK d   1      53.178  89.018  17.904  0.00  0.00     0.261 C 
ATOM     18  H   UNK d   1      53.469  88.983  19.872  0.00  0.00     0.280 HD
ENDBRANCH  11  12
ENDBRANCH  10  11
ENDBRANCH   2  10
BRANCH   1  19
ATOM     19  C   UNK d   1      53.462  83.565  18.865  0.00  0.00     0.008 A 
ATOM     20  C   UNK d   1      54.083  83.942  17.692  0.00  0.00     0.125 A 
ATOM     21  F   UNK d   1      53.725  85.031  17.029  0.00  0.00    -0.205 F 
ATOM     22  C   UNK d   1      55.125  83.188  17.145  0.00  0.00     0.043 A 
ATOM     23  C   UNK d   1      55.566  82.056  17.749  0.00  0.00     0.003 A 
ATOM     24  C   UNK d   1      54.977  81.650  18.912  0.00  0.00     0.001 A 
ATOM     25  C   UNK d   1      53.945  82.413  19.435  0.00  0.00     0.012 A 
ENDBRANCH   1  19
BRANCH   8  26
ATOM     26  C   UNK d   1      51.777  83.319  23.171  0.00  0.00     0.001 A 
ATOM     27  C   UNK d   1      52.394  82.204  23.694  0.00  0.00     0.015 A 
ATOM     28  C   UNK d   1      52.602  82.048  25.054  0.00  0.00     0.020 A 
ATOM     29  C   UNK d   1      52.185  83.030  25.927  0.00  0.00     0.011 A 
ATOM     30  C   UNK d   1      51.572  84.140  25.433  0.00  0.00     0.020 A 
ATOM     31 Br   UNK d   1      52.460  82.840  27.827  0.00  0.00    -0.051 Br
ATOM     32  C   UNK d   1      51.367  84.287  24.050  0.00  0.00     0.015 A 
ENDBRANCH   8  26
TORSDOF 5
ENDMDL
