/Users/jonathanwahrer/Desktop/Msc/3_Semester/Drug_Design_Praktikum/waehrer_HTS_screening/HTS_experiment/out/docking_results/vina_output/3npc/0874_docked.pdbqt
 OpenBabel03192219573D

 31 34  0  0  0  0  0  0  0  0999 V2000
   55.7300   94.5030   24.8550 N   0  0  0  0  0  0  0  0  0  0  0  0
   56.9760   94.8380   24.5990 N   0  0  0  0  0  0  0  0  0  0  0  0
   57.2420   96.0360   25.0990 N   0  0  0  0  0  0  0  0  0  0  0  0
   56.1240   96.4950   25.7040 C   0  0  0  0  0  0  0  0  0  0  0  0
   55.2160   95.5550   25.5480 C   0  0  0  0  0  0  0  0  0  0  0  0
   54.0680   96.0240   26.1660 C   0  0  0  0  0  0  0  0  0  0  0  0
   52.9900   95.3930   26.2200 O   0  0  0  0  0  0  0  0  0  0  0  0
   54.2720   97.2420   26.6980 N   0  0  0  0  0  0  0  0  0  0  0  0
   55.5530   97.5370   26.4110 C   0  0  0  0  0  0  0  0  0  0  0  0
   56.1500   98.5890   26.7280 O   0  0  0  0  0  0  0  0  0  0  0  0
   57.6420   94.2190   24.0690 H   0  0  0  0  0  0  0  0  0  0  0  0
   58.1590   96.5420   25.0390 H   0  0  0  0  0  0  0  0  0  0  0  0
   55.0230   93.2880   24.4950 C   0  0  0  0  0  2  0  0  0  0  0  0
   55.2770   92.9690   23.0610 C   0  0  0  0  0  0  0  0  0  0  0  0
   55.0370   91.6980   22.5490 N   0  0  0  0  0  0  0  0  0  0  0  0
   54.6640   90.9790   23.2530 H   0  0  0  0  0  0  0  0  0  0  0  0
   55.7090   93.9000   22.3620 O   0  0  0  0  0  0  0  0  0  0  0  0
   55.2270   91.2410   21.2130 C   0  0  0  0  0  0  0  0  0  0  0  0
   54.2750   91.5660   20.2330 C   0  0  0  0  0  0  0  0  0  0  0  0
   53.1970   92.3150   20.6040 F   0  0  0  0  0  0  0  0  0  0  0  0
   54.3980   91.1560   18.9300 C   0  0  0  0  0  3  0  0  0  0  0  0
   55.4730   90.4000   18.5230 C   0  0  0  0  0  3  0  0  0  0  0  0
   56.4000   90.0820   19.4720 C   0  0  0  0  0  3  0  0  0  0  0  0
   56.2920   90.4870   20.7930 C   0  0  0  0  0  3  0  0  0  0  0  0
   53.3210   98.0340   27.4100 C   0  0  0  0  0  0  0  0  0  0  0  0
   53.0270   97.7780   28.7350 C   0  0  0  0  0  3  0  0  0  0  0  0
   52.1100   98.5340   29.4390 C   0  0  0  0  0  3  0  0  0  0  0  0
   51.4440   99.5830   28.8400 C   0  0  0  0  0  0  0  0  0  0  0  0
   51.7220   99.8560   27.5170 C   0  0  0  0  0  3  0  0  0  0  0  0
   50.1690  100.6460   29.7900 Br  0  0  0  0  0  0  0  0  0  0  0  0
   52.6420   99.0880   26.8310 C   0  0  0  0  0  3  0  0  0  0  0  0
  1  5  1  0  0  0  0
  2  1  1  0  0  0  0
  2  3  1  0  0  0  0
  3  4  1  0  0  0  0
  4  9  1  0  0  0  0
  5  4  2  0  0  0  0
  5  6  1  0  0  0  0
  6  7  2  0  0  0  0
  6  8  1  0  0  0  0
  8 25  1  0  0  0  0
  9  8  1  0  0  0  0
  9 10  2  0  0  0  0
 11  2  1  0  0  0  0
 12  3  1  0  0  0  0
 13  1  1  0  0  0  0
 14 13  1  0  0  0  0
 15 14  1  0  0  0  0
 15 16  1  0  0  0  0
 17 14  2  0  0  0  0
 18 15  1  0  0  0  0
 19 20  1  0  0  0  0
 19 18  2  0  0  0  0
 21 19  1  0  0  0  0
 22 21  2  0  0  0  0
 22 23  1  0  0  0  0
 23 24  2  0  0  0  0
 24 18  1  0  0  0  0
 25 26  1  0  0  0  0
 26 27  2  0  0  0  0
 28 27  1  0  0  0  0
 28 30  1  0  0  0  0
 29 28  2  0  0  0  0
 31 25  2  0  0  0  0
 31 29  1  0  0  0  0
M  END
>  <Pose>
1

>  <Score>
-10.114

$$$$
