MODEL 1
REMARK VINA RESULT:    -7.921      0.000      0.000
REMARK INTER + INTRA:          -8.739
REMARK INTER:                  -8.385
REMARK INTRA:                  -0.354
REMARK UNBOUND:                -0.354
REMARK  1 active torsions:
REMARK  status: ('A' for Active; 'I' for Inactive)
REMARK    1  A    between atoms: C_4  and  C_9 
ROOT
ATOM      1  C   UNK d   1      52.067  83.269  19.996  0.00  0.00     0.222 C 
ATOM      2  N   UNK d   1      51.655  84.559  19.491  0.00  0.00    -0.358 N 
ATOM      3  C   UNK d   1      52.499  85.698  19.690  0.00  0.00     0.088 A 
ATOM      4  S   UNK d   1      52.688  87.203  18.840  0.00  0.00    -0.074 SA
ATOM      5  C   UNK d   1      53.901  87.912  19.796  0.00  0.00     0.018 A 
ATOM      6  C   UNK d   1      54.128  86.971  20.740  0.00  0.00    -0.023 A 
ATOM      7  C   UNK d   1      53.414  85.834  20.693  0.00  0.00     0.073 A 
ATOM      8  C   UNK d   1      53.432  84.634  21.576  0.00  0.00     0.256 C 
ATOM      9  O   UNK d   1      54.205  84.565  22.562  0.00  0.00    -0.267 OA
ATOM     10  N   UNK d   1      52.577  83.537  21.330  0.00  0.00    -0.331 N 
ATOM     11  C   UNK d   1      55.196  87.348  21.761  0.00  0.00     0.068 C 
ATOM     12  C   UNK d   1      55.319  88.836  21.781  0.00  0.00     0.239 C 
ATOM     13  N   UNK d   1      55.776  89.214  20.434  0.00  0.00    -0.070 N 
ATOM     14  C   UNK d   1      54.560  89.230  19.649  0.00  0.00     0.281 C 
ATOM     15  C   UNK d   1      56.444  90.493  20.446  0.00  0.00     0.270 C 
ATOM     16  H   UNK d   1      50.757  84.713  18.980  0.00  0.00     0.162 HD
ATOM     17  H   UNK d   1      52.293  82.889  22.108  0.00  0.00     0.165 HD
ATOM     18  H   UNK d   1      56.379  88.451  20.060  0.00  0.00     0.279 HD
ENDROOT
BRANCH   1  19
ATOM     19  C   UNK d   1      53.159  82.795  19.106  0.00  0.00     0.023 A 
ATOM     20  C   UNK d   1      54.046  81.800  19.439  0.00  0.00     0.134 A 
ATOM     21  C   UNK d   1      55.063  81.399  18.570  0.00  0.00     0.044 A 
ATOM     22  O   UNK d   1      53.934  81.176  20.661  0.00  0.00    -0.190 OA
ATOM     23  I   UNK d   1      56.389  79.870  19.141  0.00  0.00    -0.042 I 
ATOM     24  C   UNK d   1      55.216  81.982  17.350  0.00  0.00     0.040 A 
ATOM     25  C   UNK d   1      54.338  82.979  16.997  0.00  0.00     0.013 A 
ATOM     26  C   UNK d   1      53.337  83.380  17.844  0.00  0.00     0.033 A 
ATOM     27 Br   UNK d   1      54.548  83.797  15.291  0.00  0.00    -0.051 Br
ENDBRANCH   1  19
TORSDOF 1
ENDMDL
