MODEL 1
REMARK VINA RESULT:    -7.184      0.000      0.000
REMARK INTER + INTRA:          -8.454
REMARK INTER:                  -8.024
REMARK INTRA:                  -0.430
REMARK UNBOUND:                -0.430
REMARK  2 active torsions:
REMARK  status: ('A' for Active; 'I' for Inactive)
REMARK    1  A    between atoms: C_4  and  O_23 
REMARK    2  A    between atoms: C_6  and  C_8 
ROOT
ATOM      1  C   UNK d   1      47.468 102.188  29.455  0.00  0.00     0.219 C 
ATOM      2  N   UNK d   1      48.294 103.317  29.883  0.00  0.00    -0.358 N 
ATOM      3  C   UNK d   1      47.966 104.071  31.077  0.00  0.00     0.088 A 
ATOM      4  S   UNK d   1      48.502 105.586  31.686  0.00  0.00    -0.074 SA
ATOM      5  C   UNK d   1      47.586 105.641  33.111  0.00  0.00     0.018 A 
ATOM      6  C   UNK d   1      46.878 104.470  33.082  0.00  0.00    -0.023 A 
ATOM      7  C   UNK d   1      47.081 103.658  32.022  0.00  0.00     0.073 A 
ATOM      8  C   UNK d   1      46.439 102.339  31.756  0.00  0.00     0.256 C 
ATOM      9  O   UNK d   1      45.593 101.839  32.558  0.00  0.00    -0.267 OA
ATOM     10  N   UNK d   1      46.779 101.631  30.587  0.00  0.00    -0.332 N 
ATOM     11  C   UNK d   1      45.974 104.323  34.301  0.00  0.00     0.068 C 
ATOM     12  C   UNK d   1      46.777 104.580  35.549  0.00  0.00     0.239 C 
ATOM     13  N   UNK d   1      47.634 105.715  35.466  0.00  0.00    -0.070 N 
ATOM     14  C   UNK d   1      47.356 106.545  34.298  0.00  0.00     0.281 C 
ATOM     15  C   UNK d   1      49.002 105.212  35.267  0.00  0.00     0.270 C 
ATOM     16  H   UNK d   1      49.133 103.613  29.352  0.00  0.00     0.162 HD
ATOM     17  H   UNK d   1      46.516 100.613  30.517  0.00  0.00     0.165 HD
ATOM     18  H   UNK d   1      47.631 106.315  36.332  0.00  0.00     0.279 HD
ENDROOT
BRANCH   1  19
ATOM     19  C   UNK d   1      48.418 101.154  28.961  0.00  0.00    -0.012 A 
ATOM     20  C   UNK d   1      48.218  99.838  29.358  0.00  0.00     0.050 A 
ATOM     21  C   UNK d   1      49.021  98.809  28.969  0.00  0.00     0.106 A 
ATOM     22  C   UNK d   1      50.095  99.109  28.132  0.00  0.00     0.157 A 
ATOM     23  C   UNK d   1      50.317 100.408  27.722  0.00  0.00     0.046 A 
ATOM     24  O   UNK d   1      50.933  98.092  27.716  0.00  0.00    -0.188 OA
ATOM     25  I   UNK d   1      51.947 100.840  26.455  0.00  0.00    -0.041 I 
ATOM     26  C   UNK d   1      49.477 101.428  28.140  0.00  0.00     0.032 A 
BRANCH  21  27
ATOM     27  O   UNK d   1      48.846  97.485  29.348  0.00  0.00    -0.353 OA
ATOM     28  C   UNK d   1      47.843  96.724  28.703  0.00  0.00     0.210 C 
ENDBRANCH  21  27
ENDBRANCH   1  19
TORSDOF 2
ENDMDL
