MODEL 1
REMARK VINA RESULT:    -7.979      0.000      0.000
REMARK INTER + INTRA:          -9.425
REMARK INTER:                  -8.912
REMARK INTRA:                  -0.514
REMARK UNBOUND:                -0.514
REMARK  2 active torsions:
REMARK  status: ('A' for Active; 'I' for Inactive)
REMARK    1  A    between atoms: C_3  and  N_8 
REMARK    2  A    between atoms: N_15  and  C_16 
ROOT
ATOM      1  N   UNK d   1      53.650  84.403  20.793  0.00  0.00    -0.240 N 
ATOM      2  C   UNK d   1      54.456  85.153  21.565  0.00  0.00     0.286 A 
ATOM      3  O   UNK d   1      55.553  85.669  21.193  0.00  0.00    -0.265 OA
ATOM      4  C   UNK d   1      53.940  85.302  22.836  0.00  0.00     0.160 A 
ATOM      5  C   UNK d   1      52.800  84.629  22.837  0.00  0.00     0.152 A 
ATOM      6  N   UNK d   1      52.306  84.785  24.088  0.00  0.00    -0.278 N 
ATOM      7  N   UNK d   1      53.119  85.525  24.819  0.00  0.00    -0.234 N 
ATOM      8  N   UNK d   1      54.136  85.856  24.065  0.00  0.00    -0.234 N 
ATOM      9  C   UNK d   1      52.612  84.072  21.582  0.00  0.00     0.286 A 
ATOM     10  O   UNK d   1      51.607  83.361  21.253  0.00  0.00    -0.265 OA
ATOM     11  H   UNK d   1      51.413  84.385  24.446  0.00  0.00     0.189 HD
ATOM     12  H   UNK d   1      52.979  85.797  25.813  0.00  0.00     0.209 HD
ENDROOT
BRANCH   1  13
ATOM     13  C   UNK d   1      53.824  84.019  19.428  0.00  0.00     0.062 A 
ATOM     14  C   UNK d   1      53.363  84.805  18.392  0.00  0.00     0.034 A 
ATOM     15  I   UNK d   1      52.384  86.611  18.905  0.00  0.00    -0.042 I 
ATOM     16  C   UNK d   1      53.519  84.454  17.066  0.00  0.00     0.020 A 
ATOM     17  C   UNK d   1      54.155  83.280  16.720  0.00  0.00     0.001 A 
ATOM     18  C   UNK d   1      54.620  82.486  17.746  0.00  0.00     0.002 A 
ATOM     19  C   UNK d   1      54.460  82.846  19.073  0.00  0.00     0.031 A 
ENDBRANCH   1  13
BRANCH   8  20
ATOM     20  C   UNK d   1      55.267  86.646  24.407  0.00  0.00     0.058 A 
ATOM     21  C   UNK d   1      55.188  88.013  24.551  0.00  0.00     0.031 A 
ATOM     22  C   UNK d   1      56.309  88.755  24.885  0.00  0.00     0.002 A 
ATOM     23  C   UNK d   1      57.540  88.165  25.087  0.00  0.00     0.000 A 
ATOM     24  C   UNK d   1      57.620  86.796  24.943  0.00  0.00     0.002 A 
ATOM     25  C   UNK d   1      56.514  86.053  24.612  0.00  0.00     0.031 A 
ENDBRANCH   8  20
TORSDOF 2
ENDMDL
