/Users/jonathanwahrer/Desktop/Msc/3_Semester/Drug_Design_Praktikum/waehrer_HTS_screening/HTS_experiment/out/docking_results/vina_output/3npc/0910_docked.pdbqt
 OpenBabel03192219583D

 26 29  0  0  0  0  0  0  0  0999 V2000
   54.0140   86.8280   20.7750 C   0  0  0  0  0  0  0  0  0  0  0  0
   53.1260   87.2670   19.7650 C   0  0  0  0  0  0  0  0  0  0  0  0
   52.1280   86.6490   19.1450 N   0  0  0  0  0  0  0  0  0  0  0  0
   51.6100   87.4730   18.2850 O   0  0  0  0  0  0  0  0  0  0  0  0
   52.2260   88.5990   18.3160 N   0  0  0  0  0  0  0  0  0  0  0  0
   53.1940   88.5150   19.2370 C   0  0  0  0  0  0  0  0  0  0  0  0
   54.1510   89.3970   19.6870 C   0  0  0  0  0  0  0  0  0  0  0  0
   55.0280   89.0020   20.6640 C   0  0  0  0  0  3  0  0  0  0  0  0
   54.9700   87.7350   21.2110 C   0  0  0  0  0  3  0  0  0  0  0  0
   53.7600   85.5630   21.2630 N   0  0  0  0  0  0  0  0  0  0  0  0
   53.5150   84.3410   21.7340 C   0  0  0  0  0  0  0  0  0  0  0  0
   54.0810   83.2620   21.2850 O   0  0  0  0  0  0  0  0  0  0  0  0
   54.4920   85.0400   20.2410 H   0  0  0  0  0  0  0  0  0  0  0  0
   52.5680   83.9980   22.8300 C   0  0  0  0  0  0  0  0  0  0  0  0
   52.7040   84.3920   24.1440 C   0  0  0  0  0  0  0  0  0  0  0  0
   54.3080   85.5240   24.9650 I   0  0  0  0  0  0  0  0  0  0  0  0
   51.6100   83.9250   24.8290 C   0  0  0  0  0  3  0  0  0  0  0  0
   50.8620   83.2790   23.9380 N   0  0  0  0  0  0  0  0  0  0  0  0
   51.4240   83.3160   22.7360 N   0  0  0  0  0  0  0  0  0  0  0  0
   50.8000   82.7270   21.5370 C   0  0  0  0  0  1  0  0  0  0  0  0
   54.1930   90.6750   19.1100 N   0  0  0  0  0  0  0  0  0  0  0  0
   53.4580   91.8150   19.6600 C   0  0  0  0  0  2  0  0  0  0  0  0
   52.4820   92.2010   18.5680 C   0  0  0  0  0  2  0  0  0  0  0  0
   52.5950   91.4310   17.4220 O   0  0  0  0  0  0  0  0  0  0  0  0
   53.8620   91.3590   16.8820 C   0  0  0  0  0  2  0  0  0  0  0  0
   54.9240   91.0760   17.9300 C   0  0  0  0  0  2  0  0  0  0  0  0
  1  9  2  0  0  0  0
  1 10  1  0  0  0  0
  2  1  1  0  0  0  0
  3  2  2  0  0  0  0
  4  5  1  0  0  0  0
  4  3  1  0  0  0  0
  5  6  2  0  0  0  0
  6  7  1  0  0  0  0
  6  2  1  0  0  0  0
  7  8  2  0  0  0  0
  8  9  1  0  0  0  0
 10 11  1  0  0  0  0
 11 14  1  0  0  0  0
 12 11  2  0  0  0  0
 13 10  1  0  0  0  0
 14 15  2  0  0  0  0
 15 17  1  0  0  0  0
 15 16  1  0  0  0  0
 18 17  2  0  0  0  0
 19 14  1  0  0  0  0
 19 18  1  0  0  0  0
 20 19  1  0  0  0  0
 21 22  1  0  0  0  0
 21  7  1  0  0  0  0
 23 22  1  0  0  0  0
 24 23  1  0  0  0  0
 25 24  1  0  0  0  0
 25 26  1  0  0  0  0
 26 21  1  0  0  0  0
M  END
>  <Pose>
1

>  <Score>
-8.083

$$$$
