MODEL 1
REMARK VINA RESULT:    -8.739      0.000      0.000
REMARK INTER + INTRA:         -10.521
REMARK INTER:                 -10.272
REMARK INTRA:                  -0.250
REMARK UNBOUND:                -0.250
REMARK  3 active torsions:
REMARK  status: ('A' for Active; 'I' for Inactive)
REMARK    1  A    between atoms: C_5  and  C_8 
REMARK    2  A    between atoms: C_10  and  N_11 
REMARK    3  A    between atoms: C_15  and  C_19 
ROOT
ATOM      1  N   UNK d   1      49.047 100.830  28.338  0.00  0.00    -0.353 N 
ATOM      2  C   UNK d   1      49.396  99.581  28.333  0.00  0.00     0.149 A 
ATOM      3  S   UNK d   1      48.736  97.946  28.697  0.00  0.00    -0.063 SA
ATOM      4  C   UNK d   1      50.246  97.110  28.272  0.00  0.00     0.083 A 
ATOM      5  C   UNK d   1      51.134  98.003  27.896  0.00  0.00     0.053 A 
ATOM      6  N   UNK d   1      50.709  99.354  27.915  0.00  0.00    -0.325 N 
ATOM      7  C   UNK d   1      51.277 100.689  27.599  0.00  0.00     0.151 A 
ATOM      8  C   UNK d   1      50.176 101.629  27.947  0.00  0.00     0.145 A 
ENDROOT
BRANCH   1   9
ATOM      9  C   UNK d   1      47.777 101.328  28.711  0.00  0.00     0.193 C 
ATOM     10  C   UNK d   1      47.593 102.132  29.891  0.00  0.00     0.112 C 
ATOM     11  O   UNK d   1      46.341 102.214  30.255  0.00  0.00    -0.194 OA
BRANCH  10  12
ATOM     12  C   UNK d   1      48.496 102.856  30.742  0.00  0.00    -0.002 A 
ATOM     13  C   UNK d   1      49.508 102.253  31.426  0.00  0.00     0.015 A 
ATOM     14  C   UNK d   1      50.340 102.970  32.242  0.00  0.00     0.019 A 
ATOM     15  C   UNK d   1      50.215 104.334  32.428  0.00  0.00     0.006 A 
ATOM     16  I   UNK d   1      51.453 105.468  33.658  0.00  0.00    -0.045 I 
ATOM     17  C   UNK d   1      49.176 104.945  31.724  0.00  0.00     0.019 A 
ATOM     18  C   UNK d   1      48.354 104.232  30.917  0.00  0.00     0.015 A 
ENDBRANCH  10  12
ENDBRANCH   1   9
BRANCH   5  19
ATOM     19  C   UNK d   1      52.488  97.516  27.498  0.00  0.00    -0.009 A 
ATOM     20  C   UNK d   1      53.608  98.297  27.606  0.00  0.00     0.014 A 
ATOM     21  C   UNK d   1      54.885  97.830  27.238  0.00  0.00     0.001 A 
ATOM     22  C   UNK d   1      55.040  96.552  26.751  0.00  0.00     0.000 A 
ATOM     23  C   UNK d   1      53.922  95.765  26.640  0.00  0.00     0.001 A 
ATOM     24  C   UNK d   1      52.667  96.235  27.006  0.00  0.00     0.014 A 
ENDBRANCH   5  19
TORSDOF 3
ENDMDL
