MODEL 1
REMARK VINA RESULT:    -9.316      0.000      0.000
REMARK INTER + INTRA:         -12.417
REMARK INTER:                 -12.039
REMARK INTRA:                  -0.378
REMARK UNBOUND:                -0.378
REMARK  5 active torsions:
REMARK  status: ('A' for Active; 'I' for Inactive)
REMARK    1  A    between atoms: C_5  and  C_8 
REMARK    2  A    between atoms: N_9  and  N_10 
REMARK    3  A    between atoms: N_10  and  C_11 
REMARK    4  A    between atoms: C_13  and  N_23 
REMARK    5  A    between atoms: C_15  and  N_17 
ROOT
ATOM      1  C   UNK d   1      54.826  92.487  22.633  0.00  0.00     0.774 A 
ATOM      2  N   UNK d   1      54.203  92.554  21.444  0.00  0.00     0.133 NA
ATOM      3  C   UNK d   1      54.141  91.491  20.632  0.00  0.00     0.756 A 
ATOM      4  N   UNK d   1      54.731  90.365  21.064  0.00  0.00     0.131 NA
ATOM      5  C   UNK d   1      55.366  90.259  22.248  0.00  0.00     0.756 A 
ATOM      6  N   UNK d   1      55.405  91.349  23.036  0.00  0.00     0.133 NA
ENDROOT
BRANCH   1   7
ATOM      7  N   UNK d   1      54.880  93.649  23.494  0.00  0.00    -0.105 N 
ATOM      8  H   UNK d   1      54.008  94.186  23.696  0.00  0.00     0.208 HD
BRANCH   7   9
ATOM      9  N   UNK d   1      56.071  94.041  24.007  0.00  0.00    -0.172 NA
ATOM     10  C   UNK d   1      56.201  94.845  24.968  0.00  0.00     0.150 C 
BRANCH  10  11
ATOM     11  C   UNK d   1      55.171  95.510  25.717  0.00  0.00    -0.017 A 
ATOM     12  C   UNK d   1      53.926  95.040  26.015  0.00  0.00     0.014 A 
ATOM     13  C   UNK d   1      52.988  95.771  26.759  0.00  0.00     0.019 A 
ATOM     14  C   UNK d   1      53.305  97.012  27.221  0.00  0.00     0.006 A 
ATOM     15  I   UNK d   1      51.977  98.179  28.339  0.00  0.00    -0.045 I 
ATOM     16  C   UNK d   1      54.557  97.511  26.935  0.00  0.00     0.019 A 
ATOM     17  C   UNK d   1      55.471  96.790  26.205  0.00  0.00     0.014 A 
ENDBRANCH  10  11
ENDBRANCH   7   9
ENDBRANCH   1   7
BRANCH   3  18
ATOM     18  N   UNK d   1      53.485  91.539  19.365  0.00  0.00    -0.209 N 
ATOM     19  C   UNK d   1      52.117  91.930  19.203  0.00  0.00     0.167 C 
ATOM     20  C   UNK d   1      51.735  91.679  17.742  0.00  0.00     0.188 C 
ATOM     21  O   UNK d   1      52.100  90.408  17.331  0.00  0.00    -0.388 OA
ATOM     22  C   UNK d   1      53.458  90.207  17.315  0.00  0.00     0.188 C 
ATOM     23  C   UNK d   1      54.232  91.176  18.171  0.00  0.00     0.167 C 
ENDBRANCH   3  18
BRANCH   5  24
ATOM     24  N   UNK d   1      55.966  89.028  22.628  0.00  0.00    -0.209 N 
ATOM     25  C   UNK d   1      56.009  88.655  24.023  0.00  0.00     0.167 C 
ATOM     26  C   UNK d   1      57.340  87.911  24.204  0.00  0.00     0.188 C 
ATOM     27  O   UNK d   1      57.263  86.750  23.480  0.00  0.00    -0.388 OA
ATOM     28  C   UNK d   1      57.101  86.885  22.129  0.00  0.00     0.188 C 
ATOM     29  C   UNK d   1      56.522  88.164  21.645  0.00  0.00     0.167 C 
ENDBRANCH   5  24
TORSDOF 5
ENDMDL
