MODEL 1
REMARK VINA RESULT:    -7.510      0.000      0.000
REMARK INTER + INTRA:          -7.240
REMARK INTER:                  -8.827
REMARK INTRA:                   1.587
REMARK UNBOUND:                 1.587
REMARK  3 active torsions:
REMARK  status: ('A' for Active; 'I' for Inactive)
REMARK    1  A    between atoms: C_5  and  N_8 
REMARK    2  A    between atoms: C_10  and  C_16 
REMARK    3  A    between atoms: C_22  and  O_29 
ROOT
ATOM      1  N   UNK d   1      47.527 102.325  30.745  0.00  0.00    -0.241 N 
ATOM      2  C   UNK d   1      47.691 103.442  31.476  0.00  0.00     0.204 A 
ATOM      3  C   UNK d   1      46.734 103.895  32.358  0.00  0.00     0.100 A 
ATOM      4  C   UNK d   1      45.588 103.130  32.452  0.00  0.00     0.262 A 
ATOM      5  O   UNK d   1      44.616 103.411  33.216  0.00  0.00    -0.267 OA
ATOM      6  N   UNK d   1      45.410 101.991  31.714  0.00  0.00    -0.274 N 
ATOM      7  C   UNK d   1      46.392 101.619  30.875  0.00  0.00     0.336 A 
ATOM      8  O   UNK d   1      46.274 100.580  30.177  0.00  0.00    -0.246 OA
ATOM      9  O   UNK d   1      48.845 104.173  31.355  0.00  0.00    -0.171 OA
ATOM     10  H   UNK d   1      44.548 101.420  31.787  0.00  0.00     0.173 HD
ENDROOT
BRANCH   3  11
ATOM     11  C   UNK d   1      46.830 105.097  33.166  0.00  0.00     0.267 C 
ATOM     12  N   UNK d   1      46.194 105.083  34.445  0.00  0.00    -0.062 N 
ATOM     13  C   UNK d   1      46.745 104.139  35.378  0.00  0.00     0.240 C 
ATOM     14  C   UNK d   1      46.485 106.416  35.034  0.00  0.00     0.270 C 
ATOM     15  H   UNK d   1      45.160 105.085  34.448  0.00  0.00     0.280 HD
ATOM     16  C   UNK d   1      48.043 103.518  34.908  0.00  0.00     0.067 C 
ATOM     17  C   UNK d   1      48.916 104.613  34.342  0.00  0.00    -0.042 A 
ATOM     18  C   UNK d   1      48.269 105.437  33.457  0.00  0.00     0.020 A 
ATOM     19  C   UNK d   1      50.214 104.807  34.687  0.00  0.00     0.047 A 
ATOM     20  C   UNK d   1      48.927 106.500  32.885  0.00  0.00     0.113 A 
ATOM     21  C   UNK d   1      50.254 106.693  33.242  0.00  0.00     0.139 A 
ATOM     22  C   UNK d   1      50.919 105.873  34.130  0.00  0.00     0.108 A 
ATOM     23  O   UNK d   1      51.198 107.657  32.857  0.00  0.00    -0.320 OA
ATOM     24  O   UNK d   1      52.218 106.336  34.267  0.00  0.00    -0.323 OA
ATOM     25  C   UNK d   1      52.508 107.236  33.186  0.00  0.00     0.352 C 
BRANCH  20  26
ATOM     26  O   UNK d   1      48.274 107.316  32.006  0.00  0.00    -0.352 OA
ATOM     27  C   UNK d   1      48.494 107.424  30.636  0.00  0.00     0.210 C 
ENDBRANCH  20  26
ENDBRANCH   3  11
BRANCH   1  28
ATOM     28  C   UNK d   1      48.526 101.878  29.842  0.00  0.00     0.046 A 
ATOM     29  C   UNK d   1      49.717 101.313  30.269  0.00  0.00     0.031 A 
ATOM     30  C   UNK d   1      50.679 100.882  29.402  0.00  0.00     0.020 A 
ATOM     31  C   UNK d   1      50.491 100.998  28.029  0.00  0.00     0.006 A 
ATOM     32  I   UNK d   1      51.978 100.332  26.706  0.00  0.00    -0.045 I 
ATOM     33  C   UNK d   1      49.310 101.557  27.602  0.00  0.00     0.020 A 
ATOM     34  C   UNK d   1      48.332 101.996  28.470  0.00  0.00     0.031 A 
ENDBRANCH   1  28
TORSDOF 3
ENDMDL
