MODEL 1
REMARK VINA RESULT:    -8.619      0.000      0.000
REMARK INTER + INTRA:         -10.208
REMARK INTER:                 -10.130
REMARK INTRA:                  -0.078
REMARK UNBOUND:                -0.078
REMARK  3 active torsions:
REMARK  status: ('A' for Active; 'I' for Inactive)
REMARK    1  A    between atoms: C_5  and  N_8 
REMARK    2  A    between atoms: C_11  and  N_15 
REMARK    3  A    between atoms: N_18  and  C_21 
ROOT
ATOM      1  N   UNK d   1      49.305  99.756  28.455  0.00  0.00    -0.251 N 
ATOM      2  C   UNK d   1      49.086 101.149  28.308  0.00  0.00     0.254 C 
ATOM      3  O   UNK d   1      49.782 101.892  27.568  0.00  0.00    -0.270 OA
ATOM      4  C   UNK d   1      47.929 101.565  29.149  0.00  0.00     0.181 C 
ATOM      5  C   UNK d   1      47.100 100.292  29.172  0.00  0.00     0.138 C 
ATOM      6  C   UNK d   1      48.073  99.211  28.921  0.00  0.00     0.233 C 
ATOM      7  O   UNK d   1      47.878  97.971  29.085  0.00  0.00    -0.273 OA
ENDROOT
BRANCH   4   8
ATOM      8  N   UNK d   1      48.413 101.949  30.411  0.00  0.00    -0.397 N 
ATOM      9  C   UNK d   1      49.743 102.325  30.593  0.00  0.00     0.138 C 
ATOM     10  C   UNK d   1      49.783 103.266  31.825  0.00  0.00     0.161 C 
ATOM     11  N   UNK d   1      48.753 104.279  31.649  0.00  0.00    -0.211 N 
ATOM     12  C   UNK d   1      47.396 103.802  31.541  0.00  0.00     0.161 C 
ATOM     13  C   UNK d   1      47.460 102.285  31.390  0.00  0.00     0.138 C 
BRANCH  11  14
ATOM     14  C   UNK d   1      49.078 105.649  31.581  0.00  0.00     0.724 A 
ATOM     15  N   UNK d   1      49.855 106.227  32.537  0.00  0.00    -0.075 NA
ATOM     16  C   UNK d   1      50.203 107.511  32.522  0.00  0.00     0.138 A 
ATOM     17  C   UNK d   1      49.772 108.339  31.495  0.00  0.00     0.040 A 
ATOM     18  C   UNK d   1      48.982 107.746  30.525  0.00  0.00     0.138 A 
ATOM     19  N   UNK d   1      48.656 106.448  30.579  0.00  0.00    -0.075 NA
ENDBRANCH  11  14
ENDBRANCH   4   8
BRANCH   1  20
ATOM     20  C   UNK d   1      50.511  99.012  28.196  0.00  0.00     0.045 A 
ATOM     21  C   UNK d   1      50.431  97.779  27.583  0.00  0.00     0.031 A 
ATOM     22  C   UNK d   1      51.558  97.028  27.316  0.00  0.00     0.020 A 
ATOM     23  C   UNK d   1      52.812  97.488  27.657  0.00  0.00     0.006 A 
ATOM     24  I   UNK d   1      54.563  96.372  27.266  0.00  0.00    -0.045 I 
ATOM     25  C   UNK d   1      52.911  98.718  28.270  0.00  0.00     0.020 A 
ATOM     26  C   UNK d   1      51.770  99.452  28.527  0.00  0.00     0.031 A 
ENDBRANCH   1  20
TORSDOF 3
ENDMDL
