/Users/jonathanwahrer/Desktop/Msc/3_Semester/Drug_Design_Praktikum/waehrer_HTS_screening/HTS_experiment/out/docking_results/vina_output/3npc/0937_docked.pdbqt
 OpenBabel03192219593D

 26 29  0  0  1  0  0  0  0  0999 V2000
   49.3050   99.7560   28.4550 N   0  0  0  0  0  0  0  0  0  0  0  0
   49.0860  101.1490   28.3080 C   0  0  0  0  0  0  0  0  0  0  0  0
   49.7820  101.8920   27.5680 O   0  0  0  0  0  0  0  0  0  0  0  0
   47.9290  101.5650   29.1490 C   0  0  1  0  0  3  0  0  0  0  0  0
   47.1000  100.2920   29.1720 C   0  0  0  0  0  2  0  0  0  0  0  0
   48.0730   99.2110   28.9210 C   0  0  0  0  0  0  0  0  0  0  0  0
   47.8780   97.9710   29.0850 O   0  0  0  0  0  0  0  0  0  0  0  0
   48.4130  101.9490   30.4110 N   0  0  1  0  0  0  0  0  0  0  0  0
   49.7430  102.3250   30.5930 C   0  0  0  0  0  2  0  0  0  0  0  0
   49.7830  103.2660   31.8250 C   0  0  0  0  0  2  0  0  0  0  0  0
   48.7530  104.2790   31.6490 N   0  0  0  0  0  0  0  0  0  0  0  0
   47.3960  103.8020   31.5410 C   0  0  0  0  0  2  0  0  0  0  0  0
   47.4600  102.2850   31.3900 C   0  0  0  0  0  2  0  0  0  0  0  0
   49.0780  105.6490   31.5810 C   0  0  0  0  0  0  0  0  0  0  0  0
   49.8550  106.2270   32.5370 N   0  0  0  0  0  0  0  0  0  0  0  0
   50.2030  107.5110   32.5220 C   0  0  0  0  0  3  0  0  0  0  0  0
   49.7720  108.3390   31.4950 C   0  0  0  0  0  3  0  0  0  0  0  0
   48.9820  107.7460   30.5250 C   0  0  0  0  0  3  0  0  0  0  0  0
   48.6560  106.4480   30.5790 N   0  0  0  0  0  0  0  0  0  0  0  0
   50.5110   99.0120   28.1960 C   0  0  0  0  0  0  0  0  0  0  0  0
   50.4310   97.7790   27.5830 C   0  0  0  0  0  3  0  0  0  0  0  0
   51.5580   97.0280   27.3160 C   0  0  0  0  0  3  0  0  0  0  0  0
   52.8120   97.4880   27.6570 C   0  0  0  0  0  0  0  0  0  0  0  0
   54.5630   96.3720   27.2660 I   0  0  0  0  0  0  0  0  0  0  0  0
   52.9110   98.7180   28.2700 C   0  0  0  0  0  3  0  0  0  0  0  0
   51.7700   99.4520   28.5270 C   0  0  0  0  0  3  0  0  0  0  0  0
  1  6  1  0  0  0  0
  2  1  1  0  0  0  0
  2  4  1  0  0  0  0
  3  2  2  0  0  0  0
  4  5  1  1  0  0  0
  4  8  1  0  0  0  0
  6  7  2  0  0  0  0
  6  5  1  0  0  0  0
  8  9  1  6  0  0  0
  8 13  1  0  0  0  0
  9 10  1  0  0  0  0
 11 10  1  0  0  0  0
 12 11  1  0  0  0  0
 13 12  1  0  0  0  0
 14 11  1  0  0  0  0
 14 15  2  0  0  0  0
 16 15  1  0  0  0  0
 17 16  2  0  0  0  0
 18 19  2  0  0  0  0
 18 17  1  0  0  0  0
 19 14  1  0  0  0  0
 20  1  1  0  0  0  0
 20 26  1  0  0  0  0
 21 20  2  0  0  0  0
 22 21  1  0  0  0  0
 22 23  2  0  0  0  0
 23 25  1  0  0  0  0
 24 23  1  0  0  0  0
 25 26  2  0  0  0  0
M  END
>  <Pose>
1

>  <Score>
-8.619

$$$$
