MODEL 1
REMARK VINA RESULT:    -8.799      0.000      0.000
REMARK INTER + INTRA:         -10.614
REMARK INTER:                 -10.342
REMARK INTRA:                  -0.271
REMARK UNBOUND:                -0.271
REMARK  3 active torsions:
REMARK  status: ('A' for Active; 'I' for Inactive)
REMARK    1  A    between atoms: C_6  and  C_7 
REMARK       I    between atoms: C_7  and  N_9 
REMARK    2  A    between atoms: N_9  and  C_10 
REMARK    3  A    between atoms: C_16  and  N_19 
ROOT
ATOM      1  C   UNK d   1      52.386  98.770  27.911  0.00  0.00     0.069 A 
ATOM      2  C   UNK d   1      51.806  99.916  27.360  0.00  0.00     0.146 A 
ATOM      3  N   UNK d   1      51.980 100.519  26.171  0.00  0.00    -0.101 NA
ATOM      4  O   UNK d   1      51.208 101.565  26.122  0.00  0.00    -0.106 OA
ATOM      5  N   UNK d   1      50.535 101.679  27.225  0.00  0.00    -0.101 NA
ATOM      6  C   UNK d   1      50.877 100.662  28.038  0.00  0.00     0.146 A 
ATOM      7  C   UNK d   1      50.490 100.285  29.306  0.00  0.00     0.064 A 
ATOM      8  C   UNK d   1      51.065  99.158  29.837  0.00  0.00     0.034 A 
ATOM      9  C   UNK d   1      52.016  98.391  29.152  0.00  0.00     0.034 A 
ENDROOT
BRANCH   1  10
ATOM     10  N   UNK d   1      53.333  98.079  27.120  0.00  0.00    -0.319 N 
ATOM     11  C   UNK d   1      53.300  96.743  26.746  0.00  0.00     0.278 C 
ATOM     12  O   UNK d   1      52.333  95.998  27.131  0.00  0.00    -0.265 OA
ATOM     13  H   UNK d   1      54.183  98.624  26.769  0.00  0.00     0.169 HD
BRANCH  11  14
ATOM     14  C   UNK d   1      54.317  96.074  25.914  0.00  0.00     0.162 A 
ATOM     15  C   UNK d   1      55.635  96.309  25.724  0.00  0.00     0.059 A 
ATOM     16  I   UNK d   1      56.814  97.827  26.530  0.00  0.00    -0.040 I 
ATOM     17  C   UNK d   1      56.106  95.336  24.843  0.00  0.00     0.132 A 
ATOM     18  N   UNK d   1      55.088  94.538  24.513  0.00  0.00    -0.283 N 
ATOM     19  N   UNK d   1      54.031  94.971  25.142  0.00  0.00    -0.166 NA
ATOM     20  C   UNK d   1      55.184  93.390  23.602  0.00  0.00     0.179 C 
ENDBRANCH  11  14
ENDBRANCH   1  10
BRANCH   7  21
ATOM     21  N   UNK d   1      49.528 101.069  29.992  0.00  0.00    -0.375 N 
ATOM     22  C   UNK d   1      49.935 101.996  31.029  0.00  0.00     0.149 C 
ATOM     23  C   UNK d   1      48.738 102.737  31.513  0.00  0.00     0.187 C 
ATOM     24  O   UNK d   1      47.954 103.270  30.508  0.00  0.00    -0.388 OA
ATOM     25  C   UNK d   1      47.498 102.374  29.594  0.00  0.00     0.187 C 
ATOM     26  C   UNK d   1      48.108 100.999  29.709  0.00  0.00     0.149 C 
ENDBRANCH   7  21
TORSDOF 3
ENDMDL
