/Users/jonathanwahrer/Desktop/Msc/3_Semester/Drug_Design_Praktikum/waehrer_HTS_screening/HTS_experiment/out/docking_results/vina_output/3npc/0950_docked.pdbqt
 OpenBabel03192219593D

 26 29  0  0  0  0  0  0  0  0999 V2000
   52.3860   98.7700   27.9110 C   0  0  0  0  0  0  0  0  0  0  0  0
   51.8060   99.9160   27.3600 C   0  0  0  0  0  0  0  0  0  0  0  0
   51.9800  100.5190   26.1710 N   0  0  0  0  0  0  0  0  0  0  0  0
   51.2080  101.5650   26.1220 O   0  0  0  0  0  0  0  0  0  0  0  0
   50.5350  101.6790   27.2250 N   0  0  0  0  0  0  0  0  0  0  0  0
   50.8770  100.6620   28.0380 C   0  0  0  0  0  0  0  0  0  0  0  0
   50.4900  100.2850   29.3060 C   0  0  0  0  0  0  0  0  0  0  0  0
   51.0650   99.1580   29.8370 C   0  0  0  0  0  3  0  0  0  0  0  0
   52.0160   98.3910   29.1520 C   0  0  0  0  0  3  0  0  0  0  0  0
   53.3330   98.0790   27.1200 N   0  0  0  0  0  0  0  0  0  0  0  0
   53.3000   96.7430   26.7460 C   0  0  0  0  0  0  0  0  0  0  0  0
   52.3330   95.9980   27.1310 O   0  0  0  0  0  0  0  0  0  0  0  0
   54.1830   98.6240   26.7690 H   0  0  0  0  0  0  0  0  0  0  0  0
   54.3170   96.0740   25.9140 C   0  0  0  0  0  0  0  0  0  0  0  0
   55.6350   96.3090   25.7240 C   0  0  0  0  0  0  0  0  0  0  0  0
   56.8140   97.8270   26.5300 I   0  0  0  0  0  0  0  0  0  0  0  0
   56.1060   95.3360   24.8430 C   0  0  0  0  0  3  0  0  0  0  0  0
   55.0880   94.5380   24.5130 N   0  0  0  0  0  0  0  0  0  0  0  0
   54.0310   94.9710   25.1420 N   0  0  0  0  0  0  0  0  0  0  0  0
   55.1840   93.3900   23.6020 C   0  0  0  0  0  1  0  0  0  0  0  0
   49.5280  101.0690   29.9920 N   0  0  0  0  0  0  0  0  0  0  0  0
   49.9350  101.9960   31.0290 C   0  0  0  0  0  2  0  0  0  0  0  0
   48.7380  102.7370   31.5130 C   0  0  0  0  0  2  0  0  0  0  0  0
   47.9540  103.2700   30.5080 O   0  0  0  0  0  0  0  0  0  0  0  0
   47.4980  102.3740   29.5940 C   0  0  0  0  0  2  0  0  0  0  0  0
   48.1080  100.9990   29.7090 C   0  0  0  0  0  2  0  0  0  0  0  0
  1  9  2  0  0  0  0
  2  1  1  0  0  0  0
  2  6  1  0  0  0  0
  3  2  2  0  0  0  0
  4  3  1  0  0  0  0
  4  5  1  0  0  0  0
  5  6  2  0  0  0  0
  6  7  1  0  0  0  0
  7  8  2  0  0  0  0
  7 21  1  0  0  0  0
  9  8  1  0  0  0  0
 10  1  1  0  0  0  0
 11 10  1  0  0  0  0
 11 12  2  0  0  0  0
 13 10  1  0  0  0  0
 14 11  1  0  0  0  0
 15 14  1  0  0  0  0
 15 16  1  0  0  0  0
 17 15  2  0  0  0  0
 18 17  1  0  0  0  0
 18 19  1  0  0  0  0
 19 14  2  0  0  0  0
 20 18  1  0  0  0  0
 21 22  1  0  0  0  0
 22 23  1  0  0  0  0
 24 23  1  0  0  0  0
 25 26  1  0  0  0  0
 25 24  1  0  0  0  0
 26 21  1  0  0  0  0
M  END
>  <Pose>
1

>  <Score>
-8.799

$$$$
