MODEL 1
REMARK VINA RESULT:    -8.180      0.000      0.000
REMARK INTER + INTRA:         -11.101
REMARK INTER:                 -10.571
REMARK INTRA:                  -0.529
REMARK UNBOUND:                -0.529
REMARK  6 active torsions:
REMARK  status: ('A' for Active; 'I' for Inactive)
REMARK    1  A    between atoms: N_5  and  C_7 
REMARK    2  A    between atoms: C_9  and  C_13 
REMARK    3  A    between atoms: C_10  and  O_12 
REMARK    4  A    between atoms: C_13  and  O_14 
REMARK    5  A    between atoms: C_18  and  N_19 
REMARK       I    between atoms: N_19  and  C_20 
REMARK    6  A    between atoms: C_20  and  C_22 
ROOT
ATOM      1  I   UNK d   1      55.713  89.723  22.482  0.00  0.00    -0.042 I 
ATOM      2  C   UNK d   1      55.091  87.783  23.023  0.00  0.00     0.040 A 
ATOM      3  C   UNK d   1      54.605  86.826  22.183  0.00  0.00     0.074 A 
ATOM      4  C   UNK d   1      54.340  85.735  23.012  0.00  0.00     0.148 A 
ATOM      5  N   UNK d   1      54.642  85.997  24.285  0.00  0.00    -0.312 N 
ATOM      6  C   UNK d   1      55.102  87.247  24.300  0.00  0.00     0.114 A 
ATOM      7  N   UNK d   1      53.843  84.625  22.441  0.00  0.00    -0.223 NA
ATOM      8  C   UNK d   1      53.609  84.570  21.120  0.00  0.00     0.237 A 
ATOM      9  N   UNK d   1      53.864  85.617  20.329  0.00  0.00    -0.223 NA
ATOM     10  C   UNK d   1      54.372  86.787  20.828  0.00  0.00     0.147 A 
ENDROOT
BRANCH   5  11
ATOM     11  C   UNK d   1      54.517  85.146  25.430  0.00  0.00     0.232 C 
ATOM     12  O   UNK d   1      55.226  83.956  25.323  0.00  0.00    -0.356 OA
ATOM     13  C   UNK d   1      54.836  83.272  26.471  0.00  0.00     0.176 C 
ATOM     14  C   UNK d   1      53.359  83.528  26.656  0.00  0.00     0.153 C 
ATOM     15  C   UNK d   1      53.092  84.614  25.607  0.00  0.00     0.088 C 
BRANCH  13  16
ATOM     16  C   UNK d   1      54.986  81.760  26.252  0.00  0.00     0.198 C 
BRANCH  16  17
ATOM     17  O   UNK d   1      56.030  81.537  25.344  0.00  0.00    -0.398 OA
ATOM     18  H   UNK d   1      56.440  80.626  25.487  0.00  0.00     0.209 HD
ENDBRANCH  16  17
ENDBRANCH  13  16
BRANCH  14  19
ATOM     19  O   UNK d   1      53.086  84.109  27.895  0.00  0.00    -0.393 OA
ATOM     20  H   UNK d   1      53.067  83.343  28.549  0.00  0.00     0.210 HD
ENDBRANCH  14  19
ENDBRANCH   5  11
BRANCH  10  21
ATOM     21  N   UNK d   1      54.624  87.869  19.938  0.00  0.00    -0.306 N 
ATOM     22  C   UNK d   1      53.514  88.577  19.393  0.00  0.00     0.257 C 
ATOM     23  O   UNK d   1      52.365  88.198  19.736  0.00  0.00    -0.267 OA
ATOM     24  H   UNK d   1      55.547  88.197  19.643  0.00  0.00     0.170 HD
BRANCH  22  25
ATOM     25  C   UNK d   1      53.625  89.685  18.485  0.00  0.00     0.032 A 
ATOM     26  C   UNK d   1      53.202  90.937  18.838  0.00  0.00     0.017 A 
ATOM     27  C   UNK d   1      53.306  92.025  17.969  0.00  0.00     0.001 A 
ATOM     28  C   UNK d   1      53.844  91.843  16.729  0.00  0.00     0.000 A 
ATOM     29  C   UNK d   1      54.276  90.599  16.348  0.00  0.00     0.001 A 
ATOM     30  C   UNK d   1      54.162  89.522  17.235  0.00  0.00     0.017 A 
ENDBRANCH  22  25
ENDBRANCH  10  21
TORSDOF 6
ENDMDL
