MODEL 1
REMARK VINA RESULT:    -9.353      0.000      0.000
REMARK INTER + INTRA:         -11.595
REMARK INTER:                 -10.993
REMARK INTRA:                  -0.601
REMARK UNBOUND:                -0.601
REMARK  3 active torsions:
REMARK  status: ('A' for Active; 'I' for Inactive)
REMARK    1  A    between atoms: C_7  and  C_8 
REMARK    2  A    between atoms: C_9  and  C_10 
REMARK    3  A    between atoms: C_16  and  C_19 
ROOT
ATOM      1  C   UNK d   1      55.131  87.183  22.606  0.00  0.00     0.065 A 
ATOM      2  N   UNK d   1      55.557  87.203  23.847  0.00  0.00    -0.359 N 
ATOM      3  C   UNK d   1      55.881  88.393  24.438  0.00  0.00     0.093 A 
ATOM      4  C   UNK d   1      55.788  89.599  23.814  0.00  0.00     0.049 A 
ATOM      5  C   UNK d   1      55.342  89.618  22.510  0.00  0.00     0.068 A 
ATOM      6  N   UNK d   1      55.124  90.612  21.581  0.00  0.00    -0.333 N 
ATOM      7  C   UNK d   1      54.685  90.074  20.456  0.00  0.00     0.141 A 
ATOM      8  N   UNK d   1      54.626  88.733  20.682  0.00  0.00    -0.226 NA
ATOM      9  C   UNK d   1      55.021  88.428  21.924  0.00  0.00     0.113 A 
ATOM     10  C   UNK d   1      55.357  91.986  21.927  0.00  0.00     0.158 C 
ATOM     11  C   UNK d   1      55.630  86.020  24.652  0.00  0.00     0.156 C 
ENDROOT
BRANCH   1  12
ATOM     12  C   UNK d   1      54.845  86.009  21.802  0.00  0.00     0.033 C 
ATOM     13  C   UNK d   1      53.800  85.643  21.148  0.00  0.00     0.015 C 
BRANCH  13  14
ATOM     14  C   UNK d   1      53.517  84.479  20.339  0.00  0.00    -0.016 A 
ATOM     15  C   UNK d   1      52.557  83.549  20.562  0.00  0.00     0.024 A 
ATOM     16 Br   UNK d   1      51.506  83.603  22.151  0.00  0.00    -0.050 Br
ATOM     17  C   UNK d   1      52.323  82.477  19.664  0.00  0.00     0.059 A 
ATOM     18  C   UNK d   1      53.072  82.345  18.526  0.00  0.00     0.106 A 
ATOM     19  C   UNK d   1      54.056  83.275  18.274  0.00  0.00     0.105 A 
ATOM     20  O   UNK d   1      53.099  81.435  17.464  0.00  0.00    -0.323 OA
ATOM     21  C   UNK d   1      54.274  84.312  19.153  0.00  0.00     0.052 A 
ATOM     22  O   UNK d   1      54.666  82.912  17.061  0.00  0.00    -0.323 OA
ATOM     23  C   UNK d   1      53.725  82.112  16.375  0.00  0.00     0.352 C 
ENDBRANCH  13  14
ENDBRANCH   1  12
BRANCH   7  24
ATOM     24  C   UNK d   1      54.299  90.728  19.200  0.00  0.00     0.010 A 
ATOM     25  C   UNK d   1      53.169  91.450  19.009  0.00  0.00     0.015 A 
ATOM     26  C   UNK d   1      52.890  92.008  17.747  0.00  0.00     0.001 A 
ATOM     27  C   UNK d   1      53.762  91.825  16.699  0.00  0.00     0.000 A 
ATOM     28  C   UNK d   1      54.928  91.089  16.869  0.00  0.00     0.001 A 
ATOM     29  C   UNK d   1      55.158  90.570  18.100  0.00  0.00     0.015 A 
ENDBRANCH   7  24
TORSDOF 3
ENDMDL
