MODEL 1
REMARK VINA RESULT:    -6.821      0.000      0.000
REMARK INTER + INTRA:          -8.630
REMARK INTER:                  -7.618
REMARK INTRA:                  -1.012
REMARK UNBOUND:                -1.012
REMARK  2 active torsions:
REMARK  status: ('A' for Active; 'I' for Inactive)
REMARK    1  A    between atoms: C_10  and  C_21 
REMARK    2  A    between atoms: C_26  and  C_27 
ROOT
ATOM      1 Br   UNK d   1      54.178  81.092  31.000  0.00  0.00    -0.045 Br
ATOM      2  C   UNK d   1      53.904  81.367  29.140  0.00  0.00     0.083 A 
ATOM      3  C   UNK d   1      53.112  82.392  28.627  0.00  0.00     0.107 A 
ATOM      4  C   UNK d   1      52.943  82.550  27.262  0.00  0.00     0.013 A 
ATOM      5  C   UNK d   1      53.563  81.684  26.383  0.00  0.00     0.037 A 
ATOM      6  C   UNK d   1      54.341  80.675  26.878  0.00  0.00     0.049 A 
ATOM      7  C   UNK d   1      54.505  80.525  28.232  0.00  0.00     0.144 A 
ATOM      8  O   UNK d   1      55.322  79.465  28.666  0.00  0.00    -0.189 OA
ATOM      9 Br   UNK d   1      55.176  79.509  25.602  0.00  0.00    -0.048 Br
ATOM     10  C   UNK d   1      52.165  83.555  26.728  0.00  0.00     0.003 A 
ATOM     11  C   UNK d   1      51.550  84.416  27.613  0.00  0.00     0.013 A 
ATOM     12  C   UNK d   1      51.785  84.174  29.041  0.00  0.00     0.108 A 
ATOM     13  C   UNK d   1      51.154  85.053  29.923  0.00  0.00     0.097 A 
ATOM     14  C   UNK d   1      50.366  86.076  29.450  0.00  0.00     0.209 A 
ATOM     15  O   UNK d   1      49.819  86.844  30.283  0.00  0.00    -0.285 OA
ATOM     16  C   UNK d   1      50.163  86.279  28.090  0.00  0.00     0.063 A 
ATOM     17  C   UNK d   1      50.750  85.458  27.171  0.00  0.00     0.038 A 
ATOM     18 Br   UNK d   1      49.053  87.727  27.520  0.00  0.00    -0.047 Br
ATOM     19 Br   UNK d   1      51.415  84.794  31.810  0.00  0.00    -0.044 Br
ATOM     20  O   UNK d   1      52.538  83.196  29.485  0.00  0.00    -0.306 OA
ENDROOT
BRANCH  10  21
ATOM     21  C   UNK d   1      51.981  83.715  25.285  0.00  0.00     0.016 A 
ATOM     22  C   UNK d   1      50.908  83.126  24.642  0.00  0.00     0.046 A 
ATOM     23  C   UNK d   1      50.715  83.257  23.283  0.00  0.00     0.026 A 
ATOM     24 Cl   UNK d   1      49.755  82.184  25.595  0.00  0.00    -0.083 Cl
ATOM     25  C   UNK d   1      51.625  83.998  22.557  0.00  0.00     0.026 A 
ATOM     26  C   UNK d   1      52.696  84.594  23.150  0.00  0.00     0.052 A 
ATOM     27  C   UNK d   1      52.873  84.452  24.508  0.00  0.00     0.075 A 
ATOM     28 Cl   UNK d   1      53.804  85.519  22.149  0.00  0.00    -0.083 Cl
BRANCH  27  29
ATOM     29  C   UNK d   1      54.008  85.076  25.144  0.00  0.00     0.212 C 
ATOM     30  O   UNK d   1      53.948  86.229  25.652  0.00  0.00    -0.644 OA
ATOM     31  O   UNK d   1      55.229  84.410  25.216  0.00  0.00    -0.644 OA
ENDBRANCH  27  29
ENDBRANCH  10  21
TORSDOF 2
ENDMDL
