MODEL 1
REMARK VINA RESULT:    -6.979      0.000      0.000
REMARK INTER + INTRA:          -6.979
REMARK INTER:                  -6.979
REMARK INTRA:                   0.000
REMARK UNBOUND:                 0.000
REMARK  0 active torsions:
REMARK  status: ('A' for Active; 'I' for Inactive)
ROOT
ATOM      1 Br   UNK d   1      53.578  80.093  23.810  0.00  0.00    -0.045 Br
ATOM      2  C   UNK d   1      53.216  81.945  23.532  0.00  0.00     0.083 A 
ATOM      3  C   UNK d   1      53.450  82.560  22.288  0.00  0.00     0.106 A 
ATOM      4  C   UNK d   1      53.205  83.880  22.049  0.00  0.00     0.023 A 
ATOM      5  C   UNK d   1      52.696  84.643  23.103  0.00  0.00     0.036 A 
ATOM      6  C   UNK d   1      52.470  84.046  24.308  0.00  0.00     0.049 A 
ATOM      7  C   UNK d   1      52.715  82.711  24.556  0.00  0.00     0.144 A 
ATOM      8  O   UNK d   1      52.457  82.164  25.824  0.00  0.00    -0.189 OA
ATOM      9 Br   UNK d   1      51.774  85.080  25.753  0.00  0.00    -0.048 Br
ATOM     10  C   UNK d   1      53.456  84.489  20.750  0.00  0.00     0.159 A 
ATOM     11  O   UNK d   1      52.194  84.930  20.256  0.00  0.00    -0.291 OA
ATOM     12  C   UNK d   1      52.163  86.283  20.056  0.00  0.00     0.295 A 
ATOM     13  O   UNK d   1      51.183  86.935  19.628  0.00  0.00    -0.259 OA
ATOM     14  C   UNK d   1      53.474  86.771  20.437  0.00  0.00     0.049 A 
ATOM     15  C   UNK d   1      54.273  85.732  20.856  0.00  0.00     0.003 A 
ATOM     16  C   UNK d   1      55.539  86.016  21.250  0.00  0.00     0.012 A 
ATOM     17  C   UNK d   1      55.994  87.318  21.224  0.00  0.00     0.001 A 
ATOM     18  C   UNK d   1      55.197  88.362  20.805  0.00  0.00     0.001 A 
ATOM     19  C   UNK d   1      53.915  88.091  20.404  0.00  0.00     0.018 A 
ATOM     20  C   UNK d   1      53.987  83.560  19.758  0.00  0.00     0.023 A 
ATOM     21  C   UNK d   1      54.212  82.245  20.057  0.00  0.00     0.106 A 
ATOM     22  C   UNK d   1      54.725  81.362  19.085  0.00  0.00     0.083 A 
ATOM     23  C   UNK d   1      54.995  81.846  17.827  0.00  0.00     0.144 A 
ATOM     24  C   UNK d   1      54.769  83.179  17.515  0.00  0.00     0.049 A 
ATOM     25  C   UNK d   1      54.272  84.030  18.463  0.00  0.00     0.036 A 
ATOM     26 Br   UNK d   1      55.138  83.865  15.776  0.00  0.00    -0.048 Br
ATOM     27  O   UNK d   1      55.499  80.967  16.880  0.00  0.00    -0.189 OA
ATOM     28 Br   UNK d   1      55.027  79.529  19.543  0.00  0.00    -0.045 Br
ATOM     29  O   UNK d   1      53.958  81.703  21.309  0.00  0.00    -0.306 OA
ENDROOT
TORSDOF 0
ENDMDL
