/Users/jonathanwahrer/Desktop/Msc/3_Semester/Drug_Design_Praktikum/waehrer_HTS_screening/HTS_experiment/out/docking_results/vina_output/3npc/0971_docked.pdbqt
 OpenBabel03192220003D

 29 33  0  0  1  0  0  0  0  0999 V2000
   53.5780   80.0930   23.8100 Br  0  0  0  0  0  0  0  0  0  0  0  0
   53.2160   81.9450   23.5320 C   0  0  0  0  0  0  0  0  0  0  0  0
   53.4500   82.5600   22.2880 C   0  0  0  0  0  0  0  0  0  0  0  0
   53.2050   83.8800   22.0490 C   0  0  0  0  0  0  0  0  0  0  0  0
   52.6960   84.6430   23.1030 C   0  0  0  0  0  3  0  0  0  0  0  0
   52.4700   84.0460   24.3080 C   0  0  0  0  0  0  0  0  0  0  0  0
   52.7150   82.7110   24.5560 C   0  0  0  0  0  0  0  0  0  0  0  0
   52.4570   82.1640   25.8240 O   0  0  0  0  0  1  0  0  0  0  0  0
   51.7740   85.0800   25.7530 Br  0  0  0  0  0  0  0  0  0  0  0  0
   53.4560   84.4890   20.7500 C   0  0  1  0  0  0  0  0  0  0  0  0
   52.1940   84.9300   20.2560 O   0  0  0  0  0  0  0  0  0  0  0  0
   52.1630   86.2830   20.0560 C   0  0  0  0  0  0  0  0  0  0  0  0
   51.1830   86.9350   19.6280 O   0  0  0  0  0  0  0  0  0  0  0  0
   53.4740   86.7710   20.4370 C   0  0  0  0  0  0  0  0  0  0  0  0
   54.2730   85.7320   20.8560 C   0  0  0  0  0  0  0  0  0  0  0  0
   55.5390   86.0160   21.2500 C   0  0  0  0  0  3  0  0  0  0  0  0
   55.9940   87.3180   21.2240 C   0  0  0  0  0  3  0  0  0  0  0  0
   55.1970   88.3620   20.8050 C   0  0  0  0  0  3  0  0  0  0  0  0
   53.9150   88.0910   20.4040 C   0  0  0  0  0  3  0  0  0  0  0  0
   53.9870   83.5600   19.7580 C   0  0  0  0  0  0  0  0  0  0  0  0
   54.2120   82.2450   20.0570 C   0  0  0  0  0  0  0  0  0  0  0  0
   54.7250   81.3620   19.0850 C   0  0  0  0  0  0  0  0  0  0  0  0
   54.9950   81.8460   17.8270 C   0  0  0  0  0  0  0  0  0  0  0  0
   54.7690   83.1790   17.5150 C   0  0  0  0  0  0  0  0  0  0  0  0
   54.2720   84.0300   18.4630 C   0  0  0  0  0  3  0  0  0  0  0  0
   55.1380   83.8650   15.7760 Br  0  0  0  0  0  0  0  0  0  0  0  0
   55.4990   80.9670   16.8800 O   0  0  0  0  0  1  0  0  0  0  0  0
   55.0270   79.5290   19.5430 Br  0  0  0  0  0  0  0  0  0  0  0  0
   53.9580   81.7030   21.3090 O   0  0  0  0  0  0  0  0  0  0  0  0
  2  1  1  0  0  0  0
  2  7  1  0  0  0  0
  3  2  2  0  0  0  0
  4  3  1  0  0  0  0
  4  5  2  0  0  0  0
  5  6  1  0  0  0  0
  6  7  2  0  0  0  0
  6  9  1  0  0  0  0
  7  8  1  0  0  0  0
 10 20  1  6  0  0  0
 10 15  1  0  0  0  0
 10  4  1  0  0  0  0
 11 10  1  0  0  0  0
 12 11  1  0  0  0  0
 12 14  1  0  0  0  0
 13 12  2  0  0  0  0
 14 15  1  0  0  0  0
 15 16  2  0  0  0  0
 17 16  1  0  0  0  0
 18 17  2  0  0  0  0
 19 14  2  0  0  0  0
 19 18  1  0  0  0  0
 20 21  1  0  0  0  0
 21 29  1  0  0  0  0
 22 28  1  0  0  0  0
 22 21  2  0  0  0  0
 23 22  1  0  0  0  0
 24 23  2  0  0  0  0
 24 25  1  0  0  0  0
 25 20  2  0  0  0  0
 26 24  1  0  0  0  0
 27 23  1  0  0  0  0
 29  3  1  0  0  0  0
M  END
>  <Pose>
1

>  <Score>
-6.979

$$$$
