MODEL 1
REMARK VINA RESULT:     0.540      0.000      0.000
REMARK INTER + INTRA:           0.540
REMARK INTER:                   0.540
REMARK INTRA:                   0.000
REMARK UNBOUND:                 0.000
REMARK  0 active torsions:
REMARK  status: ('A' for Active; 'I' for Inactive)
ROOT
ATOM      1  I   UNK d   1      55.190  80.411  30.236  0.00  0.00    -0.038 I 
ATOM      2  C   UNK d   1      53.805  81.048  31.697  0.00  0.00     0.078 A 
ATOM      3  C   UNK d   1      52.920  82.060  31.336  0.00  0.00     0.105 A 
ATOM      4  C   UNK d   1      52.019  82.490  32.254  0.00  0.00     0.023 A 
ATOM      5  C   UNK d   1      52.010  81.906  33.523  0.00  0.00     0.035 A 
ATOM      6  C   UNK d   1      52.881  80.904  33.890  0.00  0.00     0.045 A 
ATOM      7  C   UNK d   1      53.795  80.472  32.951  0.00  0.00     0.143 A 
ATOM      8  O   UNK d   1      54.683  79.465  33.299  0.00  0.00    -0.189 OA
ATOM      9  I   UNK d   1      52.826  80.052  35.830  0.00  0.00    -0.042 I 
ATOM     10  C   UNK d   1      51.052  83.538  31.982  0.00  0.00     0.161 A 
ATOM     11  O   UNK d   1      51.213  84.644  32.882  0.00  0.00    -0.291 OA
ATOM     12  C   UNK d   1      50.071  84.901  33.594  0.00  0.00     0.297 A 
ATOM     13  O   UNK d   1      49.846  85.788  34.466  0.00  0.00    -0.259 OA
ATOM     14  C   UNK d   1      49.087  83.921  33.154  0.00  0.00     0.074 A 
ATOM     15  C   UNK d   1      49.659  83.122  32.211  0.00  0.00     0.028 A 
ATOM     16  C   UNK d   1      48.925  82.092  31.621  0.00  0.00     0.068 A 
ATOM     17  C   UNK d   1      47.614  81.860  31.975  0.00  0.00     0.080 A 
ATOM     18  C   UNK d   1      47.032  82.679  32.940  0.00  0.00     0.080 A 
ATOM     19  C   UNK d   1      47.750  83.692  33.522  0.00  0.00     0.074 A 
ATOM     20 Cl   UNK d   1      47.016  84.696  34.714  0.00  0.00    -0.081 Cl
ATOM     21 Cl   UNK d   1      45.379  82.438  33.431  0.00  0.00    -0.081 Cl
ATOM     22 Cl   UNK d   1      46.724  80.561  31.215  0.00  0.00    -0.081 Cl
ATOM     23 Cl   UNK d   1      49.714  81.114  30.429  0.00  0.00    -0.082 Cl
ATOM     24  C   UNK d   1      51.177  84.066  30.596  0.00  0.00     0.023 A 
ATOM     25  C   UNK d   1      52.089  83.613  29.706  0.00  0.00     0.105 A 
ATOM     26  C   UNK d   1      52.097  84.197  28.440  0.00  0.00     0.078 A 
ATOM     27  C   UNK d   1      51.226  85.197  28.073  0.00  0.00     0.143 A 
ATOM     28  C   UNK d   1      50.309  85.634  29.007  0.00  0.00     0.045 A 
ATOM     29  C   UNK d   1      50.273  85.083  30.262  0.00  0.00     0.035 A 
ATOM     30  I   UNK d   1      48.963  87.164  28.475  0.00  0.00    -0.042 I 
ATOM     31  O   UNK d   1      51.233  85.771  26.828  0.00  0.00    -0.189 OA
ATOM     32  I   UNK d   1      53.507  83.503  27.049  0.00  0.00    -0.038 I 
ATOM     33  O   UNK d   1      52.979  82.609  30.040  0.00  0.00    -0.307 OA
ENDROOT
TORSDOF 0
ENDMDL
