/Users/jonathanwahrer/Desktop/Msc/3_Semester/Drug_Design_Praktikum/waehrer_HTS_screening/HTS_experiment/out/docking_results/vina_output/3npc/0979_docked.pdbqt
 OpenBabel03192220003D

 29 33  0  0  1  0  0  0  0  0999 V2000
   49.3400   81.3360   25.1220 I   0  0  0  0  0  0  0  0  0  0  0  0
   50.2690   82.5390   26.5990 C   0  0  0  0  0  0  0  0  0  0  0  0
   49.6420   82.5730   27.8560 C   0  0  0  0  0  0  0  0  0  0  0  0
   50.2180   83.3380   28.8210 C   0  0  0  0  0  0  0  0  0  0  0  0
   51.3950   84.0480   28.5230 C   0  0  0  0  0  3  0  0  0  0  0  0
   52.0050   84.0130   27.2960 C   0  0  0  0  0  0  0  0  0  0  0  0
   51.4200   83.2380   26.3190 C   0  0  0  0  0  0  0  0  0  0  0  0
   52.0110   83.1800   25.0650 O   0  0  0  0  0  1  0  0  0  0  0  0
   53.7790   85.1090   26.9160 I   0  0  0  0  0  0  0  0  0  0  0  0
   49.6390   83.4390   30.1660 C   0  0  2  0  0  0  0  0  0  0  0  0
   49.4410   84.7850   30.5530 O   0  0  0  0  0  0  0  0  0  0  0  0
   50.1570   85.1180   31.6720 C   0  0  0  0  0  0  0  0  0  0  0  0
   50.2100   86.2220   32.2780 O   0  0  0  0  0  0  0  0  0  0  0  0
   50.8920   83.9290   32.0800 C   0  0  0  0  0  0  0  0  0  0  0  0
   50.5960   82.9380   31.2010 C   0  0  0  0  0  0  0  0  0  0  0  0
   51.1900   81.6850   31.3890 C   0  0  0  0  0  3  0  0  0  0  0  0
   52.0510   81.4770   32.4420 C   0  0  0  0  0  3  0  0  0  0  0  0
   52.3550   82.4820   33.3350 C   0  0  0  0  0  3  0  0  0  0  0  0
   51.7770   83.7170   33.1610 C   0  0  0  0  0  3  0  0  0  0  0  0
   48.4110   82.6430   30.3320 C   0  0  0  0  0  0  0  0  0  0  0  0
   47.8860   81.9000   29.3310 C   0  0  0  0  0  0  0  0  0  0  0  0
   46.7220   81.1740   29.5600 C   0  0  0  0  0  0  0  0  0  0  0  0
   46.1090   81.2050   30.7810 C   0  0  0  0  0  0  0  0  0  0  0  0
   46.6150   81.9490   31.8220 C   0  0  0  0  0  0  0  0  0  0  0  0
   47.7600   82.6550   31.5720 C   0  0  0  0  0  3  0  0  0  0  0  0
   45.6620   81.9920   33.7090 I   0  0  0  0  0  0  0  0  0  0  0  0
   44.9480   80.4700   30.9830 O   0  0  0  0  0  1  0  0  0  0  0  0
   45.9040   80.0090   27.9810 I   0  0  0  0  0  0  0  0  0  0  0  0
   48.4740   81.8340   28.0580 O   0  0  0  0  0  0  0  0  0  0  0  0
  1  2  1  0  0  0  0
  2  3  1  0  0  0  0
  3 29  1  0  0  0  0
  3  4  2  0  0  0  0
  5  4  1  0  0  0  0
  6  5  2  0  0  0  0
  7  2  2  0  0  0  0
  7  6  1  0  0  0  0
  8  7  1  0  0  0  0
  9  6  1  0  0  0  0
 10  4  1  6  0  0  0
 10 20  1  0  0  0  0
 10 11  1  0  0  0  0
 10 15  1  0  0  0  0
 11 12  1  0  0  0  0
 12 14  1  0  0  0  0
 12 13  2  0  0  0  0
 14 19  1  0  0  0  0
 15 16  1  0  0  0  0
 15 14  2  0  0  0  0
 16 17  2  0  0  0  0
 17 18  1  0  0  0  0
 19 18  2  0  0  0  0
 20 25  1  0  0  0  0
 21 22  1  0  0  0  0
 21 20  2  0  0  0  0
 22 23  2  0  0  0  0
 23 27  1  0  0  0  0
 23 24  1  0  0  0  0
 24 26  1  0  0  0  0
 25 24  2  0  0  0  0
 28 22  1  0  0  0  0
 29 21  1  0  0  0  0
M  END
>  <Pose>
1

>  <Score>
-5.957

$$$$
