MODEL 1
REMARK VINA RESULT:    -5.957      0.000      0.000
REMARK INTER + INTRA:          -5.957
REMARK INTER:                  -5.957
REMARK INTRA:                   0.000
REMARK UNBOUND:                 0.000
REMARK  0 active torsions:
REMARK  status: ('A' for Active; 'I' for Inactive)
ROOT
ATOM      1  I   UNK d   1      49.340  81.336  25.122  0.00  0.00    -0.038 I 
ATOM      2  C   UNK d   1      50.269  82.539  26.599  0.00  0.00     0.078 A 
ATOM      3  C   UNK d   1      49.642  82.573  27.856  0.00  0.00     0.105 A 
ATOM      4  C   UNK d   1      50.218  83.338  28.821  0.00  0.00     0.023 A 
ATOM      5  C   UNK d   1      51.395  84.048  28.523  0.00  0.00     0.035 A 
ATOM      6  C   UNK d   1      52.005  84.013  27.296  0.00  0.00     0.045 A 
ATOM      7  C   UNK d   1      51.420  83.238  26.319  0.00  0.00     0.143 A 
ATOM      8  O   UNK d   1      52.011  83.180  25.065  0.00  0.00    -0.189 OA
ATOM      9  I   UNK d   1      53.779  85.109  26.916  0.00  0.00    -0.042 I 
ATOM     10  C   UNK d   1      49.639  83.439  30.166  0.00  0.00     0.159 A 
ATOM     11  O   UNK d   1      49.441  84.785  30.553  0.00  0.00    -0.291 OA
ATOM     12  C   UNK d   1      50.157  85.118  31.672  0.00  0.00     0.295 A 
ATOM     13  O   UNK d   1      50.210  86.222  32.278  0.00  0.00    -0.259 OA
ATOM     14  C   UNK d   1      50.892  83.929  32.080  0.00  0.00     0.049 A 
ATOM     15  C   UNK d   1      50.596  82.938  31.201  0.00  0.00     0.003 A 
ATOM     16  C   UNK d   1      51.190  81.685  31.389  0.00  0.00     0.012 A 
ATOM     17  C   UNK d   1      52.051  81.477  32.442  0.00  0.00     0.001 A 
ATOM     18  C   UNK d   1      52.355  82.482  33.335  0.00  0.00     0.001 A 
ATOM     19  C   UNK d   1      51.777  83.717  33.161  0.00  0.00     0.018 A 
ATOM     20  C   UNK d   1      48.411  82.643  30.332  0.00  0.00     0.023 A 
ATOM     21  C   UNK d   1      47.886  81.900  29.331  0.00  0.00     0.105 A 
ATOM     22  C   UNK d   1      46.722  81.174  29.560  0.00  0.00     0.078 A 
ATOM     23  C   UNK d   1      46.109  81.205  30.781  0.00  0.00     0.143 A 
ATOM     24  C   UNK d   1      46.615  81.949  31.822  0.00  0.00     0.045 A 
ATOM     25  C   UNK d   1      47.760  82.655  31.572  0.00  0.00     0.035 A 
ATOM     26  I   UNK d   1      45.662  81.992  33.709  0.00  0.00    -0.042 I 
ATOM     27  O   UNK d   1      44.948  80.470  30.983  0.00  0.00    -0.189 OA
ATOM     28  I   UNK d   1      45.904  80.009  27.981  0.00  0.00    -0.038 I 
ATOM     29  O   UNK d   1      48.474  81.834  28.058  0.00  0.00    -0.307 OA
ENDROOT
TORSDOF 0
ENDMDL
