MODEL 1
REMARK VINA RESULT:    -7.658      0.000      0.000
REMARK INTER + INTRA:          -9.001
REMARK INTER:                  -8.553
REMARK INTRA:                  -0.448
REMARK UNBOUND:                -0.448
REMARK  2 active torsions:
REMARK  status: ('A' for Active; 'I' for Inactive)
REMARK    1  A    between atoms: C_9  and  C_19 
REMARK    2  A    between atoms: C_20  and  C_25 
ROOT
ATOM      1  I   UNK d   1      53.232  79.731  23.087  0.00  0.00    -0.038 I 
ATOM      2  C   UNK d   1      52.772  81.740  22.647  0.00  0.00     0.077 A 
ATOM      3  C   UNK d   1      53.211  82.368  21.499  0.00  0.00     0.106 A 
ATOM      4  C   UNK d   1      52.913  83.682  21.207  0.00  0.00     0.011 A 
ATOM      5  C   UNK d   1      52.141  84.378  22.119  0.00  0.00     0.018 A 
ATOM      6  C   UNK d   1      51.696  83.756  23.275  0.00  0.00     0.042 A 
ATOM      7  C   UNK d   1      52.002  82.431  23.561  0.00  0.00     0.126 A 
ATOM      8  O   UNK d   1      51.529  81.855  24.737  0.00  0.00    -0.191 OA
ATOM      9  C   UNK d   1      53.341  84.327  20.065  0.00  0.00     0.001 A 
ATOM     10  C   UNK d   1      54.114  83.564  19.194  0.00  0.00     0.011 A 
ATOM     11  C   UNK d   1      54.408  82.176  19.538  0.00  0.00     0.107 A 
ATOM     12  C   UNK d   1      55.177  81.472  18.635  0.00  0.00     0.091 A 
ATOM     13  C   UNK d   1      55.654  82.023  17.466  0.00  0.00     0.191 A 
ATOM     14  O   UNK d   1      56.359  81.360  16.649  0.00  0.00    -0.287 OA
ATOM     15  C   UNK d   1      55.377  83.336  17.139  0.00  0.00     0.057 A 
ATOM     16  C   UNK d   1      54.608  84.068  18.023  0.00  0.00     0.019 A 
ATOM     17  I   UNK d   1      55.653  79.465  19.044  0.00  0.00    -0.037 I 
ATOM     18  O   UNK d   1      53.940  81.680  20.657  0.00  0.00    -0.306 OA
ENDROOT
BRANCH   9  19
ATOM     19  C   UNK d   1      53.028  85.717  19.753  0.00  0.00    -0.007 A 
ATOM     20  C   UNK d   1      53.777  86.717  20.365  0.00  0.00     0.051 A 
ATOM     21  C   UNK d   1      53.520  88.037  20.103  0.00  0.00     0.019 A 
ATOM     22  C   UNK d   1      52.511  88.373  19.228  0.00  0.00     0.001 A 
ATOM     23  C   UNK d   1      51.756  87.402  18.609  0.00  0.00     0.001 A 
ATOM     24  C   UNK d   1      52.032  86.082  18.886  0.00  0.00     0.013 A 
BRANCH  20  25
ATOM     25  C   UNK d   1      54.849  86.373  21.295  0.00  0.00     0.210 C 
ATOM     26  O   UNK d   1      55.940  85.887  20.923  0.00  0.00    -0.644 OA
ATOM     27  O   UNK d   1      54.691  86.574  22.658  0.00  0.00    -0.644 OA
ENDBRANCH  20  25
ENDBRANCH   9  19
TORSDOF 2
ENDMDL
