MODEL 1
REMARK VINA RESULT:    -7.958      0.000      0.000
REMARK INTER + INTRA:          -9.333
REMARK INTER:                  -9.121
REMARK INTRA:                  -0.212
REMARK UNBOUND:                -0.212
REMARK  4 active torsions:
REMARK  status: ('A' for Active; 'I' for Inactive)
REMARK    1  A    between atoms: C_7  and  N_10 
REMARK    2  A    between atoms: C_8  and  O_9 
REMARK    3  A    between atoms: C_13  and  N_21 
REMARK    4  A    between atoms: C_15  and  O_20 
ROOT
ATOM      1  N   UNK d   1      53.391  85.013  25.663  0.00  0.00    -0.277 N 
ATOM      2  C   UNK d   1      54.118  85.959  25.058  0.00  0.00     0.186 A 
ATOM      3  N   UNK d   1      54.537  87.186  25.472  0.00  0.00    -0.042 NA
ATOM      4  C   UNK d   1      55.267  88.002  24.717  0.00  0.00     0.724 A 
ATOM      5  N   UNK d   1      55.609  87.596  23.481  0.00  0.00    -0.036 NA
ATOM      6  C   UNK d   1      55.229  86.391  23.007  0.00  0.00     0.214 A 
ATOM      7  C   UNK d   1      54.471  85.544  23.789  0.00  0.00     0.159 A 
ATOM      8  N   UNK d   1      53.939  84.322  23.640  0.00  0.00    -0.216 NA
ATOM      9  C   UNK d   1      53.284  84.003  24.781  0.00  0.00     0.182 A 
ATOM     10 Br   UNK d   1      52.338  82.372  25.119  0.00  0.00    -0.008 Br
ENDROOT
BRANCH   1  11
ATOM     11  C   UNK d   1      52.869  85.147  27.001  0.00  0.00     0.263 C 
ATOM     12  O   UNK d   1      53.223  84.070  27.813  0.00  0.00    -0.353 OA
ATOM     13  C   UNK d   1      52.543  84.367  28.968  0.00  0.00     0.180 C 
ATOM     14  C   UNK d   1      51.114  84.561  28.447  0.00  0.00     0.198 C 
ATOM     15  C   UNK d   1      52.521  83.293  29.989  0.00  0.00     0.216 C 
ATOM     16  O   UNK d   1      50.547  85.548  29.250  0.00  0.00    -0.279 OA
ATOM     17  C   UNK d   1      51.346  85.038  27.029  0.00  0.00     0.199 C 
ATOM     18  P   UNK d   1      51.083  85.237  30.840  0.00  0.00     0.408 P 
ATOM     19  O   UNK d   1      52.060  86.296  31.299  0.00  0.00    -0.624 OA
ATOM     20  O   UNK d   1      51.661  83.684  31.021  0.00  0.00    -0.287 OA
ATOM     21  O   UNK d   1      49.700  85.410  31.834  0.00  0.00    -0.624 OA
BRANCH  17  22
ATOM     22  O   UNK d   1      50.725  86.229  26.746  0.00  0.00    -0.388 OA
ATOM     23  H   UNK d   1      50.091  86.471  27.493  0.00  0.00     0.210 HD
ENDBRANCH  17  22
ENDBRANCH   1  11
BRANCH   4  24
ATOM     24  N   UNK d   1      55.680  89.279  25.196  0.00  0.00    -0.231 N 
ATOM     25  H   UNK d   1      56.397  89.780  24.628  0.00  0.00     0.174 HD
ATOM     26  H   UNK d   1      55.291  89.704  26.074  0.00  0.00     0.174 HD
ENDBRANCH   4  24
BRANCH   6  27
ATOM     27  O   UNK d   1      55.581  85.967  21.729  0.00  0.00    -0.343 OA
ATOM     28  H   UNK d   1      55.924  84.997  21.657  0.00  0.00     0.219 HD
ENDBRANCH   6  27
TORSDOF 4
ENDMDL
