MODEL 1
REMARK VINA RESULT:    -9.044      0.000      0.000
REMARK INTER + INTRA:         -11.410
REMARK INTER:                 -10.366
REMARK INTRA:                  -1.044
REMARK UNBOUND:                -1.044
REMARK  3 active torsions:
REMARK  status: ('A' for Active; 'I' for Inactive)
REMARK    1  A    between atoms: C_7  and  N_10 
REMARK    2  A    between atoms: C_8  and  O_9 
REMARK    3  A    between atoms: C_21  and  C_23 
ROOT
ATOM      1  N   UNK d   1      53.316  85.061  20.681  0.00  0.00    -0.279 N 
ATOM      2  C   UNK d   1      53.420  84.178  19.656  0.00  0.00     0.162 A 
ATOM      3  C   UNK d   1      53.769  82.929  20.124  0.00  0.00     0.173 A 
ATOM      4  N   UNK d   1      53.875  83.071  21.461  0.00  0.00    -0.214 NA
ATOM      5  C   UNK d   1      53.603  84.351  21.786  0.00  0.00     0.182 A 
ATOM      6 Br   UNK d   1      53.602  85.124  23.536  0.00  0.00    -0.008 Br
ATOM      7  C   UNK d   1      53.925  81.888  19.231  0.00  0.00     0.298 A 
ATOM      8  O   UNK d   1      54.241  80.750  19.645  0.00  0.00    -0.264 OA
ATOM      9  N   UNK d   1      53.747  82.046  17.900  0.00  0.00    -0.115 N 
ATOM     10  C   UNK d   1      53.407  83.273  17.465  0.00  0.00     0.716 A 
ATOM     11  N   UNK d   1      53.292  83.168  16.129  0.00  0.00    -0.062 NA
ATOM     12  C   UNK d   1      53.546  81.917  15.703  0.00  0.00     0.102 A 
ATOM     13  C   UNK d   1      53.839  81.195  16.841  0.00  0.00     0.152 A 
ATOM     14  N   UNK d   1      53.248  84.314  18.330  0.00  0.00    -0.171 N 
ATOM     15  H   UNK d   1      52.984  85.265  17.988  0.00  0.00     0.186 HD
ENDROOT
BRANCH   1  16
ATOM     16  C   UNK d   1      52.969  86.478  20.610  0.00  0.00     0.263 C 
ATOM     17  O   UNK d   1      51.967  86.701  19.668  0.00  0.00    -0.353 OA
ATOM     18  C   UNK d   1      52.071  87.994  19.235  0.00  0.00     0.180 C 
ATOM     19  C   UNK d   1      53.579  88.256  19.204  0.00  0.00     0.197 C 
ATOM     20  C   UNK d   1      51.575  88.211  17.826  0.00  0.00     0.214 C 
ATOM     21  O   UNK d   1      53.740  89.605  19.506  0.00  0.00    -0.292 OA
ATOM     22  C   UNK d   1      54.129  87.344  20.259  0.00  0.00     0.199 C 
ATOM     23  P   UNK d   1      52.557  90.443  18.621  0.00  0.00     0.422 P 
ATOM     24  S   UNK d   1      53.328  91.791  17.842  0.00  0.00     0.009 SA
ATOM     25  O   UNK d   1      51.900  89.479  17.399  0.00  0.00    -0.300 OA
ATOM     26  O   UNK d   1      51.285  90.951  19.611  0.00  0.00    -0.240 OA
BRANCH  22  27
ATOM     27  O   UNK d   1      54.566  88.082  21.367  0.00  0.00    -0.388 OA
ATOM     28  H   UNK d   1      55.534  88.014  21.495  0.00  0.00     0.210 HD
ENDBRANCH  22  27
ENDBRANCH   1  16
BRANCH  12  29
ATOM     29  C   UNK d   1      53.520  81.420  14.321  0.00  0.00    -0.005 A 
ATOM     30  C   UNK d   1      54.686  81.031  13.702  0.00  0.00     0.014 A 
ATOM     31  C   UNK d   1      54.694  80.556  12.396  0.00  0.00     0.001 A 
ATOM     32  C   UNK d   1      53.502  80.476  11.714  0.00  0.00     0.000 A 
ATOM     33  C   UNK d   1      52.306  80.859  12.301  0.00  0.00     0.001 A 
ATOM     34  C   UNK d   1      52.358  81.322  13.598  0.00  0.00     0.014 A 
ENDBRANCH  12  29
TORSDOF 3
ENDMDL
