MODEL 1
REMARK VINA RESULT:    -7.511      0.000      0.000
REMARK INTER + INTRA:          -8.518
REMARK INTER:                  -8.390
REMARK INTRA:                  -0.128
REMARK UNBOUND:                -0.128
REMARK  3 active torsions:
REMARK  status: ('A' for Active; 'I' for Inactive)
REMARK    1  A    between atoms: C_7  and  N_10 
REMARK    2  A    between atoms: C_8  and  O_9 
REMARK    3  A    between atoms: C_15  and  N_20 
ROOT
ATOM      1  P   UNK d   1      55.725  86.056  24.235  0.00  0.00     0.422 P 
ATOM      2  S   UNK d   1      54.247  85.207  23.859  0.00  0.00     0.009 SA
ATOM      3  O   UNK d   1      55.402  87.725  24.401  0.00  0.00    -0.292 OA
ATOM      4  C   UNK d   1      55.160  88.210  23.139  0.00  0.00     0.197 C 
ATOM      5  C   UNK d   1      56.428  88.028  22.293  0.00  0.00     0.180 C 
ATOM      6  O   UNK d   1      56.126  88.864  21.219  0.00  0.00    -0.353 OA
ATOM      7  C   UNK d   1      55.689  90.042  21.775  0.00  0.00     0.263 C 
ATOM      8  C   UNK d   1      55.038  89.721  23.096  0.00  0.00     0.199 C 
ATOM      9  C   UNK d   1      56.612  86.598  21.890  0.00  0.00     0.214 C 
ATOM     10  O   UNK d   1      56.861  85.852  23.028  0.00  0.00    -0.300 OA
ATOM     11  O   UNK d   1      56.290  85.489  25.700  0.00  0.00    -0.240 OA
ENDROOT
BRANCH   7  12
ATOM     12  N   UNK d   1      54.702  90.720  20.956  0.00  0.00    -0.278 N 
ATOM     13  C   UNK d   1      53.977  90.116  19.981  0.00  0.00     0.168 A 
ATOM     14  N   UNK d   1      53.956  88.838  19.524  0.00  0.00    -0.221 NA
ATOM     15  C   UNK d   1      53.139  91.052  19.411  0.00  0.00     0.151 A 
ATOM     16  C   UNK d   1      53.132  88.469  18.523  0.00  0.00     0.237 A 
ATOM     17  N   UNK d   1      52.308  89.386  17.960  0.00  0.00    -0.222 NA
ATOM     18  C   UNK d   1      52.299  90.662  18.385  0.00  0.00     0.155 A 
ATOM     19  N   UNK d   1      53.356  92.221  20.041  0.00  0.00    -0.216 NA
ATOM     20  C   UNK d   1      54.307  92.005  20.976  0.00  0.00     0.182 A 
ATOM     21 Br   UNK d   1      55.045  93.290  22.197  0.00  0.00    -0.008 Br
BRANCH  18  22
ATOM     22  N   UNK d   1      51.422  91.617  17.780  0.00  0.00    -0.382 N 
ATOM     23  H   UNK d   1      50.395  91.379  17.705  0.00  0.00     0.157 HD
ATOM     24  H   UNK d   1      51.757  92.530  17.414  0.00  0.00     0.157 HD
ENDBRANCH  18  22
ENDBRANCH   7  12
BRANCH   8  25
ATOM     25  O   UNK d   1      55.880  90.218  24.100  0.00  0.00    -0.388 OA
ATOM     26  H   UNK d   1      56.804  89.921  24.007  0.00  0.00     0.210 HD
ENDBRANCH   8  25
TORSDOF 3
ENDMDL
