MODEL 1
REMARK VINA RESULT:    -8.056      0.000      0.000
REMARK INTER + INTRA:          -8.911
REMARK INTER:                  -8.998
REMARK INTRA:                   0.087
REMARK UNBOUND:                 0.087
REMARK  3 active torsions:
REMARK  status: ('A' for Active; 'I' for Inactive)
REMARK    1  A    between atoms: C_7  and  N_10 
REMARK    2  A    between atoms: C_8  and  O_9 
REMARK    3  A    between atoms: C_15  and  N_20 
ROOT
ATOM      1  P   UNK d   1      56.848  86.314  24.529  0.00  0.00     0.408 P 
ATOM      2  O   UNK d   1      56.340  85.104  25.316  0.00  0.00    -0.624 OA
ATOM      3  O   UNK d   1      55.736  87.554  24.737  0.00  0.00    -0.279 OA
ATOM      4  C   UNK d   1      55.417  88.160  23.549  0.00  0.00     0.198 C 
ATOM      5  C   UNK d   1      56.687  88.129  22.687  0.00  0.00     0.180 C 
ATOM      6  O   UNK d   1      56.608  89.204  21.852  0.00  0.00    -0.353 OA
ATOM      7  C   UNK d   1      55.818  90.172  22.409  0.00  0.00     0.263 C 
ATOM      8  C   UNK d   1      55.193  89.645  23.654  0.00  0.00     0.199 C 
ATOM      9  C   UNK d   1      56.698  86.795  22.014  0.00  0.00     0.216 C 
ATOM     10  O   UNK d   1      57.030  85.836  22.941  0.00  0.00    -0.287 OA
ATOM     11  O   UNK d   1      58.342  86.737  25.246  0.00  0.00    -0.624 OA
ENDROOT
BRANCH   7  12
ATOM     12  N   UNK d   1      54.836  90.572  21.410  0.00  0.00    -0.278 N 
ATOM     13  C   UNK d   1      54.189  89.743  20.558  0.00  0.00     0.168 A 
ATOM     14  N   UNK d   1      54.262  88.411  20.399  0.00  0.00    -0.221 NA
ATOM     15  C   UNK d   1      53.345  90.499  19.772  0.00  0.00     0.151 A 
ATOM     16  C   UNK d   1      53.503  87.815  19.465  0.00  0.00     0.237 A 
ATOM     17  N   UNK d   1      52.680  88.555  18.700  0.00  0.00    -0.222 NA
ATOM     18  C   UNK d   1      52.555  89.887  18.802  0.00  0.00     0.155 A 
ATOM     19  N   UNK d   1      53.474  91.771  20.141  0.00  0.00    -0.216 NA
ATOM     20  C   UNK d   1      54.380  91.805  21.134  0.00  0.00     0.182 A 
ATOM     21 Br   UNK d   1      54.994  93.368  22.083  0.00  0.00    -0.008 Br
BRANCH  18  22
ATOM     22  N   UNK d   1      51.690  90.679  18.001  0.00  0.00    -0.382 N 
ATOM     23  H   UNK d   1      50.859  91.142  18.477  0.00  0.00     0.157 HD
ATOM     24  H   UNK d   1      51.810  90.836  16.996  0.00  0.00     0.157 HD
ENDBRANCH  18  22
ENDBRANCH   7  12
BRANCH   8  25
ATOM     25  O   UNK d   1      55.758  90.137  24.814  0.00  0.00    -0.388 OA
ATOM     26  H   UNK d   1      56.716  90.280  24.755  0.00  0.00     0.210 HD
ENDBRANCH   8  25
TORSDOF 3
ENDMDL
