/Users/jonathanwahrer/Desktop/Msc/3_Semester/Drug_Design_Praktikum/waehrer_HTS_screening/HTS_experiment/out/docking_results/vina_output/3npc/1008_docked.pdbqt
 OpenBabel03192220023D

 29 32  0  0  1  0  0  0  0  0999 V2000
   50.5820   99.9460   29.7960 C   0  0  0  0  0  0  0  0  0  0  0  0
   50.7970   99.0130   30.6090 O   0  0  0  0  0  0  0  0  0  0  0  0
   51.4750  100.1590   28.7050 N   0  0  0  0  0  0  0  0  0  0  0  0
   52.6340   99.3100   28.5240 C   0  0  0  0  0  2  0  0  0  0  0  0
   52.8920   98.9620   27.0910 C   0  0  2  0  0  3  0  0  0  0  0  0
   51.6130   99.2930   26.3170 C   0  0  0  0  0  2  0  0  0  0  0  0
   51.5050  100.8020   26.3390 C   0  0  0  0  0  2  0  0  0  0  0  0
   51.2450  101.2230   27.7630 C   0  0  0  0  0  2  0  0  0  0  0  0
   49.4210  100.7920   29.9810 C   0  0  0  0  0  0  0  0  0  0  0  0
   49.5210  102.0290   30.6100 C   0  0  0  0  0  3  0  0  0  0  0  0
   48.4280  102.8440   30.7910 C   0  0  0  0  0  0  0  0  0  0  0  0
   47.1820  102.4410   30.3440 C   0  0  0  0  0  3  0  0  0  0  0  0
   47.0640  101.2200   29.7190 C   0  0  0  0  0  3  0  0  0  0  0  0
   48.1770  100.4000   29.5390 C   0  0  0  0  0  0  0  0  0  0  0  0
   47.9580   98.7280   28.6740 Br  0  0  0  0  0  0  0  0  0  0  0  0
   48.6210  104.3790   31.5860 S   0  0  0  0  0  0  0  0  0  0  0  0
   50.0890  104.5870   31.8950 O   0  0  0  0  0  0  0  0  0  0  0  0
   47.8530  104.4090   32.8840 O   0  0  0  0  0  0  0  0  0  0  0  0
   48.1390  105.6540   30.5450 N   0  0  0  0  0  0  0  0  0  0  0  0
   48.1550  105.3620   29.5380 H   0  0  0  0  0  0  0  0  0  0  0  0
   48.7570  106.4910   30.6870 H   0  0  0  0  0  0  0  0  0  0  0  0
   53.2780   97.5280   26.8940 C   0  0  0  0  0  0  0  0  0  0  0  0
   54.4710   97.0690   26.4340 N   0  0  0  0  0  0  0  0  0  0  0  0
   54.4650   95.7340   26.3860 C   0  0  0  0  0  0  0  0  0  0  0  0
   55.7490   97.5850   25.9780 C   0  0  0  0  0  2  0  0  0  0  0  0
   53.2250   95.3710   26.8320 N   0  0  0  0  0  0  0  0  0  0  0  0
   55.7570   95.1790   25.8850 C   0  0  0  0  0  2  0  0  0  0  0  0
   52.5220   96.4450   27.1330 N   0  0  0  0  0  0  0  0  0  0  0  0
   56.6560   96.3730   25.9640 C   0  0  0  0  0  2  0  0  0  0  0  0
  1  9  1  0  0  0  0
  1  2  2  0  0  0  0
  3  1  1  0  0  0  0
  4  3  1  0  0  0  0
  5 22  1  1  0  0  0
  5  4  1  0  0  0  0
  6  7  1  0  0  0  0
  6  5  1  0  0  0  0
  7  8  1  0  0  0  0
  8  3  1  0  0  0  0
  9 10  1  0  0  0  0
 10 11  2  0  0  0  0
 11 16  1  0  0  0  0
 12 11  1  0  0  0  0
 13 12  2  0  0  0  0
 14 13  1  0  0  0  0
 14  9  2  0  0  0  0
 15 14  1  0  0  0  0
 16 17  2  0  0  0  0
 16 18  2  0  0  0  0
 19 21  1  0  0  0  0
 19 16  1  0  0  0  0
 20 19  1  0  0  0  0
 22 28  2  0  0  0  0
 23 22  1  0  0  0  0
 24 23  1  0  0  0  0
 24 26  2  0  0  0  0
 25 23  1  0  0  0  0
 26 28  1  0  0  0  0
 27 29  1  0  0  0  0
 27 24  1  0  0  0  0
 29 25  1  0  0  0  0
M  END
>  <Pose>
1

>  <Score>
-8.146

$$$$
