MODEL 1
REMARK VINA RESULT:    -8.220      0.000      0.000
REMARK INTER + INTRA:         -12.012
REMARK INTER:                 -11.584
REMARK INTRA:                  -0.428
REMARK UNBOUND:                -0.428
REMARK  7 active torsions:
REMARK  status: ('A' for Active; 'I' for Inactive)
REMARK    1  A    between atoms: S_1  and  N_4 
REMARK    2  A    between atoms: S_1  and  C_14 
REMARK    3  A    between atoms: N_4  and  C_5 
REMARK    4  A    between atoms: C_5  and  C_6 
REMARK    5  A    between atoms: C_6  and  C_7 
REMARK    6  A    between atoms: C_7  and  N_8 
REMARK       I    between atoms: N_23  and  C_24 
REMARK    7  A    between atoms: C_24  and  C_26 
ROOT
ATOM      1  C   UNK d   1      55.442  87.982  22.143  0.00  0.00     0.094 A 
ATOM      2  C   UNK d   1      54.857  88.478  20.973  0.00  0.00     0.056 A 
ATOM      3  C   UNK d   1      54.695  89.834  20.792  0.00  0.00     0.045 A 
ATOM      4  C   UNK d   1      55.093  90.761  21.738  0.00  0.00    -0.028 A 
ATOM      5  C   UNK d   1      55.666  90.287  22.884  0.00  0.00     0.030 A 
ATOM      6  C   UNK d   1      55.834  88.912  23.076  0.00  0.00     0.034 A 
ATOM      7 Br   UNK d   1      56.630  88.255  24.692  0.00  0.00    -0.049 Br
ATOM      8  C   UNK d   1      54.770  92.131  21.250  0.00  0.00     0.061 C 
ATOM      9  C   UNK d   1      53.701  91.835  20.176  0.00  0.00     0.137 C 
ATOM     10  N   UNK d   1      54.130  90.540  19.672  0.00  0.00    -0.317 N 
ATOM     11  C   UNK d   1      54.054  90.009  18.364  0.00  0.00     0.228 C 
ATOM     12  O   UNK d   1      54.487  88.872  18.065  0.00  0.00    -0.273 OA
ENDROOT
BRANCH   1  13
ATOM     13  S   UNK d   1      55.640  86.262  22.344  0.00  0.00     0.242 S 
ATOM     14  O   UNK d   1      57.122  85.917  22.416  0.00  0.00    -0.206 OA
ATOM     15  O   UNK d   1      55.041  85.775  23.620  0.00  0.00    -0.206 OA
BRANCH  13  16
ATOM     16  N   UNK d   1      55.030  85.417  20.973  0.00  0.00    -0.215 NA
ATOM     17  H   UNK d   1      55.087  86.051  20.152  0.00  0.00     0.139 HD
BRANCH  16  18
ATOM     18  C   UNK d   1      53.676  84.939  21.166  0.00  0.00     0.106 C 
BRANCH  18  19
ATOM     19  C   UNK d   1      53.651  83.507  20.651  0.00  0.00     0.035 C 
BRANCH  19  20
ATOM     20  C   UNK d   1      52.718  83.373  19.478  0.00  0.00     0.118 C 
BRANCH  20  21
ATOM     21  N   UNK d   1      53.484  83.208  18.299  0.00  0.00    -0.408 N 
ATOM     22  C   UNK d   1      53.560  84.327  17.429  0.00  0.00     0.143 C 
ATOM     23  C   UNK d   1      53.953  83.834  16.047  0.00  0.00     0.187 C 
ATOM     24  O   UNK d   1      54.947  82.878  16.113  0.00  0.00    -0.388 OA
ATOM     25  C   UNK d   1      55.634  82.874  17.322  0.00  0.00     0.187 C 
ATOM     26  C   UNK d   1      54.646  82.404  18.393  0.00  0.00     0.143 C 
ENDBRANCH  20  21
ENDBRANCH  19  20
ENDBRANCH  18  19
ENDBRANCH  16  18
ENDBRANCH  13  16
ENDBRANCH   1  13
BRANCH  11  27
ATOM     27  C   UNK d   1      53.435  90.831  17.298  0.00  0.00     0.078 A 
ATOM     28  C   UNK d   1      54.124  90.782  15.996  0.00  0.00     0.015 A 
ATOM     29  C   UNK d   1      54.116  92.056  16.806  0.00  0.00     0.015 A 
ENDBRANCH  11  27
TORSDOF 7
ENDMDL
