MODEL 1
REMARK VINA RESULT:   -10.257      0.000      0.000
REMARK INTER + INTRA:         -13.344
REMARK INTER:                 -12.656
REMARK INTRA:                  -0.688
REMARK UNBOUND:                -0.688
REMARK  4 active torsions:
REMARK  status: ('A' for Active; 'I' for Inactive)
REMARK    1  A    between atoms: S_1  and  N_4 
REMARK    2  A    between atoms: S_1  and  C_20 
REMARK       I    between atoms: N_7  and  C_10 
REMARK    3  A    between atoms: C_10  and  C_12 
REMARK    4  A    between atoms: C_12  and  C_13 
ROOT
ATOM      1  N   UNK d   1      50.869  98.619  28.799  0.00  0.00    -0.304 N 
ATOM      2  C   UNK d   1      50.439  97.593  27.910  0.00  0.00     0.155 C 
ATOM      3  C   UNK d   1      51.445  96.822  27.192  0.00  0.00     0.145 C 
ATOM      4  N   UNK d   1      52.823  96.903  27.637  0.00  0.00    -0.360 N 
ATOM      5  C   UNK d   1      53.233  97.912  28.564  0.00  0.00     0.145 C 
ATOM      6  C   UNK d   1      52.090  98.354  29.469  0.00  0.00     0.155 C 
ATOM      7  C   UNK d   1      53.723  95.954  27.151  0.00  0.00     0.158 C 
ATOM      8  O   UNK d   1      53.081  95.028  26.407  0.00  0.00    -0.177 OA
ENDROOT
BRANCH   1   9
ATOM      9  S   UNK d   1      50.664 100.212  28.260  0.00  0.00     0.261 S 
ATOM     10  O   UNK d   1      50.010 100.198  26.906  0.00  0.00    -0.200 OA
ATOM     11  O   UNK d   1      52.012 100.886  28.071  0.00  0.00    -0.200 OA
BRANCH   9  12
ATOM     12  C   UNK d   1      49.638 101.194  29.285  0.00  0.00     0.082 A 
ATOM     13  C   UNK d   1      50.086 101.591  30.544  0.00  0.00     0.057 A 
ATOM     14  C   UNK d   1      49.321 102.352  31.401  0.00  0.00     0.070 A 
ATOM     15  C   UNK d   1      48.056 102.760  31.043  0.00  0.00     0.096 A 
ATOM     16  N   UNK d   1      49.798 102.741  32.700  0.00  0.00    -0.323 N 
ATOM     17  C   UNK d   1      47.606 102.371  29.800  0.00  0.00     0.040 A 
ATOM     18  O   UNK d   1      47.265 103.536  31.913  0.00  0.00    -0.340 OA
ATOM     19  C   UNK d   1      48.372 101.603  28.930  0.00  0.00     0.028 A 
ATOM     20  C   UNK d   1      47.904 104.362  32.903  0.00  0.00     0.278 C 
ATOM     21  C   UNK d   1      48.946 103.509  33.531  0.00  0.00     0.246 C 
ATOM     22  O   UNK d   1      49.101 103.441  34.771  0.00  0.00    -0.271 OA
ATOM     23  H   UNK d   1      50.746 102.432  32.959  0.00  0.00     0.169 HD
ENDBRANCH   9  12
ENDBRANCH   1   9
BRANCH   7  24
ATOM     24  C   UNK d   1      55.140  95.763  27.271  0.00  0.00     0.127 C 
BRANCH  24  25
ATOM     25  C   UNK d   1      56.086  96.540  26.474  0.00  0.00    -0.033 A 
ATOM     26  C   UNK d   1      56.594  96.057  25.294  0.00  0.00     0.017 A 
ATOM     27  C   UNK d   1      57.492  96.811  24.539  0.00  0.00     0.019 A 
ATOM     28 Br   UNK d   1      56.087  94.321  24.658  0.00  0.00    -0.051 Br
ATOM     29  C   UNK d   1      57.867  98.046  24.979  0.00  0.00     0.001 A 
ATOM     30  C   UNK d   1      57.351  98.545  26.177  0.00  0.00     0.001 A 
ATOM     31  C   UNK d   1      56.478  97.807  26.910  0.00  0.00     0.009 A 
ENDBRANCH  24  25
ENDBRANCH   7  24
TORSDOF 4
ENDMDL
