/Users/jonathanwahrer/Desktop/Msc/3_Semester/Drug_Design_Praktikum/waehrer_HTS_screening/HTS_experiment/out/docking_results/vina_output/3npc/1040_docked.pdbqt
 OpenBabel03192220043D

 34 38  0  0  0  0  0  0  0  0999 V2000
   53.2500   84.8310   20.4730 S   0  0  0  0  0  0  0  0  0  0  0  0
   52.8230   84.4010   19.1230 O   0  0  0  0  0  0  0  0  0  0  0  0
   54.4320   83.9180   20.8200 O   0  0  0  0  0  0  0  0  0  0  0  0
   52.0880   84.5130   21.7010 N   0  0  0  0  0  0  0  0  0  0  0  0
   52.6360   84.3970   23.0080 C   0  0  0  0  0  2  0  0  0  0  0  0
   53.0980   82.9910   23.3690 C   0  0  0  0  0  2  0  0  0  0  0  0
   52.0370   82.0770   23.1070 N   0  0  0  0  0  0  0  0  0  0  0  0
   51.6300   82.0880   21.6640 C   0  0  0  0  0  2  0  0  0  0  0  0
   51.3430   81.2130   23.9300 C   0  0  0  0  0  0  0  0  0  0  0  0
   51.1720   83.4760   21.3670 C   0  0  0  0  0  2  0  0  0  0  0  0
   50.4040   80.5100   23.3290 O   0  0  0  0  0  0  0  0  0  0  0  0
   51.4600   80.9400   25.3320 C   0  0  0  0  0  2  0  0  0  0  0  0
   52.4460   81.6050   26.1030 N   0  0  0  0  0  0  0  0  0  0  0  0
   53.7190   81.2550   26.2780 N   0  0  0  0  0  0  0  0  0  0  0  0
   54.3610   82.1490   27.0410 C   0  0  0  0  0  3  0  0  0  0  0  0
   53.4320   83.1100   27.3580 C   0  0  0  0  0  0  0  0  0  0  0  0
   52.2480   82.7700   26.7750 C   0  0  0  0  0  3  0  0  0  0  0  0
   53.7440   84.6710   28.4390 Br  0  0  0  0  0  0  0  0  0  0  0  0
   53.8760   86.4480   20.5650 C   0  0  0  0  0  0  0  0  0  0  0  0
   55.0770   86.7460   21.2230 C   0  0  0  0  0  0  0  0  0  0  0  0
   55.5670   88.0350   21.2940 C   0  0  0  0  0  0  0  0  0  0  0  0
   55.9450   85.8800   21.8810 O   0  0  0  0  0  0  0  0  0  0  0  0
   54.8890   89.0880   20.7140 C   0  0  0  0  0  0  0  0  0  0  0  0
   56.7490   87.9900   21.9990 O   0  0  0  0  0  0  0  0  0  0  0  0
   53.7160   88.8040   20.0720 C   0  0  0  0  0  0  0  0  0  0  0  0
   53.2340   87.5010   20.0080 C   0  0  0  0  0  0  0  0  0  0  0  0
   52.8760   89.8220   19.3990 C   0  0  0  0  0  2  0  0  0  0  0  0
   51.9550   87.3540   19.2930 C   0  0  0  0  0  2  0  0  0  0  0  0
   51.9960   88.0700   17.9600 C   0  0  0  0  0  2  0  0  0  0  0  0
   52.6040   89.3400   18.0820 N   0  0  0  0  0  0  0  0  0  0  0  0
   53.5550   89.6960   17.0880 C   0  0  0  0  0  1  0  0  0  0  0  0
   56.9360   86.6920   22.4900 C   0  0  0  0  0  2  0  0  0  0  0  0
   55.3830   90.4070   20.7830 O   0  0  0  0  0  0  0  0  0  0  0  0
   55.1800   91.1520   21.9920 C   0  0  0  0  0  1  0  0  0  0  0  0
  1 19  1  0  0  0  0
  1  3  2  0  0  0  0
  1  4  1  0  0  0  0
  2  1  2  0  0  0  0
  4  5  1  0  0  0  0
  5  6  1  0  0  0  0
  7  6  1  0  0  0  0
  7  9  1  0  0  0  0
  8  7  1  0  0  0  0
  9 12  1  0  0  0  0
 10  8  1  0  0  0  0
 10  4  1  0  0  0  0
 11  9  2  0  0  0  0
 12 13  1  0  0  0  0
 13 14  1  0  0  0  0
 13 17  1  0  0  0  0
 14 15  2  0  0  0  0
 15 16  1  0  0  0  0
 16 18  1  0  0  0  0
 17 16  2  0  0  0  0
 19 20  1  0  0  0  0
 20 21  2  0  0  0  0
 20 22  1  0  0  0  0
 21 24  1  0  0  0  0
 22 32  1  0  0  0  0
 23 33  1  0  0  0  0
 23 21  1  0  0  0  0
 24 32  1  0  0  0  0
 25 23  2  0  0  0  0
 26 25  1  0  0  0  0
 26 19  2  0  0  0  0
 27 25  1  0  0  0  0
 28 26  1  0  0  0  0
 29 30  1  0  0  0  0
 29 28  1  0  0  0  0
 30 27  1  0  0  0  0
 31 30  1  0  0  0  0
 33 34  1  0  0  0  0
M  END
>  <Pose>
1

>  <Score>
-8.529

$$$$
