/Users/jonathanwahrer/Desktop/Msc/3_Semester/Drug_Design_Praktikum/waehrer_HTS_screening/HTS_experiment/out/docking_results/vina_output/3npc/1043_docked.pdbqt
 OpenBabel03192220053D

 31 34  0  0  0  0  0  0  0  0999 V2000
   53.5510   85.2030   21.5740 N   0  0  0  0  0  0  0  0  0  0  0  0
   53.8440   85.5320   22.9530 C   0  0  0  0  0  2  0  0  0  0  0  0
   55.1240   86.3210   23.0660 C   0  0  0  0  0  2  0  0  0  0  0  0
   55.0110   87.4570   22.1270 N   0  0  0  0  0  0  0  0  0  0  0  0
   54.7460   87.1030   20.7670 C   0  0  0  0  0  2  0  0  0  0  0  0
   54.6210   85.5630   20.7120 C   0  0  0  0  0  2  0  0  0  0  0  0
   55.1550   88.7760   22.5820 C   0  0  0  0  0  0  0  0  0  0  0  0
   55.3820   88.8860   23.8750 O   0  0  0  0  0  0  0  0  0  0  0  0
   55.1040   90.0520   21.9150 C   0  0  0  0  0  2  0  0  0  0  0  0
   54.8750   90.1240   20.5060 N   0  0  0  0  0  0  0  0  0  0  0  0
   55.8670   90.2460   19.4550 C   0  0  0  0  0  0  0  0  0  0  0  0
   57.1070   90.2850   19.6890 O   0  0  0  0  0  0  0  0  0  0  0  0
   55.1800   90.3040   18.2150 N   0  0  0  0  0  0  0  0  0  0  0  0
   53.8290   90.6550   18.4950 C   0  0  0  0  0  0  0  0  0  0  0  0
   55.6580   90.1090   17.2930 H   0  0  0  0  0  0  0  0  0  0  0  0
   53.5630   92.1390   18.3990 C   0  0  0  0  0  2  0  0  0  0  0  0
   52.8540   90.1010   17.4710 C   0  0  0  0  0  2  0  0  0  0  0  0
   53.5990   90.1150   19.8330 C   0  0  0  0  0  0  0  0  0  0  0  0
   52.0460   92.1730   18.4090 C   0  0  0  0  0  2  0  0  0  0  0  0
   51.5950   90.8650   17.8070 C   0  0  0  0  0  2  0  0  0  0  0  0
   52.5200   89.7110   20.3380 O   0  0  0  0  0  0  0  0  0  0  0  0
   52.9800   83.6070   21.3710 S   0  0  0  0  0  0  0  0  0  0  0  0
   51.4720   83.6510   21.5400 O   0  0  0  0  0  0  0  0  0  0  0  0
   53.4930   82.7470   22.4990 O   0  0  0  0  0  0  0  0  0  0  0  0
   53.4190   82.9100   19.8300 C   0  0  0  0  0  0  0  0  0  0  0  0
   52.7520   83.2260   18.6640 C   0  0  0  0  0  3  0  0  0  0  0  0
   53.1090   82.6660   17.4420 C   0  0  0  0  0  3  0  0  0  0  0  0
   54.1450   81.7730   17.3570 C   0  0  0  0  0  0  0  0  0  0  0  0
   54.8200   81.4490   18.5150 C   0  0  0  0  0  3  0  0  0  0  0  0
   54.6470   80.9930   15.6690 Br  0  0  0  0  0  0  0  0  0  0  0  0
   54.4600   82.0120   19.7310 C   0  0  0  0  0  3  0  0  0  0  0  0
  1  2  1  0  0  0  0
  2  3  1  0  0  0  0
  4  7  1  0  0  0  0
  4  3  1  0  0  0  0
  5  4  1  0  0  0  0
  6  5  1  0  0  0  0
  6  1  1  0  0  0  0
  7  8  2  0  0  0  0
  9  7  1  0  0  0  0
 10  9  1  0  0  0  0
 11 12  2  0  0  0  0
 11 10  1  0  0  0  0
 13 14  1  0  0  0  0
 13 11  1  0  0  0  0
 14 18  1  0  0  0  0
 15 13  1  0  0  0  0
 16 19  1  0  0  0  0
 16 14  1  0  0  0  0
 17 20  1  0  0  0  0
 17 14  1  0  0  0  0
 18 21  2  0  0  0  0
 18 10  1  0  0  0  0
 20 19  1  0  0  0  0
 22 23  2  0  0  0  0
 22  1  1  0  0  0  0
 22 24  2  0  0  0  0
 25 22  1  0  0  0  0
 26 25  2  0  0  0  0
 27 26  1  0  0  0  0
 28 27  2  0  0  0  0
 28 29  1  0  0  0  0
 29 31  2  0  0  0  0
 30 28  1  0  0  0  0
 31 25  1  0  0  0  0
M  END
>  <Pose>
1

>  <Score>
-8.023

$$$$
