MODEL 1
REMARK VINA RESULT:    -8.023      0.000      0.000
REMARK INTER + INTRA:         -10.174
REMARK INTER:                  -9.430
REMARK INTRA:                  -0.744
REMARK UNBOUND:                -0.744
REMARK  3 active torsions:
REMARK  status: ('A' for Active; 'I' for Inactive)
REMARK    1  A    between atoms: S_1  and  N_4 
REMARK    2  A    between atoms: S_1  and  C_24 
REMARK       I    between atoms: N_7  and  C_10 
REMARK    3  A    between atoms: C_12  and  N_13 
ROOT
ATOM      1  N   UNK d   1      53.551  85.203  21.574  0.00  0.00    -0.203 NA
ATOM      2  C   UNK d   1      53.844  85.532  22.953  0.00  0.00     0.127 C 
ATOM      3  C   UNK d   1      55.124  86.321  23.066  0.00  0.00     0.140 C 
ATOM      4  N   UNK d   1      55.011  87.457  22.127  0.00  0.00    -0.359 N 
ATOM      5  C   UNK d   1      54.746  87.103  20.767  0.00  0.00     0.140 C 
ATOM      6  C   UNK d   1      54.621  85.563  20.712  0.00  0.00     0.127 C 
ATOM      7  C   UNK d   1      55.155  88.776  22.582  0.00  0.00     0.172 C 
ATOM      8  O   UNK d   1      55.382  88.886  23.875  0.00  0.00    -0.175 OA
ATOM      9  C   UNK d   1      55.104  90.052  21.915  0.00  0.00     0.224 C 
ENDROOT
BRANCH   9  10
ATOM     10  N   UNK d   1      54.875  90.124  20.506  0.00  0.00    -0.260 N 
ATOM     11  C   UNK d   1      55.867  90.246  19.455  0.00  0.00     0.326 C 
ATOM     12  O   UNK d   1      57.107  90.285  19.689  0.00  0.00    -0.247 OA
ATOM     13  N   UNK d   1      55.180  90.304  18.215  0.00  0.00    -0.324 N 
ATOM     14  C   UNK d   1      53.829  90.655  18.495  0.00  0.00     0.116 C 
ATOM     15  H   UNK d   1      55.658  90.109  17.293  0.00  0.00     0.165 HD
ATOM     16  C   UNK d   1      53.563  92.139  18.399  0.00  0.00     0.041 C 
ATOM     17  C   UNK d   1      52.854  90.101  17.471  0.00  0.00     0.041 C 
ATOM     18  C   UNK d   1      53.599  90.115  19.833  0.00  0.00     0.256 C 
ATOM     19  C   UNK d   1      52.046  92.173  18.409  0.00  0.00     0.003 C 
ATOM     20  C   UNK d   1      51.595  90.865  17.807  0.00  0.00     0.003 C 
ATOM     21  O   UNK d   1      52.520  89.711  20.338  0.00  0.00    -0.270 OA
ENDBRANCH   9  10
BRANCH   1  22
ATOM     22  S   UNK d   1      52.980  83.607  21.371  0.00  0.00     0.243 S 
ATOM     23  O   UNK d   1      51.472  83.651  21.540  0.00  0.00    -0.206 OA
ATOM     24  O   UNK d   1      53.493  82.747  22.499  0.00  0.00    -0.206 OA
BRANCH  22  25
ATOM     25  C   UNK d   1      53.419  82.910  19.830  0.00  0.00     0.074 A 
ATOM     26  C   UNK d   1      52.752  83.226  18.664  0.00  0.00     0.026 A 
ATOM     27  C   UNK d   1      53.109  82.666  17.442  0.00  0.00     0.020 A 
ATOM     28  C   UNK d   1      54.145  81.773  17.357  0.00  0.00     0.011 A 
ATOM     29  C   UNK d   1      54.820  81.449  18.515  0.00  0.00     0.020 A 
ATOM     30 Br   UNK d   1      54.647  80.993  15.669  0.00  0.00    -0.051 Br
ATOM     31  C   UNK d   1      54.460  82.012  19.731  0.00  0.00     0.026 A 
ENDBRANCH  22  25
ENDBRANCH   1  22
TORSDOF 3
ENDMDL
