MODEL 1
REMARK VINA RESULT:    -9.161      0.000      0.000
REMARK INTER + INTRA:         -11.464
REMARK INTER:                 -10.767
REMARK INTRA:                  -0.697
REMARK UNBOUND:                -0.697
REMARK  3 active torsions:
REMARK  status: ('A' for Active; 'I' for Inactive)
REMARK    1  A    between atoms: S_1  and  N_4 
REMARK    2  A    between atoms: S_1  and  C_19 
REMARK       I    between atoms: N_7  and  C_10 
REMARK    3  A    between atoms: C_10  and  C_12 
ROOT
ATOM      1  N   UNK d   1      56.649  88.556  22.549  0.00  0.00    -0.304 N 
ATOM      2  C   UNK d   1      55.689  89.297  23.239  0.00  0.00     0.155 C 
ATOM      3  C   UNK d   1      54.952  90.332  22.465  0.00  0.00     0.146 C 
ATOM      4  N   UNK d   1      54.862  90.080  21.062  0.00  0.00    -0.345 N 
ATOM      5  C   UNK d   1      55.462  88.878  20.525  0.00  0.00     0.146 C 
ATOM      6  C   UNK d   1      56.841  88.782  21.175  0.00  0.00     0.155 C 
ATOM      7  C   UNK d   1      54.206  90.964  20.172  0.00  0.00     0.255 C 
ATOM      8  O   UNK d   1      53.663  92.033  20.598  0.00  0.00    -0.267 OA
ENDROOT
BRANCH   1   9
ATOM      9  S   UNK d   1      57.029  87.018  23.139  0.00  0.00     0.261 S 
ATOM     10  O   UNK d   1      57.860  86.199  22.231  0.00  0.00    -0.200 OA
ATOM     11  O   UNK d   1      57.827  87.202  24.424  0.00  0.00    -0.200 OA
BRANCH   9  12
ATOM     12  C   UNK d   1      55.562  86.169  23.614  0.00  0.00     0.082 A 
ATOM     13  C   UNK d   1      54.674  85.685  22.675  0.00  0.00     0.057 A 
ATOM     14  C   UNK d   1      53.517  85.015  23.015  0.00  0.00     0.070 A 
ATOM     15  C   UNK d   1      53.200  84.801  24.340  0.00  0.00     0.096 A 
ATOM     16  N   UNK d   1      52.598  84.517  22.051  0.00  0.00    -0.323 N 
ATOM     17  C   UNK d   1      54.090  85.285  25.287  0.00  0.00     0.040 A 
ATOM     18  O   UNK d   1      52.038  84.128  24.715  0.00  0.00    -0.340 OA
ATOM     19  C   UNK d   1      55.246  85.953  24.940  0.00  0.00     0.028 A 
ATOM     20  C   UNK d   1      50.973  83.831  23.833  0.00  0.00     0.278 C 
ATOM     21  C   UNK d   1      51.407  83.828  22.413  0.00  0.00     0.246 C 
ATOM     22  O   UNK d   1      50.686  83.206  21.592  0.00  0.00    -0.271 OA
ATOM     23  H   UNK d   1      52.823  84.671  21.045  0.00  0.00     0.169 HD
ENDBRANCH   9  12
ENDBRANCH   1   9
BRANCH   7  24
ATOM     24  C   UNK d   1      54.106  90.722  18.738  0.00  0.00     0.049 A 
ATOM     25  C   UNK d   1      53.179  89.850  18.198  0.00  0.00     0.026 A 
ATOM     26  C   UNK d   1      53.074  89.615  16.847  0.00  0.00     0.020 A 
ATOM     27 Br   UNK d   1      52.017  88.958  19.424  0.00  0.00    -0.050 Br
ATOM     28  C   UNK d   1      53.942  90.288  16.001  0.00  0.00     0.001 A 
ATOM     29  C   UNK d   1      54.883  91.168  16.482  0.00  0.00     0.001 A 
ATOM     30  C   UNK d   1      54.948  91.368  17.843  0.00  0.00     0.018 A 
ENDBRANCH   7  24
TORSDOF 3
ENDMDL
