/Users/jonathanwahrer/Desktop/Msc/3_Semester/Drug_Design_Praktikum/waehrer_HTS_screening/HTS_experiment/out/docking_results/vina_output/3npc/1044_docked.pdbqt
 OpenBabel03192220053D

 30 33  0  0  0  0  0  0  0  0999 V2000
   56.6490   88.5560   22.5490 N   0  0  0  0  0  0  0  0  0  0  0  0
   55.6890   89.2970   23.2390 C   0  0  0  0  0  2  0  0  0  0  0  0
   54.9520   90.3320   22.4650 C   0  0  0  0  0  2  0  0  0  0  0  0
   54.8620   90.0800   21.0620 N   0  0  0  0  0  0  0  0  0  0  0  0
   55.4620   88.8780   20.5250 C   0  0  0  0  0  2  0  0  0  0  0  0
   56.8410   88.7820   21.1750 C   0  0  0  0  0  2  0  0  0  0  0  0
   54.2060   90.9640   20.1720 C   0  0  0  0  0  0  0  0  0  0  0  0
   53.6630   92.0330   20.5980 O   0  0  0  0  0  0  0  0  0  0  0  0
   57.0290   87.0180   23.1390 S   0  0  0  0  0  0  0  0  0  0  0  0
   57.8600   86.1990   22.2310 O   0  0  0  0  0  0  0  0  0  0  0  0
   57.8270   87.2020   24.4240 O   0  0  0  0  0  0  0  0  0  0  0  0
   55.5620   86.1690   23.6140 C   0  0  0  0  0  0  0  0  0  0  0  0
   54.6740   85.6850   22.6750 C   0  0  0  0  0  3  0  0  0  0  0  0
   53.5170   85.0150   23.0150 C   0  0  0  0  0  0  0  0  0  0  0  0
   53.2000   84.8010   24.3400 C   0  0  0  0  0  0  0  0  0  0  0  0
   52.5980   84.5170   22.0510 N   0  0  0  0  0  0  0  0  0  0  0  0
   54.0900   85.2850   25.2870 C   0  0  0  0  0  3  0  0  0  0  0  0
   52.0380   84.1280   24.7150 O   0  0  0  0  0  0  0  0  0  0  0  0
   55.2460   85.9530   24.9400 C   0  0  0  0  0  3  0  0  0  0  0  0
   50.9730   83.8310   23.8330 C   0  0  0  0  0  2  0  0  0  0  0  0
   51.4070   83.8280   22.4130 C   0  0  0  0  0  0  0  0  0  0  0  0
   50.6860   83.2060   21.5920 O   0  0  0  0  0  0  0  0  0  0  0  0
   52.8230   84.6710   21.0450 H   0  0  0  0  0  0  0  0  0  0  0  0
   54.1060   90.7220   18.7380 C   0  0  0  0  0  0  0  0  0  0  0  0
   53.1790   89.8500   18.1980 C   0  0  0  0  0  0  0  0  0  0  0  0
   53.0740   89.6150   16.8470 C   0  0  0  0  0  3  0  0  0  0  0  0
   52.0170   88.9580   19.4240 Br  0  0  0  0  0  0  0  0  0  0  0  0
   53.9420   90.2880   16.0010 C   0  0  0  0  0  3  0  0  0  0  0  0
   54.8830   91.1680   16.4820 C   0  0  0  0  0  3  0  0  0  0  0  0
   54.9480   91.3680   17.8430 C   0  0  0  0  0  3  0  0  0  0  0  0
  1  9  1  0  0  0  0
  1  2  1  0  0  0  0
  3  2  1  0  0  0  0
  4  3  1  0  0  0  0
  5  4  1  0  0  0  0
  5  6  1  0  0  0  0
  6  1  1  0  0  0  0
  7  8  2  0  0  0  0
  7  4  1  0  0  0  0
  9 12  1  0  0  0  0
  9 11  2  0  0  0  0
 10  9  2  0  0  0  0
 12 19  1  0  0  0  0
 13 14  1  0  0  0  0
 13 12  2  0  0  0  0
 14 15  2  0  0  0  0
 15 18  1  0  0  0  0
 15 17  1  0  0  0  0
 16 21  1  0  0  0  0
 16 14  1  0  0  0  0
 19 17  2  0  0  0  0
 20 18  1  0  0  0  0
 21 20  1  0  0  0  0
 22 21  2  0  0  0  0
 23 16  1  0  0  0  0
 24  7  1  0  0  0  0
 25 24  1  0  0  0  0
 25 27  1  0  0  0  0
 26 25  2  0  0  0  0
 28 29  2  0  0  0  0
 28 26  1  0  0  0  0
 29 30  1  0  0  0  0
 30 24  2  0  0  0  0
M  END
>  <Pose>
1

>  <Score>
-9.161

$$$$
