MODEL 1
REMARK VINA RESULT:    -9.140      0.000      0.000
REMARK INTER + INTRA:         -12.543
REMARK INTER:                 -11.811
REMARK INTRA:                  -0.732
REMARK UNBOUND:                -0.732
REMARK  5 active torsions:
REMARK  status: ('A' for Active; 'I' for Inactive)
REMARK    1  A    between atoms: S_1  and  N_4 
REMARK    2  A    between atoms: S_1  and  C_24 
REMARK    3  A    between atoms: N_7  and  C_10 
REMARK    4  A    between atoms: C_10  and  C_11 
REMARK    5  A    between atoms: C_11  and  N_12 
ROOT
ATOM      1  N   UNK d   1      49.458 100.445  27.838  0.00  0.00    -0.303 N 
ATOM      2  C   UNK d   1      50.756 101.035  27.645  0.00  0.00     0.165 C 
ATOM      3  C   UNK d   1      51.861 100.015  27.795  0.00  0.00     0.293 C 
ATOM      4  N   UNK d   1      51.740  99.325  29.105  0.00  0.00     0.093 N 
ATOM      5  C   UNK d   1      50.488  98.582  29.094  0.00  0.00     0.293 C 
ATOM      6  C   UNK d   1      49.541  99.025  27.992  0.00  0.00     0.165 C 
ENDROOT
BRANCH   4   7
ATOM      7  C   UNK d   1      52.852  98.399  29.108  0.00  0.00     0.293 C 
BRANCH   7   8
ATOM      8  C   UNK d   1      53.884  98.559  28.075  0.00  0.00     0.165 C 
BRANCH   8   9
ATOM      9  N   UNK d   1      54.152  97.493  27.170  0.00  0.00    -0.286 N 
ATOM     10  C   UNK d   1      53.296  96.490  26.637  0.00  0.00     0.232 C 
ATOM     11  O   UNK d   1      52.259  96.073  27.173  0.00  0.00    -0.272 OA
ATOM     12  C   UNK d   1      53.849  96.029  25.341  0.00  0.00     0.100 C 
ATOM     13  C   UNK d   1      55.358  96.256  25.586  0.00  0.00     0.100 C 
ATOM     14  C   UNK d   1      53.810  94.545  25.262  0.00  0.00     0.022 C 
ATOM     15  C   UNK d   1      55.903  94.931  25.968  0.00  0.00     0.022 C 
ATOM     16  C   UNK d   1      55.460  97.311  26.584  0.00  0.00     0.232 C 
ATOM     17  C   UNK d   1      54.655  94.209  26.503  0.00  0.00     0.018 C 
ATOM     18  C   UNK d   1      56.029  94.138  24.684  0.00  0.00    -0.025 C 
ATOM     19  C   UNK d   1      54.788  94.142  24.197  0.00  0.00    -0.025 C 
ATOM     20  O   UNK d   1      56.517  97.932  26.862  0.00  0.00    -0.272 OA
ENDBRANCH   8   9
ENDBRANCH   7   8
ENDBRANCH   4   7
BRANCH   1  21
ATOM     21  S   UNK d   1      48.388 101.279  28.827  0.00  0.00     0.260 S 
ATOM     22  O   UNK d   1      47.470 102.103  27.934  0.00  0.00    -0.200 OA
ATOM     23  O   UNK d   1      47.450 100.253  29.464  0.00  0.00    -0.200 OA
BRANCH  21  24
ATOM     24  C   UNK d   1      49.055 102.219  30.100  0.00  0.00     0.079 A 
ATOM     25  C   UNK d   1      49.832 101.637  31.072  0.00  0.00     0.026 A 
ATOM     26  C   UNK d   1      50.361 102.427  32.077  0.00  0.00     0.020 A 
ATOM     27  C   UNK d   1      50.139 103.790  32.145  0.00  0.00     0.011 A 
ATOM     28  C   UNK d   1      49.358 104.370  31.167  0.00  0.00     0.020 A 
ATOM     29 Br   UNK d   1      50.866 104.880  33.530  0.00  0.00    -0.051 Br
ATOM     30  C   UNK d   1      48.827 103.575  30.157  0.00  0.00     0.026 A 
ENDBRANCH  21  24
ENDBRANCH   1  21
TORSDOF 5
ENDMDL
