MODEL 1
REMARK VINA RESULT:    -8.128      0.000      0.000
REMARK INTER + INTRA:         -11.168
REMARK INTER:                 -10.504
REMARK INTRA:                  -0.664
REMARK UNBOUND:                -0.664
REMARK  5 active torsions:
REMARK  status: ('A' for Active; 'I' for Inactive)
REMARK    1  A    between atoms: S_1  and  N_4 
REMARK    2  A    between atoms: S_1  and  C_23 
REMARK    3  A    between atoms: N_7  and  C_10 
REMARK    4  A    between atoms: C_10  and  N_11 
REMARK    5  A    between atoms: C_13  and  N_18 
ROOT
ATOM      1  N   UNK d   1      55.654  86.158  24.914  0.00  0.00    -0.303 N 
ATOM      2  C   UNK d   1      57.058  86.229  24.875  0.00  0.00     0.165 C 
ATOM      3  C   UNK d   1      57.575  87.405  24.093  0.00  0.00     0.295 C 
ATOM      4  N   UNK d   1      56.643  87.955  23.176  0.00  0.00     0.111 NA
ATOM      5  C   UNK d   1      55.444  88.344  23.828  0.00  0.00     0.295 C 
ATOM      6  C   UNK d   1      54.921  87.361  24.809  0.00  0.00     0.165 C 
ENDROOT
BRANCH   4   7
ATOM      7  C   UNK d   1      56.537  87.185  21.993  0.00  0.00     0.426 C 
BRANCH   7   8
ATOM      8  N   UNK d   1      55.356  87.348  21.216  0.00  0.00    -0.204 N 
ATOM      9  N   UNK d   1      54.984  88.541  20.799  0.00  0.00    -0.149 NA
ATOM     10  C   UNK d   1      53.884  88.782  20.069  0.00  0.00     0.155 A 
ATOM     11  C   UNK d   1      53.106  87.695  19.745  0.00  0.00     0.058 A 
ATOM     12  C   UNK d   1      53.440  86.422  20.153  0.00  0.00     0.080 A 
ATOM     13  C   UNK d   1      54.600  86.283  20.904  0.00  0.00     0.265 A 
ATOM     14  O   UNK d   1      54.908  85.099  21.280  0.00  0.00    -0.267 OA
BRANCH  10  15
ATOM     15  N   UNK d   1      53.506  90.091  19.630  0.00  0.00    -0.298 N 
ATOM     16  C   UNK d   1      54.237  91.211  19.617  0.00  0.00     0.215 A 
ATOM     17  N   UNK d   1      53.483  92.210  19.122  0.00  0.00    -0.254 NA
ATOM     18  C   UNK d   1      52.263  91.734  18.815  0.00  0.00     0.135 A 
ATOM     19  C   UNK d   1      52.293  90.395  19.141  0.00  0.00     0.119 A 
ENDBRANCH  10  15
ENDBRANCH   7   8
ENDBRANCH   4   7
BRANCH   1  20
ATOM     20  S   UNK d   1      54.935  84.881  25.696  0.00  0.00     0.267 S 
ATOM     21  O   UNK d   1      55.796  83.665  25.731  0.00  0.00    -0.200 OA
ATOM     22  O   UNK d   1      54.576  85.257  27.098  0.00  0.00    -0.200 OA
BRANCH  20  23
ATOM     23  C   UNK d   1      53.441  84.442  24.841  0.00  0.00     0.121 A 
ATOM     24  S   UNK d   1      53.231  83.398  23.511  0.00  0.00    -0.069 SA
ATOM     25  C   UNK d   1      51.544  83.532  23.323  0.00  0.00     0.052 A 
ATOM     26  C   UNK d   1      51.184  84.405  24.320  0.00  0.00     0.028 A 
ATOM     27 Br   UNK d   1      50.400  82.685  22.040  0.00  0.00    -0.043 Br
ATOM     28  C   UNK d   1      52.170  84.871  25.101  0.00  0.00     0.035 A 
ENDBRANCH  20  23
ENDBRANCH   1  20
TORSDOF 5
ENDMDL
