MODEL 1
REMARK VINA RESULT:    -8.508      0.000      0.000
REMARK INTER + INTRA:         -11.898
REMARK INTER:                 -10.497
REMARK INTRA:                  -1.401
REMARK UNBOUND:                -1.401
REMARK  4 active torsions:
REMARK  status: ('A' for Active; 'I' for Inactive)
REMARK    1  A    between atoms: S_1  and  N_4 
REMARK    2  A    between atoms: S_1  and  C_22 
REMARK    3  A    between atoms: N_7  and  C_10 
REMARK    4  A    between atoms: C_10  and  N_11 
ROOT
ATOM      1  N   UNK d   1      55.127  86.465  24.338  0.00  0.00    -0.203 NA
ATOM      2  C   UNK d   1      54.875  87.728  24.956  0.00  0.00     0.127 C 
ATOM      3  C   UNK d   1      55.615  88.770  24.099  0.00  0.00     0.134 C 
ATOM      4  N   UNK d   1      56.767  88.235  23.515  0.00  0.00    -0.393 N 
ATOM      5  C   UNK d   1      57.440  87.207  24.261  0.00  0.00     0.134 C 
ATOM      6  C   UNK d   1      56.505  86.113  24.724  0.00  0.00     0.127 C 
ENDROOT
BRANCH   4   7
ATOM      7  C   UNK d   1      56.911  88.164  22.122  0.00  0.00     0.273 C 
BRANCH   7   8
ATOM      8  N   UNK d   1      55.776  88.444  21.303  0.00  0.00    -0.223 N 
ATOM      9  N   UNK d   1      54.795  87.452  21.048  0.00  0.00    -0.278 N 
ATOM     10  C   UNK d   1      53.819  88.079  20.220  0.00  0.00     0.122 A 
ATOM     11  H   UNK d   1      54.790  86.463  21.394  0.00  0.00     0.189 HD
ATOM     12  C   UNK d   1      52.739  87.449  19.774  0.00  0.00     0.023 C 
ATOM     13  N   UNK d   1      54.163  89.429  19.954  0.00  0.00    -0.283 N 
ATOM     14  C   UNK d   1      51.592  87.842  18.925  0.00  0.00     0.031 C 
ATOM     15  C   UNK d   1      51.976  88.953  17.978  0.00  0.00     0.006 C 
ATOM     16  C   UNK d   1      52.113  90.203  18.830  0.00  0.00     0.021 C 
ATOM     17  C   UNK d   1      53.540  90.472  19.197  0.00  0.00     0.135 C 
ATOM     18  C   UNK d   1      55.393  89.641  20.640  0.00  0.00     0.346 A 
ATOM     19  O   UNK d   1      56.010  90.734  20.633  0.00  0.00    -0.245 OA
ENDBRANCH   7   8
ENDBRANCH   4   7
BRANCH   1  20
ATOM     20  S   UNK d   1      54.121  85.200  24.901  0.00  0.00     0.243 S 
ATOM     21  O   UNK d   1      53.353  85.595  26.135  0.00  0.00    -0.206 OA
ATOM     22  O   UNK d   1      55.023  84.059  25.310  0.00  0.00    -0.206 OA
BRANCH  20  23
ATOM     23  C   UNK d   1      53.018  84.607  23.720  0.00  0.00     0.076 A 
ATOM     24  C   UNK d   1      53.277  84.434  22.392  0.00  0.00     0.043 A 
ATOM     25  C   UNK d   1      52.313  83.947  21.521  0.00  0.00     0.012 A 
ATOM     26  C   UNK d   1      51.064  83.619  21.956  0.00  0.00     0.019 A 
ATOM     27 Br   UNK d   1      52.702  83.712  19.654  0.00  0.00    -0.051 Br
ATOM     28  C   UNK d   1      50.770  83.784  23.301  0.00  0.00     0.003 A 
ATOM     29  C   UNK d   1      51.731  84.267  24.153  0.00  0.00     0.025 A 
ENDBRANCH  20  23
ENDBRANCH   1  20
TORSDOF 4
ENDMDL
