/Users/jonathanwahrer/Desktop/Msc/3_Semester/Drug_Design_Praktikum/waehrer_HTS_screening/HTS_experiment/out/docking_results/vina_output/3npc/1076_docked.pdbqt
 OpenBabel03192220063D

 29 32  0  0  0  0  0  0  0  0999 V2000
   55.1270   86.4650   24.3380 N   0  0  0  0  0  0  0  0  0  0  0  0
   54.8750   87.7280   24.9560 C   0  0  0  0  0  2  0  0  0  0  0  0
   55.6150   88.7700   24.0990 C   0  0  0  0  0  2  0  0  0  0  0  0
   56.7670   88.2350   23.5150 N   0  0  0  0  0  0  0  0  0  0  0  0
   57.4400   87.2070   24.2610 C   0  0  0  0  0  2  0  0  0  0  0  0
   56.5050   86.1130   24.7240 C   0  0  0  0  0  2  0  0  0  0  0  0
   56.9110   88.1640   22.1220 C   0  0  0  0  0  2  0  0  0  0  0  0
   55.7760   88.4440   21.3030 N   0  0  0  0  0  0  0  0  0  0  0  0
   54.7950   87.4520   21.0480 N   0  0  0  0  0  0  0  0  0  0  0  0
   53.8190   88.0790   20.2200 C   0  0  0  0  0  0  0  0  0  0  0  0
   54.7900   86.4630   21.3940 H   0  0  0  0  0  0  0  0  0  0  0  0
   52.7390   87.4490   19.7740 C   0  0  0  0  0  3  0  0  0  0  0  0
   54.1630   89.4290   19.9540 N   0  0  0  0  0  0  0  0  0  0  0  0
   51.5920   87.8420   18.9250 C   0  0  0  0  0  2  0  0  0  0  0  0
   51.9760   88.9530   17.9780 C   0  0  0  0  0  2  0  0  0  0  0  0
   52.1130   90.2030   18.8300 C   0  0  0  0  0  2  0  0  0  0  0  0
   53.5400   90.4720   19.1970 C   0  0  0  0  0  2  0  0  0  0  0  0
   55.3930   89.6410   20.6400 C   0  0  0  0  0  0  0  0  0  0  0  0
   56.0100   90.7340   20.6330 O   0  0  0  0  0  0  0  0  0  0  0  0
   54.1210   85.2000   24.9010 S   0  0  0  0  0  0  0  0  0  0  0  0
   53.3530   85.5950   26.1350 O   0  0  0  0  0  0  0  0  0  0  0  0
   55.0230   84.0590   25.3100 O   0  0  0  0  0  0  0  0  0  0  0  0
   53.0180   84.6070   23.7200 C   0  0  0  0  0  0  0  0  0  0  0  0
   53.2770   84.4340   22.3920 C   0  0  0  0  0  3  0  0  0  0  0  0
   52.3130   83.9470   21.5210 C   0  0  0  0  0  0  0  0  0  0  0  0
   51.0640   83.6190   21.9560 C   0  0  0  0  0  3  0  0  0  0  0  0
   52.7020   83.7120   19.6540 Br  0  0  0  0  0  0  0  0  0  0  0  0
   50.7700   83.7840   23.3010 C   0  0  0  0  0  3  0  0  0  0  0  0
   51.7310   84.2670   24.1530 C   0  0  0  0  0  3  0  0  0  0  0  0
  1  6  1  0  0  0  0
  1 20  1  0  0  0  0
  1  2  1  0  0  0  0
  3  2  1  0  0  0  0
  4  3  1  0  0  0  0
  4  5  1  0  0  0  0
  5  6  1  0  0  0  0
  7  4  1  0  0  0  0
  8  7  1  0  0  0  0
  9  8  1  0  0  0  0
  9 11  1  0  0  0  0
 10  9  1  0  0  0  0
 12 10  2  0  0  0  0
 13 10  1  0  0  0  0
 13 18  1  0  0  0  0
 14 12  1  0  0  0  0
 15 16  1  0  0  0  0
 15 14  1  0  0  0  0
 16 17  1  0  0  0  0
 17 13  1  0  0  0  0
 18  8  1  0  0  0  0
 19 18  2  0  0  0  0
 20 22  2  0  0  0  0
 20 21  2  0  0  0  0
 23 29  1  0  0  0  0
 23 20  1  0  0  0  0
 24 23  2  0  0  0  0
 25 26  2  0  0  0  0
 25 24  1  0  0  0  0
 26 28  1  0  0  0  0
 27 25  1  0  0  0  0
 28 29  2  0  0  0  0
M  END
>  <Pose>
1

>  <Score>
-8.508

$$$$
