MODEL 1
REMARK VINA RESULT:    -8.464      0.000      0.000
REMARK INTER + INTRA:         -11.164
REMARK INTER:                 -10.443
REMARK INTRA:                  -0.721
REMARK UNBOUND:                -0.721
REMARK  4 active torsions:
REMARK  status: ('A' for Active; 'I' for Inactive)
REMARK    1  A    between atoms: S_1  and  N_4 
REMARK    2  A    between atoms: S_1  and  C_23 
REMARK    3  A    between atoms: N_7  and  C_10 
REMARK    4  A    between atoms: C_12  and  N_17 
ROOT
ATOM      1  N   UNK d   1      54.987  86.691  24.401  0.00  0.00    -0.203 NA
ATOM      2  C   UNK d   1      54.994  86.286  23.035  0.00  0.00     0.128 C 
ATOM      3  C   UNK d   1      55.858  87.160  22.151  0.00  0.00     0.157 C 
ATOM      4  N   UNK d   1      55.922  88.458  22.758  0.00  0.00    -0.212 N 
ATOM      5  C   UNK d   1      56.523  88.581  24.054  0.00  0.00     0.157 C 
ATOM      6  C   UNK d   1      56.206  87.331  24.836  0.00  0.00     0.128 C 
ENDROOT
BRANCH   4   7
ATOM      7  C   UNK d   1      55.406  89.578  22.085  0.00  0.00     0.726 A 
ATOM      8  N   UNK d   1      54.817  89.493  20.881  0.00  0.00    -0.045 NA
ATOM      9  C   UNK d   1      54.314  90.507  20.199  0.00  0.00     0.146 A 
ATOM     10  C   UNK d   1      54.394  91.766  20.770  0.00  0.00     0.078 A 
ATOM     11  C   UNK d   1      54.988  91.904  22.004  0.00  0.00     0.053 A 
ATOM     12  N   UNK d   1      55.476  90.817  22.629  0.00  0.00    -0.068 NA
ATOM     13  C   UNK d   1      55.095  93.240  22.651  0.00  0.00     0.071 C 
BRANCH   9  14
ATOM     14  N   UNK d   1      53.718  90.285  18.934  0.00  0.00    -0.361 N 
ATOM     15  C   UNK d   1      53.115  89.027  18.543  0.00  0.00     0.150 C 
ATOM     16  C   UNK d   1      52.121  89.360  17.431  0.00  0.00     0.187 C 
ATOM     17  O   UNK d   1      51.455  90.526  17.815  0.00  0.00    -0.388 OA
ATOM     18  C   UNK d   1      52.225  91.659  17.690  0.00  0.00     0.187 C 
ATOM     19  C   UNK d   1      53.702  91.360  17.970  0.00  0.00     0.150 C 
ENDBRANCH   9  14
ENDBRANCH   4   7
BRANCH   1  20
ATOM     20  S   UNK d   1      54.778  85.280  25.379  0.00  0.00     0.243 S 
ATOM     21  O   UNK d   1      56.063  84.471  25.307  0.00  0.00    -0.206 OA
ATOM     22  O   UNK d   1      54.574  85.699  26.806  0.00  0.00    -0.206 OA
BRANCH  20  23
ATOM     23  C   UNK d   1      53.466  84.292  24.803  0.00  0.00     0.074 A 
ATOM     24  C   UNK d   1      53.677  82.928  24.654  0.00  0.00     0.026 A 
ATOM     25  C   UNK d   1      52.685  82.084  24.203  0.00  0.00     0.020 A 
ATOM     26  C   UNK d   1      51.450  82.594  23.888  0.00  0.00     0.011 A 
ATOM     27  C   UNK d   1      51.201  83.947  24.022  0.00  0.00     0.020 A 
ATOM     28 Br   UNK d   1      50.089  81.413  23.266  0.00  0.00    -0.051 Br
ATOM     29  C   UNK d   1      52.224  84.773  24.481  0.00  0.00     0.026 A 
ENDBRANCH  20  23
ENDBRANCH   1  20
TORSDOF 4
ENDMDL
