MODEL 1
REMARK VINA RESULT:    -8.120      0.000      0.000
REMARK INTER + INTRA:         -10.511
REMARK INTER:                  -9.544
REMARK INTRA:                  -0.966
REMARK UNBOUND:                -0.966
REMARK  3 active torsions:
REMARK  status: ('A' for Active; 'I' for Inactive)
REMARK    1  A    between atoms: S_1  and  N_4 
REMARK    2  A    between atoms: S_1  and  C_19 
REMARK    3  A    between atoms: N_7  and  C_10 
ROOT
ATOM      1  N   UNK d   1      56.994  87.248  23.585  0.00  0.00    -0.303 N 
ATOM      2  C   UNK d   1      57.428  86.183  24.404  0.00  0.00     0.155 C 
ATOM      3  C   UNK d   1      56.378  85.558  25.289  0.00  0.00     0.145 C 
ATOM      4  N   UNK d   1      55.114  86.219  25.207  0.00  0.00    -0.361 N 
ATOM      5  C   UNK d   1      54.969  87.628  24.887  0.00  0.00     0.145 C 
ATOM      6  C   UNK d   1      56.221  88.197  24.285  0.00  0.00     0.155 C 
ENDROOT
BRANCH   4   7
ATOM      7  C   UNK d   1      53.916  85.491  25.442  0.00  0.00     0.158 A 
ATOM      8  N   UNK d   1      53.460  85.340  26.721  0.00  0.00    -0.222 NA
ATOM      9  C   UNK d   1      52.334  84.668  26.963  0.00  0.00     0.237 A 
ATOM     10  N   UNK d   1      51.612  84.121  25.987  0.00  0.00    -0.220 NA
ATOM     11  C   UNK d   1      52.039  84.257  24.733  0.00  0.00     0.182 A 
ATOM     12  N   UNK d   1      51.534  83.822  23.575  0.00  0.00    -0.222 NA
ATOM     13  C   UNK d   1      53.207  84.946  24.405  0.00  0.00     0.128 A 
ATOM     14  C   UNK d   1      52.358  84.225  22.567  0.00  0.00     0.210 A 
ATOM     15  N   UNK d   1      53.381  84.913  23.076  0.00  0.00    -0.345 N 
ATOM     16  H   UNK d   1      54.154  85.329  22.524  0.00  0.00     0.167 HD
ENDBRANCH   4   7
BRANCH   1  17
ATOM     17  S   UNK d   1      56.658  86.957  21.974  0.00  0.00     0.267 S 
ATOM     18  O   UNK d   1      55.646  85.821  21.886  0.00  0.00    -0.200 OA
ATOM     19  O   UNK d   1      57.842  86.525  21.188  0.00  0.00    -0.200 OA
BRANCH  17  20
ATOM     20  C   UNK d   1      55.908  88.308  21.117  0.00  0.00     0.121 A 
ATOM     21  S   UNK d   1      54.306  88.481  20.565  0.00  0.00    -0.069 SA
ATOM     22  C   UNK d   1      54.415  90.030  19.867  0.00  0.00     0.052 A 
ATOM     23  C   UNK d   1      55.726  90.376  20.090  0.00  0.00     0.028 A 
ATOM     24 Br   UNK d   1      53.066  91.056  18.988  0.00  0.00    -0.043 Br
ATOM     25  C   UNK d   1      56.488  89.485  20.734  0.00  0.00     0.035 A 
ENDBRANCH  17  20
ENDBRANCH   1  17
TORSDOF 3
ENDMDL
