MODEL 1
REMARK VINA RESULT:    -8.637      0.000      0.000
REMARK INTER + INTRA:         -13.542
REMARK INTER:                 -12.172
REMARK INTRA:                  -1.370
REMARK UNBOUND:                -1.370
REMARK  7 active torsions:
REMARK  status: ('A' for Active; 'I' for Inactive)
REMARK    1  A    between atoms: S_1  and  N_4 
REMARK    2  A    between atoms: S_1  and  C_10 
REMARK    3  A    between atoms: C_13  and  C_16 
REMARK    4  A    between atoms: C_16  and  O_17 
REMARK    5  A    between atoms: O_17  and  C_18 
REMARK    6  A    between atoms: C_18  and  C_20 
REMARK    7  A    between atoms: C_20  and  N_21 
ROOT
ATOM      1  C   UNK d   1      54.275  86.309  25.434  0.00  0.00     0.217 C 
ENDROOT
BRANCH   1   2
ATOM      2  C   UNK d   1      53.926  85.410  24.308  0.00  0.00    -0.034 A 
ATOM      3  C   UNK d   1      53.364  84.176  24.444  0.00  0.00     0.011 A 
ATOM      4  C   UNK d   1      53.069  83.388  23.336  0.00  0.00     0.025 A 
ATOM      5  C   UNK d   1      53.327  83.817  22.066  0.00  0.00     0.074 A 
ATOM      6  C   UNK d   1      53.896  85.069  21.923  0.00  0.00     0.025 A 
ATOM      7  C   UNK d   1      54.191  85.852  23.024  0.00  0.00     0.011 A 
BRANCH   5   8
ATOM      8  S   UNK d   1      52.967  82.850  20.644  0.00  0.00     0.243 S 
ATOM      9  O   UNK d   1      53.140  81.394  20.914  0.00  0.00    -0.206 OA
ATOM     10  O   UNK d   1      51.501  83.077  20.337  0.00  0.00    -0.206 OA
BRANCH   8  11
ATOM     11  N   UNK d   1      53.860  83.348  19.275  0.00  0.00    -0.202 NA
ATOM     12  C   UNK d   1      53.095  84.157  18.362  0.00  0.00     0.134 C 
ATOM     13  C   UNK d   1      53.831  84.111  17.020  0.00  0.00     0.183 C 
ATOM     14  O   UNK d   1      53.643  82.891  16.407  0.00  0.00    -0.389 OA
ATOM     15  C   UNK d   1      53.366  81.925  17.391  0.00  0.00     0.183 C 
ATOM     16  C   UNK d   1      54.327  82.187  18.542  0.00  0.00     0.134 C 
ENDBRANCH   8  11
ENDBRANCH   5   8
ENDBRANCH   1   2
BRANCH   1  17
ATOM     17  O   UNK d   1      55.490  85.945  26.050  0.00  0.00    -0.316 OA
BRANCH  17  18
ATOM     18  C   UNK d   1      56.637  85.591  25.383  0.00  0.00     0.277 C 
ATOM     19  O   UNK d   1      56.863  84.386  25.155  0.00  0.00    -0.263 OA
BRANCH  18  20
ATOM     20  C   UNK d   1      57.593  86.604  24.941  0.00  0.00     0.246 C 
BRANCH  20  21
ATOM     21  N   UNK d   1      57.108  87.427  23.872  0.00  0.00    -0.271 N 
ATOM     22  C   UNK d   1      56.421  88.666  24.089  0.00  0.00     0.262 A 
ATOM     23  O   UNK d   1      56.162  89.180  25.214  0.00  0.00    -0.267 OA
ATOM     24  C   UNK d   1      56.066  89.246  22.799  0.00  0.00     0.049 A 
ATOM     25  C   UNK d   1      56.508  88.411  21.806  0.00  0.00     0.048 A 
ATOM     26  C   UNK d   1      55.413  90.399  22.426  0.00  0.00     0.037 A 
ATOM     27  C   UNK d   1      56.299  88.728  20.478  0.00  0.00     0.019 A 
ATOM     28  C   UNK d   1      57.163  87.267  22.464  0.00  0.00     0.262 A 
ATOM     29  C   UNK d   1      55.642  89.890  20.119  0.00  0.00     0.020 A 
ATOM     30  C   UNK d   1      55.192  90.739  21.107  0.00  0.00     0.011 A 
ATOM     31 Br   UNK d   1      54.280  92.353  20.663  0.00  0.00    -0.051 Br
ATOM     32  O   UNK d   1      57.695  86.288  21.896  0.00  0.00    -0.267 OA
ENDBRANCH  20  21
ENDBRANCH  18  20
ENDBRANCH  17  18
ENDBRANCH   1  17
TORSDOF 7
ENDMDL
