/Users/jonathanwahrer/Desktop/Msc/3_Semester/Drug_Design_Praktikum/waehrer_HTS_screening/HTS_experiment/out/docking_results/vina_output/3npc/1112_docked.pdbqt
 OpenBabel03192220083D

 32 35  0  0  0  0  0  0  0  0999 V2000
   54.2750   86.3090   25.4340 C   0  0  0  0  0  2  0  0  0  0  0  0
   53.9260   85.4100   24.3080 C   0  0  0  0  0  0  0  0  0  0  0  0
   53.3640   84.1760   24.4440 C   0  0  0  0  0  3  0  0  0  0  0  0
   53.0690   83.3880   23.3360 C   0  0  0  0  0  3  0  0  0  0  0  0
   53.3270   83.8170   22.0660 C   0  0  0  0  0  0  0  0  0  0  0  0
   53.8960   85.0690   21.9230 C   0  0  0  0  0  3  0  0  0  0  0  0
   54.1910   85.8520   23.0240 C   0  0  0  0  0  3  0  0  0  0  0  0
   52.9670   82.8500   20.6440 S   0  0  0  0  0  0  0  0  0  0  0  0
   53.1400   81.3940   20.9140 O   0  0  0  0  0  0  0  0  0  0  0  0
   51.5010   83.0770   20.3370 O   0  0  0  0  0  0  0  0  0  0  0  0
   53.8600   83.3480   19.2750 N   0  0  0  0  0  0  0  0  0  0  0  0
   53.0950   84.1570   18.3620 C   0  0  0  0  0  2  0  0  0  0  0  0
   53.8310   84.1110   17.0200 C   0  0  0  0  0  2  0  0  0  0  0  0
   53.6430   82.8910   16.4070 O   0  0  0  0  0  0  0  0  0  0  0  0
   53.3660   81.9250   17.3910 C   0  0  0  0  0  2  0  0  0  0  0  0
   54.3270   82.1870   18.5420 C   0  0  0  0  0  2  0  0  0  0  0  0
   55.4900   85.9450   26.0500 O   0  0  0  0  0  0  0  0  0  0  0  0
   56.6370   85.5910   25.3830 C   0  0  0  0  0  0  0  0  0  0  0  0
   56.8630   84.3860   25.1550 O   0  0  0  0  0  0  0  0  0  0  0  0
   57.5930   86.6040   24.9410 C   0  0  0  0  0  2  0  0  0  0  0  0
   57.1080   87.4270   23.8720 N   0  0  0  0  0  0  0  0  0  0  0  0
   56.4210   88.6660   24.0890 C   0  0  0  0  0  0  0  0  0  0  0  0
   56.1620   89.1800   25.2140 O   0  0  0  0  0  0  0  0  0  0  0  0
   56.0660   89.2460   22.7990 C   0  0  0  0  0  0  0  0  0  0  0  0
   56.5080   88.4110   21.8060 C   0  0  0  0  0  0  0  0  0  0  0  0
   55.4130   90.3990   22.4260 C   0  0  0  0  0  3  0  0  0  0  0  0
   56.2990   88.7280   20.4780 C   0  0  0  0  0  3  0  0  0  0  0  0
   57.1630   87.2670   22.4640 C   0  0  0  0  0  0  0  0  0  0  0  0
   55.6420   89.8900   20.1190 C   0  0  0  0  0  3  0  0  0  0  0  0
   55.1920   90.7390   21.1070 C   0  0  0  0  0  0  0  0  0  0  0  0
   54.2800   92.3530   20.6630 Br  0  0  0  0  0  0  0  0  0  0  0  0
   57.6950   86.2880   21.8960 O   0  0  0  0  0  0  0  0  0  0  0  0
  1 17  1  0  0  0  0
  2  3  1  0  0  0  0
  2  1  1  0  0  0  0
  4  3  2  0  0  0  0
  5  4  1  0  0  0  0
  6  5  2  0  0  0  0
  6  7  1  0  0  0  0
  7  2  2  0  0  0  0
  8  9  2  0  0  0  0
  8  5  1  0  0  0  0
 10  8  2  0  0  0  0
 11  8  1  0  0  0  0
 12 11  1  0  0  0  0
 13 12  1  0  0  0  0
 14 13  1  0  0  0  0
 14 15  1  0  0  0  0
 15 16  1  0  0  0  0
 16 11  1  0  0  0  0
 18 17  1  0  0  0  0
 19 18  2  0  0  0  0
 20 18  1  0  0  0  0
 21 22  1  0  0  0  0
 21 20  1  0  0  0  0
 22 23  2  0  0  0  0
 24 22  1  0  0  0  0
 25 28  1  0  0  0  0
 25 24  2  0  0  0  0
 26 24  1  0  0  0  0
 27 25  1  0  0  0  0
 28 21  1  0  0  0  0
 29 27  2  0  0  0  0
 29 30  1  0  0  0  0
 30 26  2  0  0  0  0
 31 30  1  0  0  0  0
 32 28  2  0  0  0  0
M  END
>  <Pose>
1

>  <Score>
-8.637

$$$$
