/Users/jonathanwahrer/Desktop/Msc/3_Semester/Drug_Design_Praktikum/waehrer_HTS_screening/HTS_experiment/out/docking_results/vina_output/3npc/1113_docked.pdbqt
 OpenBabel03192220083D

 28 31  0  0  0  0  0  0  0  0999 V2000
   48.8270  102.1800   30.1180 C   0  0  0  0  0  0  0  0  0  0  0  0
   47.6270  102.1140   29.5180 N   0  0  0  0  0  0  0  0  0  0  0  0
   47.7960  101.6640   28.2480 C   0  0  0  0  0  3  0  0  0  0  0  0
   49.1020  101.4390   28.0280 N   0  0  0  0  0  0  0  0  0  0  0  0
   49.7380  101.7460   29.1490 C   0  0  0  0  0  3  0  0  0  0  0  0
   49.6590  100.9500   26.7830 C   0  0  0  0  0  2  0  0  0  0  0  0
   50.8220  100.0610   27.0160 C   0  0  0  0  0  0  0  0  0  0  0  0
   52.1210  100.4030   26.8130 N   0  0  0  0  0  0  0  0  0  0  0  0
   52.8600   99.3810   27.1200 O   0  0  0  0  0  0  0  0  0  0  0  0
   52.1330   98.3680   27.5200 C   0  0  0  0  0  0  0  0  0  0  0  0
   50.8480   98.8000   27.4530 N   0  0  0  0  0  0  0  0  0  0  0  0
   52.5890   97.0150   27.9600 C   0  0  0  0  0  2  0  0  0  0  0  0
   53.8030   96.6890   27.1620 C   0  0  0  0  0  0  0  0  0  0  0  0
   53.6690   95.8360   26.0780 C   0  0  0  0  0  3  0  0  0  0  0  0
   54.7310   95.4820   25.2870 C   0  0  0  0  0  3  0  0  0  0  0  0
   55.9620   95.9960   25.5900 C   0  0  0  0  0  0  0  0  0  0  0  0
   56.1460   96.8370   26.6440 C   0  0  0  0  0  3  0  0  0  0  0  0
   57.4650   95.5250   24.5130 Br  0  0  0  0  0  0  0  0  0  0  0  0
   55.0490   97.1800   27.4300 C   0  0  0  0  0  3  0  0  0  0  0  0
   49.1870  102.6930   31.7500 S   0  0  0  0  0  0  0  0  0  0  0  0
   47.8930  102.6360   32.5510 O   0  0  0  0  0  0  0  0  0  0  0  0
   50.1010  101.6780   32.4070 O   0  0  0  0  0  0  0  0  0  0  0  0
   49.8130  104.2430   31.8690 N   0  0  0  0  0  0  0  0  0  0  0  0
   49.0650  105.3100   31.3470 C   0  0  0  0  0  2  0  0  0  0  0  0
   49.0400  106.4690   32.2990 C   0  0  0  0  0  2  0  0  0  0  0  0
   50.3520  106.8290   32.5550 O   0  0  0  0  0  0  0  0  0  0  0  0
   51.0430  105.8570   33.2670 C   0  0  0  0  0  2  0  0  0  0  0  0
   50.8820  104.4840   32.7380 C   0  0  0  0  0  2  0  0  0  0  0  0
  1 20  1  0  0  0  0
  2  1  1  0  0  0  0
  3  2  2  0  0  0  0
  4  3  1  0  0  0  0
  4  5  1  0  0  0  0
  5  1  2  0  0  0  0
  6  7  1  0  0  0  0
  6  4  1  0  0  0  0
  7 11  1  0  0  0  0
  8  7  2  0  0  0  0
  8  9  1  0  0  0  0
  9 10  1  0  0  0  0
 10 12  1  0  0  0  0
 11 10  2  0  0  0  0
 13 19  1  0  0  0  0
 13 12  1  0  0  0  0
 14 13  2  0  0  0  0
 15 16  2  0  0  0  0
 15 14  1  0  0  0  0
 16 17  1  0  0  0  0
 17 19  2  0  0  0  0
 18 16  1  0  0  0  0
 20 23  1  0  0  0  0
 20 22  2  0  0  0  0
 20 21  2  0  0  0  0
 23 28  1  0  0  0  0
 24 23  1  0  0  0  0
 24 25  1  0  0  0  0
 25 26  1  0  0  0  0
 26 27  1  0  0  0  0
 28 27  1  0  0  0  0
M  END
>  <Pose>
1

>  <Score>
-8.883

$$$$
