MODEL 1
REMARK VINA RESULT:    -8.883      0.000      0.000
REMARK INTER + INTRA:         -12.560
REMARK INTER:                 -11.999
REMARK INTRA:                  -0.561
REMARK UNBOUND:                -0.561
REMARK  6 active torsions:
REMARK  status: ('A' for Active; 'I' for Inactive)
REMARK    1  A    between atoms: S_1  and  N_4 
REMARK    2  A    between atoms: S_1  and  C_10 
REMARK    3  A    between atoms: N_13  and  C_15 
REMARK    4  A    between atoms: C_15  and  C_16 
REMARK    5  A    between atoms: C_19  and  C_21 
REMARK    6  A    between atoms: C_21  and  C_22 
ROOT
ATOM      1  C   UNK d   1      48.827 102.180  30.118  0.00  0.00     0.188 A 
ATOM      2  N   UNK d   1      47.627 102.114  29.518  0.00  0.00    -0.229 NA
ATOM      3  C   UNK d   1      47.796 101.664  28.248  0.00  0.00     0.211 A 
ATOM      4  N   UNK d   1      49.102 101.439  28.028  0.00  0.00    -0.341 N 
ATOM      5  C   UNK d   1      49.738 101.746  29.149  0.00  0.00     0.138 A 
ENDROOT
BRANCH   4   6
ATOM      6  C   UNK d   1      49.659 100.950  26.783  0.00  0.00     0.212 C 
BRANCH   6   7
ATOM      7  C   UNK d   1      50.822 100.061  27.016  0.00  0.00     0.174 A 
ATOM      8  N   UNK d   1      52.121 100.403  26.813  0.00  0.00    -0.109 NA
ATOM      9  O   UNK d   1      52.860  99.381  27.120  0.00  0.00    -0.196 OA
ATOM     10  C   UNK d   1      52.133  98.368  27.520  0.00  0.00     0.177 A 
ATOM     11  N   UNK d   1      50.848  98.800  27.453  0.00  0.00    -0.207 NA
BRANCH  10  12
ATOM     12  C   UNK d   1      52.589  97.015  27.960  0.00  0.00     0.127 C 
BRANCH  12  13
ATOM     13  C   UNK d   1      53.803  96.689  27.162  0.00  0.00    -0.050 A 
ATOM     14  C   UNK d   1      53.669  95.836  26.078  0.00  0.00     0.009 A 
ATOM     15  C   UNK d   1      54.731  95.482  25.287  0.00  0.00     0.019 A 
ATOM     16  C   UNK d   1      55.962  95.996  25.590  0.00  0.00     0.011 A 
ATOM     17  C   UNK d   1      56.146  96.837  26.644  0.00  0.00     0.019 A 
ATOM     18 Br   UNK d   1      57.465  95.525  24.513  0.00  0.00    -0.051 Br
ATOM     19  C   UNK d   1      55.049  97.180  27.430  0.00  0.00     0.009 A 
ENDBRANCH  12  13
ENDBRANCH  10  12
ENDBRANCH   6   7
ENDBRANCH   4   6
BRANCH   1  20
ATOM     20  S   UNK d   1      49.187 102.693  31.750  0.00  0.00     0.280 S 
ATOM     21  O   UNK d   1      47.893 102.636  32.551  0.00  0.00    -0.199 OA
ATOM     22  O   UNK d   1      50.101 101.678  32.407  0.00  0.00    -0.199 OA
BRANCH  20  23
ATOM     23  N   UNK d   1      49.813 104.243  31.869  0.00  0.00    -0.301 N 
ATOM     24  C   UNK d   1      49.065 105.310  31.347  0.00  0.00     0.161 C 
ATOM     25  C   UNK d   1      49.040 106.469  32.299  0.00  0.00     0.188 C 
ATOM     26  O   UNK d   1      50.352 106.829  32.555  0.00  0.00    -0.388 OA
ATOM     27  C   UNK d   1      51.043 105.857  33.267  0.00  0.00     0.188 C 
ATOM     28  C   UNK d   1      50.882 104.484  32.738  0.00  0.00     0.161 C 
ENDBRANCH  20  23
ENDBRANCH   1  20
TORSDOF 6
ENDMDL
