/Users/jonathanwahrer/Desktop/Msc/3_Semester/Drug_Design_Praktikum/waehrer_HTS_screening/HTS_experiment/out/docking_results/vina_output/3npc/1114_docked.pdbqt
 OpenBabel03192220083D

 27 30  0  0  0  0  0  0  0  0999 V2000
   55.4950   88.4920   20.9330 C   0  0  0  0  0  0  0  0  0  0  0  0
   56.4550   87.8130   21.5860 N   0  0  0  0  0  0  0  0  0  0  0  0
   55.9590   86.6170   21.9520 C   0  0  0  0  0  3  0  0  0  0  0  0
   54.6850   86.4960   21.5510 N   0  0  0  0  0  0  0  0  0  0  0  0
   54.3970   87.6480   20.9240 C   0  0  0  0  0  3  0  0  0  0  0  0
   53.8140   85.3570   21.7560 C   0  0  0  0  0  2  0  0  0  0  0  0
   53.8740   84.3830   20.6430 C   0  0  0  0  0  0  0  0  0  0  0  0
   54.1670   83.0760   20.7830 N   0  0  0  0  0  0  0  0  0  0  0  0
   54.1340   82.5170   19.6110 O   0  0  0  0  0  0  0  0  0  0  0  0
   53.8330   83.3880   18.6870 C   0  0  0  0  0  0  0  0  0  0  0  0
   53.6690   84.5560   19.3280 N   0  0  0  0  0  0  0  0  0  0  0  0
   53.7090   83.0980   17.2580 C   0  0  0  0  0  0  0  0  0  0  0  0
   52.8790   82.1040   16.7820 C   0  0  0  0  0  3  0  0  0  0  0  0
   52.7720   81.8410   15.4180 C   0  0  0  0  0  0  0  0  0  0  0  0
   53.4920   82.5670   14.4970 C   0  0  0  0  0  3  0  0  0  0  0  0
   51.6150   80.4580   14.7810 Br  0  0  0  0  0  0  0  0  0  0  0  0
   54.3220   83.5610   14.9690 C   0  0  0  0  0  3  0  0  0  0  0  0
   54.4290   83.8220   16.3370 C   0  0  0  0  0  3  0  0  0  0  0  0
   55.6140   90.1120   20.2360 S   0  0  0  0  0  0  0  0  0  0  0  0
   55.5080   91.0930   21.3730 O   0  0  0  0  0  0  0  0  0  0  0  0
   56.9450   90.3180   19.5890 O   0  0  0  0  0  0  0  0  0  0  0  0
   54.3320   90.4080   19.1430 N   0  0  0  0  0  0  0  0  0  0  0  0
   54.7440   90.7290   17.8270 C   0  0  0  0  0  2  0  0  0  0  0  0
   53.9180   91.7320   17.0920 C   0  0  0  0  0  2  0  0  0  0  0  0
   52.5740   91.5340   17.4850 O   0  0  0  0  0  0  0  0  0  0  0  0
   52.5150   92.0510   18.7830 C   0  0  0  0  0  2  0  0  0  0  0  0
   53.2500   91.1360   19.6970 C   0  0  0  0  0  2  0  0  0  0  0  0
  1  2  1  0  0  0  0
  2  3  2  0  0  0  0
  4  6  1  0  0  0  0
  4  3  1  0  0  0  0
  5  1  2  0  0  0  0
  5  4  1  0  0  0  0
  7  8  2  0  0  0  0
  7  6  1  0  0  0  0
  9  8  1  0  0  0  0
 10 11  2  0  0  0  0
 10  9  1  0  0  0  0
 11  7  1  0  0  0  0
 12 10  1  0  0  0  0
 13 12  1  0  0  0  0
 14 13  2  0  0  0  0
 15 17  2  0  0  0  0
 15 14  1  0  0  0  0
 16 14  1  0  0  0  0
 17 18  1  0  0  0  0
 18 12  2  0  0  0  0
 19  1  1  0  0  0  0
 19 20  2  0  0  0  0
 21 19  2  0  0  0  0
 22 27  1  0  0  0  0
 22 19  1  0  0  0  0
 23 22  1  0  0  0  0
 24 25  1  0  0  0  0
 24 23  1  0  0  0  0
 25 26  1  0  0  0  0
 26 27  1  0  0  0  0
M  END
>  <Pose>
1

>  <Score>
-8.656

$$$$
