MODEL 1
REMARK VINA RESULT:    -8.947      0.000      0.000
REMARK INTER + INTRA:         -13.841
REMARK INTER:                 -12.869
REMARK INTRA:                  -0.971
REMARK UNBOUND:                -0.971
REMARK  10 active torsions:
REMARK  status: ('A' for Active; 'I' for Inactive)
REMARK    1  A    between atoms: S_1  and  C_2 
REMARK    2  A    between atoms: S_1  and  C_10 
REMARK    3  A    between atoms: C_2  and  C_3 
REMARK    4  A    between atoms: N_11  and  C_21 
REMARK    5  A    between atoms: C_14  and  N_20 
REMARK    6  A    between atoms: C_16  and  O_19 
REMARK    7  A    between atoms: C_23  and  C_28 
REMARK    8  A    between atoms: C_24  and  O_27 
REMARK    9  A    between atoms: C_25  and  O_26 
REMARK   10  A    between atoms: C_28  and  O_29 
ROOT
ATOM      1  C   UNK d   1      53.798  87.257  20.277  0.00  0.00     0.173 A 
ATOM      2  N   UNK d   1      54.380  86.207  20.856  0.00  0.00    -0.277 N 
ATOM      3  C   UNK d   1      55.238  86.701  21.788  0.00  0.00     0.186 A 
ATOM      4  N   UNK d   1      56.154  86.219  22.643  0.00  0.00    -0.042 NA
ATOM      5  C   UNK d   1      56.946  86.948  23.436  0.00  0.00     0.724 A 
ATOM      6  N   UNK d   1      56.812  88.329  23.388  0.00  0.00    -0.036 NA
ATOM      7  C   UNK d   1      55.944  88.889  22.582  0.00  0.00     0.214 A 
ATOM      8  C   UNK d   1      55.142  88.119  21.766  0.00  0.00     0.159 A 
ATOM      9  N   UNK d   1      54.252  88.395  20.821  0.00  0.00    -0.216 NA
ENDROOT
BRANCH   2  10
ATOM     10  C   UNK d   1      54.188  84.807  20.656  0.00  0.00     0.263 C 
ATOM     11  O   UNK d   1      54.161  84.419  19.298  0.00  0.00    -0.353 OA
ATOM     12  C   UNK d   1      53.784  83.066  19.462  0.00  0.00     0.179 C 
ATOM     13  C   UNK d   1      52.441  83.315  20.198  0.00  0.00     0.182 C 
ATOM     14  C   UNK d   1      53.003  84.190  21.326  0.00  0.00     0.198 C 
BRANCH  12  15
ATOM     15  C   UNK d   1      53.596  82.371  18.167  0.00  0.00     0.198 C 
BRANCH  15  16
ATOM     16  O   UNK d   1      52.367  82.719  17.592  0.00  0.00    -0.398 OA
ATOM     17  H   UNK d   1      51.973  81.876  17.209  0.00  0.00     0.209 HD
ENDBRANCH  15  16
ENDBRANCH  12  15
BRANCH  13  18
ATOM     18  O   UNK d   1      51.869  82.157  20.651  0.00  0.00    -0.390 OA
ATOM     19  H   UNK d   1      51.013  81.995  20.186  0.00  0.00     0.210 HD
ENDBRANCH  13  18
BRANCH  14  20
ATOM     20  O   UNK d   1      53.398  83.307  22.363  0.00  0.00    -0.388 OA
ATOM     21  H   UNK d   1      52.560  83.100  22.833  0.00  0.00     0.210 HD
ENDBRANCH  14  20
ENDBRANCH   2  10
BRANCH   1  22
ATOM     22  S   UNK d   1      52.646  87.201  18.898  0.00  0.00    -0.087 SA
BRANCH  22  23
ATOM     23  C   UNK d   1      51.888  88.862  18.625  0.00  0.00     0.122 C 
BRANCH  23  24
ATOM     24  C   UNK d   1      52.855  89.739  17.927  0.00  0.00    -0.031 A 
ATOM     25  C   UNK d   1      52.719  91.100  17.805  0.00  0.00     0.018 A 
ATOM     26  C   UNK d   1      53.552  91.845  17.045  0.00  0.00     0.019 A 
ATOM     27 Br   UNK d   1      51.359  91.899  18.887  0.00  0.00    -0.051 Br
ATOM     28  C   UNK d   1      54.607  91.270  16.345  0.00  0.00     0.001 A 
ATOM     29  C   UNK d   1      54.774  89.882  16.445  0.00  0.00     0.001 A 
ATOM     30  C   UNK d   1      53.913  89.132  17.222  0.00  0.00     0.009 A 
ENDBRANCH  23  24
ENDBRANCH  22  23
ENDBRANCH   1  22
BRANCH   5  31
ATOM     31  N   UNK d   1      57.954  86.416  24.308  0.00  0.00    -0.231 N 
ATOM     32  H   UNK d   1      58.825  85.965  24.036  0.00  0.00     0.174 HD
ATOM     33  H   UNK d   1      57.751  86.464  25.367  0.00  0.00     0.174 HD
ENDBRANCH   5  31
BRANCH   7  34
ATOM     34  O   UNK d   1      55.765  90.248  22.503  0.00  0.00    -0.343 OA
ATOM     35  H   UNK d   1      55.773  90.865  23.306  0.00  0.00     0.219 HD
ENDBRANCH   7  34
TORSDOF 10
ENDMDL
