MODEL 1
REMARK VINA RESULT:    -6.182      0.000      0.000
REMARK INTER + INTRA:          -8.951
REMARK INTER:                  -7.267
REMARK INTRA:                  -1.684
REMARK UNBOUND:                -1.684
REMARK  3 active torsions:
REMARK  status: ('A' for Active; 'I' for Inactive)
REMARK    1  A    between atoms: C_6  and  C_17 
REMARK    2  A    between atoms: N_9  and  C_10 
REMARK    3  A    between atoms: C_23  and  O_30 
ROOT
ATOM      1  C   UNK d   1      51.901  82.363  28.078  0.00  0.00     0.246 C 
ATOM      2  N   UNK d   1      50.826  81.408  27.849  0.00  0.00    -0.065 N 
ATOM      3  C   UNK d   1      49.666  82.086  27.296  0.00  0.00     0.240 C 
ATOM      4  C   UNK d   1      49.725  83.588  27.396  0.00  0.00     0.067 C 
ATOM      5  C   UNK d   1      50.259  83.944  28.759  0.00  0.00    -0.043 A 
ATOM      6  C   UNK d   1      51.436  83.251  29.129  0.00  0.00     0.017 A 
ATOM      7  C   UNK d   1      51.990  83.482  30.357  0.00  0.00     0.113 A 
ATOM      8  C   UNK d   1      51.361  84.403  31.191  0.00  0.00     0.139 A 
ATOM      9  C   UNK d   1      50.218  85.065  30.809  0.00  0.00     0.108 A 
ATOM     10  C   UNK d   1      49.645  84.841  29.571  0.00  0.00     0.047 A 
ATOM     11  O   UNK d   1      49.835  85.903  31.836  0.00  0.00    -0.323 OA
ATOM     12  C   UNK d   1      50.568  85.567  32.988  0.00  0.00     0.352 C 
ATOM     13  O   UNK d   1      51.671  84.838  32.451  0.00  0.00    -0.320 OA
ATOM     14  C   UNK d   1      50.417  80.680  29.001  0.00  0.00     0.270 C 
ATOM     15  H   UNK d   1      51.170  80.739  27.128  0.00  0.00     0.280 HD
ENDROOT
BRANCH   1  16
ATOM     16  C   UNK d   1      53.222  81.748  28.085  0.00  0.00     0.208 C 
ATOM     17  C   UNK d   1      53.158  80.666  26.985  0.00  0.00     0.261 C 
ATOM     18  N   UNK d   1      52.971  81.185  25.679  0.00  0.00    -0.187 NA
ATOM     19  O   UNK d   1      53.264  79.465  27.247  0.00  0.00    -0.270 OA
ATOM     20  C   UNK d   1      53.405  82.316  25.255  0.00  0.00     0.190 C 
ATOM     21  S   UNK d   1      53.121  82.890  23.588  0.00  0.00    -0.010 SA
ATOM     22  N   UNK d   1      54.135  83.098  26.229  0.00  0.00    -0.259 N 
ATOM     23  C   UNK d   1      54.326  82.599  27.545  0.00  0.00     0.246 C 
ATOM     24  O   UNK d   1      55.368  82.898  28.130  0.00  0.00    -0.272 OA
BRANCH  22  25
ATOM     25  C   UNK d   1      54.663  84.346  25.885  0.00  0.00     0.044 A 
ATOM     26  C   UNK d   1      53.838  85.466  26.052  0.00  0.00     0.031 A 
ATOM     27  C   UNK d   1      54.288  86.729  25.736  0.00  0.00     0.021 A 
ATOM     28  C   UNK d   1      55.580  86.888  25.243  0.00  0.00     0.011 A 
ATOM     29  C   UNK d   1      56.397  85.762  25.079  0.00  0.00     0.021 A 
ATOM     30 Br   UNK d   1      56.235  88.601  24.797  0.00  0.00    -0.051 Br
ATOM     31  C   UNK d   1      55.931  84.510  25.401  0.00  0.00     0.031 A 
ENDBRANCH  22  25
ENDBRANCH   1  16
BRANCH   7  32
ATOM     32  O   UNK d   1      53.139  82.825  30.775  0.00  0.00    -0.352 OA
ATOM     33  C   UNK d   1      53.019  81.770  31.723  0.00  0.00     0.210 C 
ENDBRANCH   7  32
TORSDOF 3
ENDMDL
