/Users/jonathanwahrer/Desktop/Msc/3_Semester/Drug_Design_Praktikum/waehrer_HTS_screening/HTS_experiment/out/docking_results/vina_output/3npc/1143_docked.pdbqt
 OpenBabel03192220093D

 33 37  0  0  1  0  0  0  0  0999 V2000
   51.9010   82.3630   28.0780 C   0  0  1  0  0  3  0  0  0  0  0  0
   50.8260   81.4080   27.8490 N   0  0  0  0  0  4  0  0  0  0  0  0
   49.6660   82.0860   27.2960 C   0  0  0  0  0  2  0  0  0  0  0  0
   49.7250   83.5880   27.3960 C   0  0  0  0  0  2  0  0  0  0  0  0
   50.2590   83.9440   28.7590 C   0  0  0  0  0  0  0  0  0  0  0  0
   51.4360   83.2510   29.1290 C   0  0  0  0  0  0  0  0  0  0  0  0
   51.9900   83.4820   30.3570 C   0  0  0  0  0  0  0  0  0  0  0  0
   51.3610   84.4030   31.1910 C   0  0  0  0  0  0  0  0  0  0  0  0
   50.2180   85.0650   30.8090 C   0  0  0  0  0  0  0  0  0  0  0  0
   49.6450   84.8410   29.5710 C   0  0  0  0  0  3  0  0  0  0  0  0
   49.8350   85.9030   31.8360 O   0  0  0  0  0  0  0  0  0  0  0  0
   50.5680   85.5670   32.9880 C   0  0  0  0  0  2  0  0  0  0  0  0
   51.6710   84.8380   32.4510 O   0  0  0  0  0  0  0  0  0  0  0  0
   50.4170   80.6800   29.0010 C   0  0  0  0  0  1  0  0  0  0  0  0
   51.1700   80.7390   27.1280 H   0  0  0  0  0  0  0  0  0  0  0  0
   53.2220   81.7480   28.0850 C   0  0  1  0  0  3  0  0  0  0  0  0
   53.1580   80.6660   26.9850 C   0  0  0  0  0  0  0  0  0  0  0  0
   52.9710   81.1850   25.6790 N   0  0  0  0  0  2  0  0  0  0  0  0
   53.2640   79.4650   27.2470 O   0  0  0  0  0  0  0  0  0  0  0  0
   53.4050   82.3160   25.2550 C   0  0  0  0  0  0  0  0  0  0  0  0
   53.1210   82.8900   23.5880 S   0  0  0  0  0  0  0  0  0  0  0  0
   54.1350   83.0980   26.2290 N   0  0  0  0  0  0  0  0  0  0  0  0
   54.3260   82.5990   27.5450 C   0  0  0  0  0  0  0  0  0  0  0  0
   55.3680   82.8980   28.1300 O   0  0  0  0  0  0  0  0  0  0  0  0
   54.6630   84.3460   25.8850 C   0  0  0  0  0  0  0  0  0  0  0  0
   53.8380   85.4660   26.0520 C   0  0  0  0  0  3  0  0  0  0  0  0
   54.2880   86.7290   25.7360 C   0  0  0  0  0  3  0  0  0  0  0  0
   55.5800   86.8880   25.2430 C   0  0  0  0  0  0  0  0  0  0  0  0
   56.3970   85.7620   25.0790 C   0  0  0  0  0  3  0  0  0  0  0  0
   56.2350   88.6010   24.7970 Br  0  0  0  0  0  0  0  0  0  0  0  0
   55.9310   84.5100   25.4010 C   0  0  0  0  0  3  0  0  0  0  0  0
   53.1390   82.8250   30.7750 O   0  0  0  0  0  0  0  0  0  0  0  0
   53.0190   81.7700   31.7230 C   0  0  0  0  0  1  0  0  0  0  0  0
  1 16  1  0  0  0  0
  1  6  1  1  0  0  0
  2  1  1  0  0  0  0
  2 14  1  0  0  0  0
  3  4  1  0  0  0  0
  3  2  1  0  0  0  0
  4  5  1  0  0  0  0
  5  6  2  0  0  0  0
  5 10  1  0  0  0  0
  6  7  1  0  0  0  0
  7 32  1  0  0  0  0
  7  8  2  0  0  0  0
  8 13  1  0  0  0  0
  9  8  1  0  0  0  0
  9 11  1  0  0  0  0
 10  9  2  0  0  0  0
 11 12  1  0  0  0  0
 13 12  1  0  0  0  0
 15  2  1  0  0  0  0
 16 17  1  6  0  0  0
 17 19  2  0  0  0  0
 18 17  1  0  0  0  0
 20 18  1  0  0  0  0
 20 22  1  0  0  0  0
 21 20  2  0  0  0  0
 22 23  1  0  0  0  0
 23 16  1  0  0  0  0
 23 24  2  0  0  0  0
 25 26  1  0  0  0  0
 25 22  1  0  0  0  0
 27 26  2  0  0  0  0
 28 27  1  0  0  0  0
 29 28  2  0  0  0  0
 29 31  1  0  0  0  0
 30 28  1  0  0  0  0
 31 25  2  0  0  0  0
 32 33  1  0  0  0  0
M  END
>  <Pose>
1

>  <Score>
-6.182

$$$$
