/Users/jonathanwahrer/Desktop/Msc/3_Semester/Drug_Design_Praktikum/waehrer_HTS_screening/HTS_experiment/out/docking_results/vina_output/3npc/1151_docked.pdbqt
 OpenBabel03192220103D

 24 27  0  0  1  0  0  0  0  0999 V2000
   47.0610  104.3340   32.7540 S   0  0  0  0  0  0  0  0  0  0  0  0
   47.0460  104.3070   34.2550 O   0  0  0  0  0  0  0  0  0  0  0  0
   47.0950  105.7390   32.2220 O   0  0  0  0  0  0  0  0  0  0  0  0
   48.4320  103.4040   32.1030 C   0  0  0  0  0  2  0  0  0  0  0  0
   48.0090  102.9550   30.7190 C   0  0  2  0  0  3  0  0  0  0  0  0
   46.9730  101.9500   30.8520 N   0  0  0  0  0  0  0  0  0  0  0  0
   45.9730  102.0570   31.8930 C   0  0  0  0  0  2  0  0  0  0  0  0
   45.5950  103.5250   32.0980 C   0  0  0  0  0  2  0  0  0  0  0  0
   47.2310  101.0120   29.8150 C   0  0  0  0  0  0  0  0  0  0  0  0
   46.4290  100.1050   29.4070 O   0  0  0  0  0  0  0  0  0  0  0  0
   48.5270  101.2120   29.2660 N   0  0  0  0  0  0  0  0  0  0  0  0
   49.0940  102.3010   29.9800 C   0  0  0  0  0  0  0  0  0  0  0  0
   50.3080  102.6590   29.9900 O   0  0  0  0  0  0  0  0  0  0  0  0
   49.1710  100.4700   28.1940 C   0  0  1  0  0  3  0  0  0  0  0  0
   49.7440  101.4060   27.1440 C   0  0  0  0  0  2  0  0  0  0  0  0
   50.2980  100.5060   26.0380 C   0  0  0  0  0  2  0  0  0  0  0  0
   51.3960   99.8160   26.6070 O   0  0  0  0  0  0  0  0  0  0  0  0
   51.3500   99.3720   27.9240 C   0  0  0  0  0  0  0  0  0  0  0  0
   50.2870   99.6680   28.7290 C   0  0  0  0  0  0  0  0  0  0  0  0
   52.4270   98.6230   28.3720 C   0  0  0  0  0  0  0  0  0  0  0  0
   50.2410   99.2310   30.0240 C   0  0  0  0  0  3  0  0  0  0  0  0
   51.2900   98.4850   30.5060 C   0  0  0  0  0  3  0  0  0  0  0  0
   52.3510   98.1960   29.6850 C   0  0  0  0  0  3  0  0  0  0  0  0
   53.9030   98.2140   27.2450 Br  0  0  0  0  0  0  0  0  0  0  0  0
  1  2  2  0  0  0  0
  3  1  2  0  0  0  0
  4  1  1  0  0  0  0
  5  6  1  0  0  0  0
  5  4  1  1  0  0  0
  6  7  1  0  0  0  0
  7  8  1  0  0  0  0
  8  1  1  0  0  0  0
  9  6  1  0  0  0  0
 10  9  2  0  0  0  0
 11  9  1  0  0  0  0
 11 12  1  0  0  0  0
 12 13  2  0  0  0  0
 12  5  1  0  0  0  0
 14 15  1  6  0  0  0
 14 19  1  0  0  0  0
 14 11  1  0  0  0  0
 16 17  1  0  0  0  0
 16 15  1  0  0  0  0
 17 18  1  0  0  0  0
 18 20  2  0  0  0  0
 18 19  1  0  0  0  0
 19 21  2  0  0  0  0
 20 23  1  0  0  0  0
 21 22  1  0  0  0  0
 23 22  2  0  0  0  0
 24 20  1  0  0  0  0
M  END
>  <Pose>
1

>  <Score>
-7.333

$$$$
