MODEL 1
REMARK VINA RESULT:    -7.333      0.000      0.000
REMARK INTER + INTRA:          -7.696
REMARK INTER:                  -7.762
REMARK INTRA:                   0.066
REMARK UNBOUND:                 0.066
REMARK  1 active torsions:
REMARK  status: ('A' for Active; 'I' for Inactive)
REMARK    1  A    between atoms: N_11  and  C_14 
ROOT
ATOM      1  S   UNK d   1      47.061 104.334  32.754  0.00  0.00     0.148 S 
ATOM      2  O   UNK d   1      47.046 104.307  34.255  0.00  0.00    -0.228 OA
ATOM      3  O   UNK d   1      47.095 105.739  32.222  0.00  0.00    -0.228 OA
ATOM      4  C   UNK d   1      48.432 103.404  32.103  0.00  0.00     0.175 C 
ATOM      5  C   UNK d   1      48.009 102.955  30.719  0.00  0.00     0.195 C 
ATOM      6  N   UNK d   1      46.973 101.950  30.852  0.00  0.00    -0.318 N 
ATOM      7  C   UNK d   1      45.973 102.057  31.893  0.00  0.00     0.143 C 
ATOM      8  C   UNK d   1      45.595 103.525  32.098  0.00  0.00     0.160 C 
ATOM      9  C   UNK d   1      47.231 101.012  29.815  0.00  0.00     0.328 C 
ATOM     10  O   UNK d   1      46.429 100.105  29.407  0.00  0.00    -0.246 OA
ATOM     11  N   UNK d   1      48.527 101.212  29.266  0.00  0.00    -0.259 N 
ATOM     12  C   UNK d   1      49.094 102.301  29.980  0.00  0.00     0.252 C 
ATOM     13  O   UNK d   1      50.308 102.659  29.990  0.00  0.00    -0.270 OA
ENDROOT
BRANCH  11  14
ATOM     14  C   UNK d   1      49.171 100.470  28.194  0.00  0.00     0.135 C 
ATOM     15  C   UNK d   1      49.744 101.406  27.144  0.00  0.00     0.058 C 
ATOM     16  C   UNK d   1      50.298 100.506  26.038  0.00  0.00     0.178 C 
ATOM     17  O   UNK d   1      51.396  99.816  26.607  0.00  0.00    -0.349 OA
ATOM     18  C   UNK d   1      51.350  99.372  27.924  0.00  0.00     0.094 A 
ATOM     19  C   UNK d   1      50.287  99.668  28.729  0.00  0.00     0.000 A 
ATOM     20  C   UNK d   1      52.427  98.623  28.372  0.00  0.00     0.044 A 
ATOM     21  C   UNK d   1      50.241  99.231  30.024  0.00  0.00     0.012 A 
ATOM     22  C   UNK d   1      51.290  98.485  30.506  0.00  0.00     0.002 A 
ATOM     23  C   UNK d   1      52.351  98.196  29.685  0.00  0.00     0.022 A 
ATOM     24 Br   UNK d   1      53.903  98.214  27.245  0.00  0.00    -0.048 Br
ENDBRANCH  11  14
TORSDOF 1
ENDMDL
