MODEL 1
REMARK VINA RESULT:    -8.035      0.000      0.000
REMARK INTER + INTRA:         -10.567
REMARK INTER:                  -9.444
REMARK INTRA:                  -1.123
REMARK UNBOUND:                -1.123
REMARK  3 active torsions:
REMARK  status: ('A' for Active; 'I' for Inactive)
REMARK    1  A    between atoms: C_2  and  C_7 
REMARK       I    between atoms: C_7  and  N_9 
REMARK    2  A    between atoms: N_9  and  C_10 
REMARK    3  A    between atoms: N_12  and  C_15 
ROOT
ATOM      1  C   UNK d   1      56.234  88.856  21.918  0.00  0.00     0.104 C 
ATOM      2  C   UNK d   1      56.437  87.401  21.579  0.00  0.00     0.149 C 
ATOM      3  N   UNK d   1      55.152  86.830  21.953  0.00  0.00    -0.361 N 
ATOM      4  C   UNK d   1      54.856  87.382  23.254  0.00  0.00     0.127 C 
ATOM      5  C   UNK d   1      55.508  88.752  23.241  0.00  0.00     0.046 C 
ENDROOT
BRANCH   1   6
ATOM      6  N   UNK d   1      55.331  89.508  20.981  0.00  0.00    -0.350 N 
ATOM      7  C   UNK d   1      55.797  90.115  19.793  0.00  0.00     0.259 C 
ATOM      8  O   UNK d   1      57.008  90.134  19.462  0.00  0.00    -0.267 OA
ATOM      9  H   UNK d   1      54.306  89.540  21.177  0.00  0.00     0.163 HD
BRANCH   7  10
ATOM     10  C   UNK d   1      54.863  90.774  18.852  0.00  0.00     0.073 A 
ATOM     11  S   UNK d   1      55.135  91.333  17.264  0.00  0.00    -0.095 SA
ATOM     12  C   UNK d   1      53.582  91.940  16.914  0.00  0.00     0.069 A 
ATOM     13  C   UNK d   1      52.883  91.683  18.066  0.00  0.00     0.018 A 
ATOM     14  C   UNK d   1      53.544  91.084  19.060  0.00  0.00     0.044 A 
ATOM     15 Br   UNK d   1      51.017  92.199  18.170  0.00  0.00    -0.051 Br
ENDBRANCH   7  10
ENDBRANCH   1   6
BRANCH   3  16
ATOM     16  C   UNK d   1      54.386  85.915  21.155  0.00  0.00     0.174 A 
ATOM     17  N   UNK d   1      54.487  84.584  21.332  0.00  0.00    -0.238 NA
ATOM     18  C   UNK d   1      53.758  83.752  20.568  0.00  0.00     0.136 A 
ATOM     19  C   UNK d   1      52.902  84.213  19.601  0.00  0.00     0.119 A 
ATOM     20  N   UNK d   1      52.788  85.538  19.412  0.00  0.00    -0.294 N 
ATOM     21  C   UNK d   1      53.524  86.363  20.182  0.00  0.00     0.203 A 
ATOM     22  C   UNK d   1      52.039  86.267  18.551  0.00  0.00     0.240 A 
ATOM     23  N   UNK d   1      53.202  87.603  19.767  0.00  0.00    -0.126 NA
ATOM     24  N   UNK d   1      52.313  87.561  18.789  0.00  0.00    -0.143 NA
ENDBRANCH   3  16
TORSDOF 3
ENDMDL
