MODEL 1
REMARK VINA RESULT:    -8.194      0.000      0.000
REMARK INTER + INTRA:         -10.862
REMARK INTER:                 -10.589
REMARK INTRA:                  -0.273
REMARK UNBOUND:                -0.273
REMARK  5 active torsions:
REMARK  status: ('A' for Active; 'I' for Inactive)
REMARK    1  A    between atoms: C_4  and  C_6 
REMARK    2  A    between atoms: C_7  and  C_9 
REMARK    3  A    between atoms: C_11  and  C_14 
REMARK    4  A    between atoms: N_16  and  C_19 
REMARK    5  A    between atoms: C_19  and  C_20 
REMARK       I    between atoms: C_20  and  N_22 
ROOT
ATOM      1  C   UNK d   1      51.461  98.879  28.278  0.00  0.00     0.178 A 
ATOM      2  N   UNK d   1      52.031  98.341  27.184  0.00  0.00    -0.201 NA
ATOM      3  C   UNK d   1      53.175  97.717  27.516  0.00  0.00     0.229 A 
ATOM      4  N   UNK d   1      53.291  97.889  28.844  0.00  0.00    -0.102 NA
ATOM      5  O   UNK d   1      52.261  98.582  29.274  0.00  0.00    -0.195 OA
ENDROOT
BRANCH   3   6
ATOM      6  C   UNK d   1      54.109  97.003  26.646  0.00  0.00     0.221 A 
ATOM      7  N   UNK d   1      55.402  97.310  26.447  0.00  0.00    -0.147 NA
ATOM      8  N   UNK d   1      55.952  96.444  25.589  0.00  0.00    -0.253 N 
ATOM      9  C   UNK d   1      55.001  95.556  25.223  0.00  0.00     0.231 A 
ATOM     10  N   UNK d   1      53.878  95.921  25.885  0.00  0.00    -0.218 NA
BRANCH   8  11
ATOM     11  C   UNK d   1      57.330  96.448  25.126  0.00  0.00     0.254 C 
BRANCH  11  12
ATOM     12  C   UNK d   1      57.767  97.850  24.958  0.00  0.00     0.235 C 
ATOM     13  O   UNK d   1      57.980  98.278  23.803  0.00  0.00    -0.272 OA
ATOM     14  N   UNK d   1      57.935  98.680  26.091  0.00  0.00    -0.369 N 
ATOM     15  H   UNK d   1      57.590  99.680  26.104  0.00  0.00     0.159 HD
ATOM     16  H   UNK d   1      58.401  98.371  26.978  0.00  0.00     0.159 HD
ENDBRANCH  11  12
ENDBRANCH   8  11
ENDBRANCH   3   6
BRANCH   1  17
ATOM     17  C   UNK d   1      50.177  99.660  28.353  0.00  0.00     0.074 A 
ATOM     18  C   UNK d   1      50.392 101.159  28.605  0.00  0.00     0.032 A 
ATOM     19  C   UNK d   1      49.885 100.678  27.318  0.00  0.00     0.023 A 
BRANCH  18  20
ATOM     20  C   UNK d   1      49.385 101.736  29.583  0.00  0.00    -0.045 A 
ATOM     21  C   UNK d   1      49.731 102.064  30.849  0.00  0.00     0.034 A 
ATOM     22  C   UNK d   1      48.741 102.582  31.643  0.00  0.00     0.051 A 
ATOM     23  S   UNK d   1      47.382 102.595  30.624  0.00  0.00    -0.094 SA
ATOM     24 Br   UNK d   1      48.900 103.149  33.482  0.00  0.00    -0.043 Br
ATOM     25  C   UNK d   1      48.086 101.950  29.216  0.00  0.00     0.058 A 
ENDBRANCH  18  20
ENDBRANCH   1  17
TORSDOF 5
ENDMDL
