/Users/jonathanwahrer/Desktop/Msc/3_Semester/Drug_Design_Praktikum/waehrer_HTS_screening/HTS_experiment/out/docking_results/vina_output/3npc/1160_docked.pdbqt
 OpenBabel03192220103D

 25 28  0  0  1  0  0  0  0  0999 V2000
   51.4610   98.8790   28.2780 C   0  0  0  0  0  0  0  0  0  0  0  0
   52.0310   98.3410   27.1840 N   0  0  0  0  0  0  0  0  0  0  0  0
   53.1750   97.7170   27.5160 C   0  0  0  0  0  0  0  0  0  0  0  0
   53.2910   97.8890   28.8440 N   0  0  0  0  0  0  0  0  0  0  0  0
   52.2610   98.5820   29.2740 O   0  0  0  0  0  0  0  0  0  0  0  0
   54.1090   97.0030   26.6460 C   0  0  0  0  0  0  0  0  0  0  0  0
   55.4020   97.3100   26.4470 N   0  0  0  0  0  0  0  0  0  0  0  0
   55.9520   96.4440   25.5890 N   0  0  0  0  0  0  0  0  0  0  0  0
   55.0010   95.5560   25.2230 C   0  0  0  0  0  3  0  0  0  0  0  0
   53.8780   95.9210   25.8850 N   0  0  0  0  0  0  0  0  0  0  0  0
   57.3300   96.4480   25.1260 C   0  0  0  0  0  2  0  0  0  0  0  0
   57.7670   97.8500   24.9580 C   0  0  0  0  0  0  0  0  0  0  0  0
   57.9800   98.2780   23.8030 O   0  0  0  0  0  0  0  0  0  0  0  0
   57.9350   98.6800   26.0910 N   0  0  0  0  0  0  0  0  0  0  0  0
   57.5900   99.6800   26.1040 H   0  0  0  0  0  0  0  0  0  0  0  0
   58.4010   98.3710   26.9780 H   0  0  0  0  0  0  0  0  0  0  0  0
   50.1770   99.6600   28.3530 C   0  0  1  0  0  3  0  0  0  0  0  0
   50.3920  101.1590   28.6050 C   0  0  1  0  0  3  0  0  0  0  0  0
   49.8850  100.6780   27.3180 C   0  0  0  0  0  2  0  0  0  0  0  0
   49.3850  101.7360   29.5830 C   0  0  0  0  0  0  0  0  0  0  0  0
   49.7310  102.0640   30.8490 C   0  0  0  0  0  3  0  0  0  0  0  0
   48.7410  102.5820   31.6430 C   0  0  0  0  0  0  0  0  0  0  0  0
   47.3820  102.5950   30.6240 S   0  0  0  0  0  0  0  0  0  0  0  0
   48.9000  103.1490   33.4820 Br  0  0  0  0  0  0  0  0  0  0  0  0
   48.0860  101.9500   29.2160 C   0  0  0  0  0  3  0  0  0  0  0  0
  1  5  1  0  0  0  0
  2  3  1  0  0  0  0
  2  1  2  0  0  0  0
  3  4  2  0  0  0  0
  4  5  1  0  0  0  0
  6  3  1  0  0  0  0
  7  6  2  0  0  0  0
  8  7  1  0  0  0  0
  9  8  1  0  0  0  0
  9 10  2  0  0  0  0
 10  6  1  0  0  0  0
 11  8  1  0  0  0  0
 12 11  1  0  0  0  0
 12 14  1  0  0  0  0
 13 12  2  0  0  0  0
 14 15  1  0  0  0  0
 14 16  1  0  0  0  0
 17  1  1  6  0  0  0
 17 18  1  0  0  0  0
 18 20  1  1  0  0  0
 19 17  1  0  0  0  0
 19 18  1  0  0  0  0
 20 21  1  0  0  0  0
 21 22  2  0  0  0  0
 22 24  1  0  0  0  0
 23 22  1  0  0  0  0
 25 20  2  0  0  0  0
 25 23  1  0  0  0  0
M  END
>  <Pose>
1

>  <Score>
-8.194

$$$$
