MODEL 1
REMARK VINA RESULT:    -8.577      0.000      0.000
REMARK INTER + INTRA:         -12.732
REMARK INTER:                 -11.836
REMARK INTRA:                  -0.896
REMARK UNBOUND:                -0.896
REMARK  7 active torsions:
REMARK  status: ('A' for Active; 'I' for Inactive)
REMARK    1  A    between atoms: C_5  and  C_6 
REMARK    2  A    between atoms: C_6  and  C_8 
REMARK    3  A    between atoms: C_8  and  N_9 
REMARK    4  A    between atoms: N_16  and  C_19 
REMARK    5  A    between atoms: C_17  and  N_18 
REMARK    6  A    between atoms: C_19  and  C_20 
REMARK    7  A    between atoms: C_20  and  N_21 
ROOT
ATOM      1  N   UNK d   1      50.512  99.813  27.470  0.00  0.00    -0.172 N 
ATOM      2  C   UNK d   1      49.678  98.842  27.910  0.00  0.00     0.079 A 
ATOM      3  C   UNK d   1      48.591  99.404  28.507  0.00  0.00     0.079 A 
ATOM      4  C   UNK d   1      47.591  98.609  29.037  0.00  0.00     0.032 A 
ATOM      5  C   UNK d   1      47.710  97.240  28.952  0.00  0.00     0.002 A 
ATOM      6  C   UNK d   1      48.794  96.649  28.354  0.00  0.00     0.002 A 
ATOM      7  C   UNK d   1      49.771  97.470  27.837  0.00  0.00     0.032 A 
ATOM      8  N   UNK d   1      48.759 100.728  28.438  0.00  0.00    -0.178 N 
ATOM      9  C   UNK d   1      49.940 100.974  27.800  0.00  0.00     0.703 A 
ENDROOT
BRANCH   1  10
ATOM     10  C   UNK d   1      51.758  99.569  26.788  0.00  0.00     0.232 C 
BRANCH  10  11
ATOM     11  C   UNK d   1      52.775  98.972  27.688  0.00  0.00     0.185 C 
ATOM     12  O   UNK d   1      52.945  99.408  28.853  0.00  0.00    -0.290 OA
BRANCH  11  13
ATOM     13  C   UNK d   1      53.625  97.854  27.263  0.00  0.00     0.053 A 
ATOM     14  S   UNK d   1      53.208  96.237  26.885  0.00  0.00    -0.079 SA
ATOM     15  C   UNK d   1      54.749  95.624  26.513  0.00  0.00     0.052 A 
ATOM     16  C   UNK d   1      55.558  96.711  26.696  0.00  0.00     0.028 A 
ATOM     17 Br   UNK d   1      55.203  93.852  25.974  0.00  0.00    -0.043 Br
ATOM     18  C   UNK d   1      54.985  97.854  27.080  0.00  0.00     0.024 A 
ENDBRANCH  11  13
ENDBRANCH  10  11
ENDBRANCH   1  10
BRANCH   9  19
ATOM     19  N   UNK d   1      50.336 102.178  27.617  0.00  0.00    -0.117 NA
ATOM     20  H   UNK d   1      50.286 102.973  28.252  0.00  0.00     0.206 HD
ENDBRANCH   9  19
BRANCH   8  21
ATOM     21  C   UNK d   1      47.815 101.712  28.950  0.00  0.00     0.175 C 
BRANCH  21  22
ATOM     22  C   UNK d   1      48.102 101.918  30.445  0.00  0.00     0.255 C 
BRANCH  22  23
ATOM     23  N   UNK d   1      48.047 103.302  30.816  0.00  0.00    -0.070 N 
ATOM     24  C   UNK d   1      47.482 103.539  32.129  0.00  0.00     0.235 C 
ATOM     25  C   UNK d   1      48.147 102.703  33.187  0.00  0.00     0.028 C 
ATOM     26  C   UNK d   1      49.636 102.749  33.128  0.00  0.00     0.003 C 
ATOM     27  C   UNK d   1      50.227 103.024  31.792  0.00  0.00     0.028 C 
ATOM     28  C   UNK d   1      49.394 103.820  30.852  0.00  0.00     0.235 C 
ATOM     29  H   UNK d   1      47.449 103.836  30.149  0.00  0.00     0.279 HD
ENDBRANCH  22  23
ENDBRANCH  21  22
ENDBRANCH   8  21
TORSDOF 7
ENDMDL
