MODEL 1
REMARK VINA RESULT:    -8.280      0.000      0.000
REMARK INTER + INTRA:         -12.970
REMARK INTER:                 -11.668
REMARK INTRA:                  -1.302
REMARK UNBOUND:                -1.302
REMARK  7 active torsions:
REMARK  status: ('A' for Active; 'I' for Inactive)
REMARK    1  A    between atoms: C_5  and  C_6 
REMARK    2  A    between atoms: C_6  and  C_7 
REMARK    3  A    between atoms: C_8  and  C_23 
REMARK    4  A    between atoms: N_9  and  C_14 
REMARK    5  A    between atoms: C_14  and  C_15 
REMARK    6  A    between atoms: C_15  and  C_16 
REMARK    7  A    between atoms: C_16  and  N_17 
ROOT
ATOM      1  C   UNK d   1      54.739  87.579  20.824  0.00  0.00     0.063 C 
ATOM      2  C   UNK d   1      53.427  87.570  20.097  0.00  0.00     0.161 C 
ATOM      3  N   UNK d   1      53.246  86.198  19.738  0.00  0.00    -0.332 N 
ATOM      4  C   UNK d   1      53.832  85.457  20.845  0.00  0.00     0.295 C 
ATOM      5  O   UNK d   1      53.528  84.262  21.105  0.00  0.00    -0.264 OA
ATOM      6  C   UNK d   1      54.775  86.312  21.543  0.00  0.00     0.250 C 
ATOM      7  O   UNK d   1      55.480  86.021  22.566  0.00  0.00    -0.282 OA
ENDROOT
BRANCH   3   8
ATOM      8  C   UNK d   1      52.593  85.583  18.620  0.00  0.00     0.129 C 
BRANCH   8   9
ATOM      9  C   UNK d   1      53.454  84.751  17.725  0.00  0.00     0.048 C 
BRANCH   9  10
ATOM     10  C   UNK d   1      52.964  83.295  17.698  0.00  0.00     0.236 C 
BRANCH  10  11
ATOM     11  N   UNK d   1      53.968  82.497  17.080  0.00  0.00    -0.067 N 
ATOM     12  C   UNK d   1      53.532  81.266  16.503  0.00  0.00     0.261 C 
ATOM     13  C   UNK d   1      52.801  81.440  15.193  0.00  0.00     0.195 C 
ATOM     14  O   UNK d   1      52.715  82.831  14.957  0.00  0.00    -0.388 OA
ATOM     15  C   UNK d   1      54.044  83.240  14.732  0.00  0.00     0.195 C 
ATOM     16  C   UNK d   1      54.725  83.235  16.085  0.00  0.00     0.261 C 
ATOM     17  H   UNK d   1      54.672  82.244  17.837  0.00  0.00     0.280 HD
ENDBRANCH  10  11
ENDBRANCH   9  10
ENDBRANCH   8   9
ENDBRANCH   3   8
BRANCH   2  18
ATOM     18  C   UNK d   1      53.392  88.554  19.023  0.00  0.00    -0.029 A 
ATOM     19  C   UNK d   1      52.482  89.617  19.140  0.00  0.00     0.028 A 
ATOM     20  C   UNK d   1      52.373  90.619  18.208  0.00  0.00     0.011 A 
ATOM     21  C   UNK d   1      53.182  90.603  17.099  0.00  0.00     0.019 A 
ATOM     22 Br   UNK d   1      51.125  92.054  18.392  0.00  0.00    -0.051 Br
ATOM     23  C   UNK d   1      54.094  89.570  16.950  0.00  0.00     0.002 A 
ATOM     24  C   UNK d   1      54.176  88.580  17.907  0.00  0.00     0.009 A 
ENDBRANCH   2  18
BRANCH   1  25
ATOM     25  C   UNK d   1      55.646  88.536  20.866  0.00  0.00     0.139 C 
ATOM     26  O   UNK d   1      56.872  88.346  20.187  0.00  0.00    -0.190 OA
BRANCH  25  27
ATOM     27  C   UNK d   1      55.400  89.777  21.598  0.00  0.00     0.068 A 
ATOM     28  S   UNK d   1      54.990  91.296  20.925  0.00  0.00    -0.070 SA
ATOM     29  C   UNK d   1      54.936  92.213  22.362  0.00  0.00     0.072 A 
ATOM     30  N   UNK d   1      55.235  91.313  23.279  0.00  0.00    -0.250 NA
ATOM     31  C   UNK d   1      54.626  93.681  22.544  0.00  0.00     0.078 C 
ATOM     32  C   UNK d   1      55.475  90.083  22.931  0.00  0.00     0.051 A 
ATOM     33  C   UNK d   1      55.862  89.057  23.989  0.00  0.00     0.072 C 
ENDBRANCH  25  27
ENDBRANCH   1  25
TORSDOF 7
ENDMDL
