MODEL 1
REMARK VINA RESULT:    -7.253      0.000      0.000
REMARK INTER + INTRA:          -8.140
REMARK INTER:                  -7.677
REMARK INTRA:                  -0.463
REMARK UNBOUND:                -0.463
REMARK  1 active torsions:
REMARK  status: ('A' for Active; 'I' for Inactive)
REMARK    1  A    between atoms: C_14  and  C_16 
ROOT
ATOM      1  S   UNK d   1      54.101  85.044  22.776  0.00  0.00    -0.074 SA
ATOM      2  C   UNK d   1      53.192  84.992  21.320  0.00  0.00     0.088 A 
ATOM      3  C   UNK d   1      53.503  86.189  20.733  0.00  0.00     0.073 A 
ATOM      4  C   UNK d   1      54.349  86.999  21.389  0.00  0.00    -0.023 A 
ATOM      5  C   UNK d   1      54.836  86.564  22.592  0.00  0.00     0.018 A 
ATOM      6  C   UNK d   1      55.781  87.484  23.308  0.00  0.00     0.281 C 
ATOM      7  N   UNK d   1      56.870  87.811  22.390  0.00  0.00    -0.070 N 
ATOM      8  C   UNK d   1      56.418  88.330  21.137  0.00  0.00     0.239 C 
ATOM      9  C   UNK d   1      54.897  88.372  21.031  0.00  0.00     0.068 C 
ATOM     10  C   UNK d   1      57.552  86.545  22.122  0.00  0.00     0.270 C 
ATOM     11  C   UNK d   1      52.834  86.421  19.423  0.00  0.00     0.256 C 
ATOM     12  O   UNK d   1      53.036  87.489  18.774  0.00  0.00    -0.267 OA
ATOM     13  N   UNK d   1      51.967  85.421  18.913  0.00  0.00    -0.332 N 
ATOM     14  C   UNK d   1      52.000  84.040  19.298  0.00  0.00     0.219 C 
ATOM     15  N   UNK d   1      52.293  84.026  20.723  0.00  0.00    -0.358 N 
ATOM     16  H   UNK d   1      57.571  88.412  22.867  0.00  0.00     0.279 HD
ATOM     17  H   UNK d   1      51.250  85.734  18.198  0.00  0.00     0.165 HD
ATOM     18  H   UNK d   1      51.875  83.327  21.369  0.00  0.00     0.162 HD
ENDROOT
BRANCH  14  19
ATOM     19  C   UNK d   1      53.036  83.266  18.573  0.00  0.00    -0.013 A 
ATOM     20  C   UNK d   1      53.284  83.460  17.229  0.00  0.00     0.033 A 
ATOM     21  C   UNK d   1      54.242  82.752  16.540  0.00  0.00     0.049 A 
ATOM     22  C   UNK d   1      54.998  81.803  17.197  0.00  0.00     0.141 A 
ATOM     23 Br   UNK d   1      54.574  83.029  14.694  0.00  0.00    -0.048 Br
ATOM     24  C   UNK d   1      54.769  81.592  18.535  0.00  0.00     0.049 A 
ATOM     25  O   UNK d   1      55.965  81.085  16.508  0.00  0.00    -0.189 OA
ATOM     26  C   UNK d   1      53.805  82.307  19.220  0.00  0.00     0.033 A 
ATOM     27 Br   UNK d   1      55.844  80.261  19.410  0.00  0.00    -0.048 Br
ENDBRANCH  14  19
TORSDOF 1
ENDMDL
