MODEL 1
REMARK VINA RESULT:    -7.772      0.000      0.000
REMARK INTER + INTRA:          -9.178
REMARK INTER:                  -9.135
REMARK INTRA:                  -0.042
REMARK UNBOUND:                -0.042
REMARK  3 active torsions:
REMARK  status: ('A' for Active; 'I' for Inactive)
REMARK    1  A    between atoms: C_14  and  C_16 
REMARK    2  A    between atoms: C_20  and  O_22 
REMARK    3  A    between atoms: O_22  and  C_23 
ROOT
ATOM      1  S   UNK d   1      53.016  83.028  21.179  0.00  0.00    -0.074 SA
ATOM      2  C   UNK d   1      52.550  84.280  20.117  0.00  0.00     0.088 A 
ATOM      3  C   UNK d   1      53.288  84.023  18.996  0.00  0.00     0.073 A 
ATOM      4  C   UNK d   1      54.111  82.944  19.033  0.00  0.00    -0.023 A 
ATOM      5  C   UNK d   1      54.126  82.211  20.193  0.00  0.00     0.018 A 
ATOM      6  C   UNK d   1      54.989  81.005  20.360  0.00  0.00     0.281 C 
ATOM      7  N   UNK d   1      55.211  80.277  19.158  0.00  0.00    -0.070 N 
ATOM      8  C   UNK d   1      54.869  80.936  17.944  0.00  0.00     0.239 C 
ATOM      9  C   UNK d   1      55.043  82.422  17.934  0.00  0.00     0.068 C 
ATOM     10  C   UNK d   1      56.563  79.734  19.117  0.00  0.00     0.270 C 
ATOM     11  C   UNK d   1      53.051  84.997  17.886  0.00  0.00     0.256 C 
ATOM     12  O   UNK d   1      53.682  84.864  16.788  0.00  0.00    -0.267 OA
ATOM     13  N   UNK d   1      52.130  86.055  18.064  0.00  0.00    -0.332 N 
ATOM     14  C   UNK d   1      51.859  86.585  19.382  0.00  0.00     0.219 C 
ATOM     15  N   UNK d   1      51.632  85.403  20.213  0.00  0.00    -0.358 N 
ATOM     16  H   UNK d   1      54.587  79.412  19.213  0.00  0.00     0.279 HD
ATOM     17  H   UNK d   1      51.638  86.462  17.238  0.00  0.00     0.165 HD
ATOM     18  H   UNK d   1      50.852  85.297  20.882  0.00  0.00     0.162 HD
ENDROOT
BRANCH  14  19
ATOM     19  C   UNK d   1      53.085  87.294  19.835  0.00  0.00    -0.012 A 
ATOM     20  C   UNK d   1      53.830  86.810  20.888  0.00  0.00     0.033 A 
ATOM     21  C   UNK d   1      54.970  87.452  21.322  0.00  0.00     0.051 A 
ATOM     22  C   UNK d   1      55.381  88.617  20.688  0.00  0.00     0.157 A 
ATOM     23 Br   UNK d   1      56.011  86.793  22.777  0.00  0.00    -0.048 Br
ATOM     24  C   UNK d   1      54.655  89.124  19.632  0.00  0.00     0.107 A 
ATOM     25  O   UNK d   1      56.529  89.284  21.110  0.00  0.00    -0.188 OA
ATOM     26  C   UNK d   1      53.535  88.468  19.227  0.00  0.00     0.050 A 
BRANCH  24  27
ATOM     27  O   UNK d   1      55.106  90.286  19.034  0.00  0.00    -0.348 OA
BRANCH  27  28
ATOM     28  C   UNK d   1      54.362  91.124  18.207  0.00  0.00     0.171 C 
ATOM     29  C   UNK d   1      54.814  91.028  16.767  0.00  0.00     0.034 C 
ENDBRANCH  27  28
ENDBRANCH  24  27
ENDBRANCH  14  19
TORSDOF 3
ENDMDL
