MODEL 1
REMARK VINA RESULT:    -8.124      0.000      0.000
REMARK INTER + INTRA:          -9.737
REMARK INTER:                  -9.549
REMARK INTRA:                  -0.188
REMARK UNBOUND:                -0.188
REMARK  3 active torsions:
REMARK  status: ('A' for Active; 'I' for Inactive)
REMARK    1  A    between atoms: N_6  and  C_18 
REMARK    2  A    between atoms: C_8  and  C_9 
REMARK    3  A    between atoms: C_12  and  N_15 
ROOT
ATOM      1  S   UNK d   1      57.805  95.126  24.442  0.00  0.00    -0.087 SA
ATOM      2  C   UNK d   1      57.920  96.766  25.203  0.00  0.00     0.069 C 
ATOM      3  C   UNK d   1      56.758  96.675  26.154  0.00  0.00     0.146 C 
ATOM      4  N   UNK d   1      55.689  95.882  25.627  0.00  0.00    -0.324 N 
ATOM      5  C   UNK d   1      56.035  95.002  24.673  0.00  0.00     0.154 A 
ATOM      6  N   UNK d   1      54.943  94.352  24.255  0.00  0.00    -0.300 N 
ATOM      7  C   UNK d   1      53.876  94.814  24.945  0.00  0.00     0.130 A 
ATOM      8  C   UNK d   1      54.329  95.778  25.814  0.00  0.00     0.062 A 
ATOM      9  C   UNK d   1      57.616  97.858  24.205  0.00  0.00     0.023 C 
ENDROOT
BRANCH   8  10
ATOM     10  C   UNK d   1      53.485  96.518  26.722  0.00  0.00    -0.008 A 
ATOM     11  C   UNK d   1      54.061  97.589  27.427  0.00  0.00     0.016 A 
ATOM     12  C   UNK d   1      53.307  98.359  28.275  0.00  0.00     0.037 A 
ATOM     13  C   UNK d   1      51.969  98.144  28.488  0.00  0.00     0.102 A 
ATOM     14  C   UNK d   1      51.381  97.102  27.809  0.00  0.00     0.037 A 
ATOM     15  C   UNK d   1      52.149  96.315  26.943  0.00  0.00     0.016 A 
BRANCH  13  16
ATOM     16  N   UNK d   1      51.261  98.983  29.380  0.00  0.00    -0.116 N 
ATOM     17  O   UNK d   1      50.874  98.560  30.475  0.00  0.00    -0.532 OA
ATOM     18  O   UNK d   1      51.006 100.272  29.023  0.00  0.00    -0.532 OA
ENDBRANCH  13  16
ENDBRANCH   8  10
BRANCH   6  19
ATOM     19  C   UNK d   1      54.888  93.341  23.255  0.00  0.00     0.041 A 
ATOM     20  C   UNK d   1      55.411  92.085  23.458  0.00  0.00     0.031 A 
ATOM     21  C   UNK d   1      55.370  91.088  22.506  0.00  0.00     0.021 A 
ATOM     22  C   UNK d   1      54.784  91.339  21.286  0.00  0.00     0.011 A 
ATOM     23  C   UNK d   1      54.247  92.592  21.045  0.00  0.00     0.021 A 
ATOM     24 Br   UNK d   1      54.709  89.981  19.940  0.00  0.00    -0.051 Br
ATOM     25  C   UNK d   1      54.300  93.572  22.015  0.00  0.00     0.031 A 
ENDBRANCH   6  19
TORSDOF 3
ENDMDL
