/Users/jonathanwahrer/Desktop/Msc/3_Semester/Drug_Design_Praktikum/waehrer_HTS_screening/HTS_experiment/out/docking_results/vina_output/3npc/1206_docked.pdbqt
 OpenBabel03192220133D

 25 28  0  0  1  0  0  0  0  0999 V2000
   57.8050   95.1260   24.4420 S   0  0  0  0  0  0  0  0  0  0  0  0
   57.9200   96.7660   25.2030 C   0  0  2  0  0  3  0  0  0  0  0  0
   56.7580   96.6750   26.1540 C   0  0  0  0  0  2  0  0  0  0  0  0
   55.6890   95.8820   25.6270 N   0  0  0  0  0  0  0  0  0  0  0  0
   56.0350   95.0020   24.6730 C   0  0  2  0  0  3  0  0  0  0  0  0
   54.9430   94.3520   24.2550 N   0  0  0  0  0  0  0  0  0  0  0  0
   53.8760   94.8140   24.9450 C   0  0  0  0  0  3  0  0  0  0  0  0
   54.3290   95.7780   25.8140 C   0  0  0  0  0  0  0  0  0  0  0  0
   57.6160   97.8580   24.2050 C   0  0  0  0  0  1  0  0  0  0  0  0
   53.4850   96.5180   26.7220 C   0  0  0  0  0  0  0  0  0  0  0  0
   54.0610   97.5890   27.4270 C   0  0  0  0  0  3  0  0  0  0  0  0
   53.3070   98.3590   28.2750 C   0  0  0  0  0  3  0  0  0  0  0  0
   51.9690   98.1440   28.4880 C   0  0  0  0  0  0  0  0  0  0  0  0
   51.3810   97.1020   27.8090 C   0  0  0  0  0  3  0  0  0  0  0  0
   52.1490   96.3150   26.9430 C   0  0  0  0  0  3  0  0  0  0  0  0
   51.2610   98.9830   29.3800 N   0  0  0  0  0  0  0  0  0  0  0  0
   50.8740   98.5600   30.4750 O   0  0  0  0  0  0  0  0  0  0  0  0
   51.0060  100.2720   29.0230 O   0  0  0  0  0  0  0  0  0  0  0  0
   54.8880   93.3410   23.2550 C   0  0  0  0  0  0  0  0  0  0  0  0
   55.4110   92.0850   23.4580 C   0  0  0  0  0  3  0  0  0  0  0  0
   55.3700   91.0880   22.5060 C   0  0  0  0  0  3  0  0  0  0  0  0
   54.7840   91.3390   21.2860 C   0  0  0  0  0  0  0  0  0  0  0  0
   54.2470   92.5920   21.0450 C   0  0  0  0  0  3  0  0  0  0  0  0
   54.7090   89.9810   19.9400 Br  0  0  0  0  0  0  0  0  0  0  0  0
   54.3000   93.5720   22.0150 C   0  0  0  0  0  3  0  0  0  0  0  0
  1  2  1  0  0  0  0
  2  9  1  6  0  0  0
  2  3  1  0  0  0  0
  4  8  1  0  0  0  0
  4  3  1  0  0  0  0
  5  1  1  1  0  0  0
  5  4  1  0  0  0  0
  6  5  1  0  0  0  0
  6  7  1  0  0  0  0
  7  8  2  0  0  0  0
  8 10  1  0  0  0  0
 10 15  2  0  0  0  0
 10 11  1  0  0  0  0
 11 12  2  0  0  0  0
 12 13  1  0  0  0  0
 13 16  1  0  0  0  0
 14 13  2  0  0  0  0
 15 14  1  0  0  0  0
 16 17  2  0  0  0  0
 18 16  2  0  0  0  0
 19 20  1  0  0  0  0
 19  6  1  0  0  0  0
 21 20  2  0  0  0  0
 22 21  1  0  0  0  0
 23 22  2  0  0  0  0
 23 25  1  0  0  0  0
 24 22  1  0  0  0  0
 25 19  2  0  0  0  0
M  END
>  <Pose>
1

>  <Score>
-8.124

$$$$
