/Users/jonathanwahrer/Desktop/Msc/3_Semester/Drug_Design_Praktikum/waehrer_HTS_screening/HTS_experiment/out/docking_results/vina_output/3npc/1209_docked.pdbqt
 OpenBabel03192220133D

 24 27  0  0  1  0  0  0  0  0999 V2000
   53.8440   84.2970   16.9730 S   0  0  0  0  0  0  0  0  0  0  0  0
   55.1500   83.2110   16.3310 C   0  0  0  0  0  2  0  0  0  0  0  0
   55.5450   82.2710   17.4550 C   0  0  0  0  0  2  0  0  0  0  0  0
   54.3080   81.7330   18.1450 C   0  0  0  0  0  2  0  0  0  0  0  0
   53.9290   82.7160   19.1460 N   0  0  0  0  0  0  0  0  0  0  0  0
   53.6850   83.9570   18.7180 C   0  0  1  0  0  3  0  0  0  0  0  0
   53.3440   84.7400   19.8010 N   0  0  0  0  0  0  0  0  0  0  0  0
   53.3750   83.9940   20.8930 C   0  0  0  0  0  0  0  0  0  0  0  0
   53.7450   82.7220   20.4610 C   0  0  0  0  0  3  0  0  0  0  0  0
   53.1010   84.3250   22.2820 C   0  0  0  0  0  0  0  0  0  0  0  0
   54.0310   85.0890   23.0010 C   0  0  0  0  0  3  0  0  0  0  0  0
   53.8290   85.4310   24.3090 C   0  0  0  0  0  3  0  0  0  0  0  0
   52.7080   85.0560   25.0150 C   0  0  0  0  0  0  0  0  0  0  0  0
   51.7920   84.3080   24.3210 C   0  0  0  0  0  3  0  0  0  0  0  0
   51.9800   83.9450   22.9790 C   0  0  0  0  0  3  0  0  0  0  0  0
   52.5380   85.4230   26.3420 O   0  0  0  0  0  0  0  0  0  0  0  0
   51.4770   84.8780   27.1040 C   0  0  0  0  0  1  0  0  0  0  0  0
   53.0260   86.1220   19.6600 C   0  0  0  0  0  0  0  0  0  0  0  0
   53.9050   87.1000   20.0900 C   0  0  0  0  0  3  0  0  0  0  0  0
   53.6400   88.4470   19.9420 C   0  0  0  0  0  3  0  0  0  0  0  0
   52.4500   88.8110   19.3420 C   0  0  0  0  0  0  0  0  0  0  0  0
   51.5800   87.8300   18.9170 C   0  0  0  0  0  3  0  0  0  0  0  0
   51.9930   90.6600   19.0920 Br  0  0  0  0  0  0  0  0  0  0  0  0
   51.8250   86.4810   19.0550 C   0  0  0  0  0  3  0  0  0  0  0  0
  2  1  1  0  0  0  0
  2  3  1  0  0  0  0
  3  4  1  0  0  0  0
  4  5  1  0  0  0  0
  5  9  1  0  0  0  0
  6  1  1  1  0  0  0
  6  5  1  0  0  0  0
  6  7  1  0  0  0  0
  7  8  1  0  0  0  0
  8 10  1  0  0  0  0
  9  8  2  0  0  0  0
 10 15  2  0  0  0  0
 10 11  1  0  0  0  0
 11 12  2  0  0  0  0
 12 13  1  0  0  0  0
 13 16  1  0  0  0  0
 14 13  2  0  0  0  0
 15 14  1  0  0  0  0
 16 17  1  0  0  0  0
 18  7  1  0  0  0  0
 18 19  1  0  0  0  0
 20 19  2  0  0  0  0
 21 20  1  0  0  0  0
 22 24  1  0  0  0  0
 22 21  2  0  0  0  0
 23 21  1  0  0  0  0
 24 18  2  0  0  0  0
M  END
>  <Pose>
1

>  <Score>
-7.092

$$$$
