MODEL 1
REMARK VINA RESULT:    -7.092      0.000      0.000
REMARK INTER + INTRA:          -9.145
REMARK INTER:                  -8.336
REMARK INTRA:                  -0.810
REMARK UNBOUND:                -0.810
REMARK  3 active torsions:
REMARK  status: ('A' for Active; 'I' for Inactive)
REMARK    1  A    between atoms: N_7  and  C_18 
REMARK    2  A    between atoms: C_8  and  C_10 
REMARK    3  A    between atoms: C_13  and  O_16 
ROOT
ATOM      1  S   UNK d   1      53.844  84.297  16.973  0.00  0.00    -0.093 SA
ATOM      2  C   UNK d   1      55.150  83.211  16.331  0.00  0.00     0.084 C 
ATOM      3  C   UNK d   1      55.545  82.271  17.455  0.00  0.00     0.031 C 
ATOM      4  C   UNK d   1      54.308  81.733  18.145  0.00  0.00     0.131 C 
ATOM      5  N   UNK d   1      53.929  82.716  19.146  0.00  0.00    -0.335 N 
ATOM      6  C   UNK d   1      53.685  83.957  18.718  0.00  0.00     0.154 A 
ATOM      7  N   UNK d   1      53.344  84.740  19.801  0.00  0.00    -0.290 N 
ATOM      8  C   UNK d   1      53.375  83.994  20.893  0.00  0.00     0.067 A 
ATOM      9  C   UNK d   1      53.745  82.722  20.461  0.00  0.00     0.124 A 
ENDROOT
BRANCH   8  10
ATOM     10  C   UNK d   1      53.101  84.325  22.282  0.00  0.00    -0.007 A 
ATOM     11  C   UNK d   1      54.031  85.089  23.001  0.00  0.00     0.016 A 
ATOM     12  C   UNK d   1      53.829  85.431  24.309  0.00  0.00     0.037 A 
ATOM     13  C   UNK d   1      52.708  85.056  25.015  0.00  0.00     0.068 A 
ATOM     14  C   UNK d   1      51.792  84.308  24.321  0.00  0.00     0.037 A 
ATOM     15  C   UNK d   1      51.980  83.945  22.979  0.00  0.00     0.016 A 
BRANCH  13  16
ATOM     16  O   UNK d   1      52.538  85.423  26.342  0.00  0.00    -0.356 OA
ATOM     17  C   UNK d   1      51.477  84.878  27.104  0.00  0.00     0.210 C 
ENDBRANCH  13  16
ENDBRANCH   8  10
BRANCH   7  18
ATOM     18  C   UNK d   1      53.026  86.122  19.660  0.00  0.00     0.042 A 
ATOM     19  C   UNK d   1      53.905  87.100  20.090  0.00  0.00     0.031 A 
ATOM     20  C   UNK d   1      53.640  88.447  19.942  0.00  0.00     0.021 A 
ATOM     21  C   UNK d   1      52.450  88.811  19.342  0.00  0.00     0.011 A 
ATOM     22  C   UNK d   1      51.580  87.830  18.917  0.00  0.00     0.021 A 
ATOM     23 Br   UNK d   1      51.993  90.660  19.092  0.00  0.00    -0.051 Br
ATOM     24  C   UNK d   1      51.825  86.481  19.055  0.00  0.00     0.031 A 
ENDBRANCH   7  18
TORSDOF 3
ENDMDL
