MODEL 1
REMARK VINA RESULT:    -6.119      0.000      0.000
REMARK INTER + INTRA:          -7.481
REMARK INTER:                  -7.371
REMARK INTRA:                  -0.110
REMARK UNBOUND:                -0.110
REMARK  4 active torsions:
REMARK  status: ('A' for Active; 'I' for Inactive)
REMARK    1  A    between atoms: N_7  and  C_19 
REMARK    2  A    between atoms: C_8  and  O_10 
REMARK    3  A    between atoms: C_8  and  C_11 
REMARK    4  A    between atoms: C_14  and  O_17 
ROOT
ATOM      1  S   UNK d   1      54.986  82.319  25.924  0.00  0.00    -0.094 SA
ATOM      2  C   UNK d   1      54.777  80.498  26.029  0.00  0.00     0.084 C 
ATOM      3  C   UNK d   1      53.598  80.198  25.100  0.00  0.00     0.030 C 
ATOM      4  C   UNK d   1      52.350  80.816  25.723  0.00  0.00     0.126 C 
ATOM      5  N   UNK d   1      52.317  82.202  25.330  0.00  0.00    -0.356 N 
ATOM      6  C   UNK d   1      53.398  82.936  25.378  0.00  0.00     0.148 C 
ATOM      7  N   UNK d   1      53.040  84.262  24.905  0.00  0.00    -0.289 N 
ATOM      8  C   UNK d   1      51.702  84.402  25.437  0.00  0.00     0.185 C 
ATOM      9  C   UNK d   1      51.223  83.036  24.821  0.00  0.00     0.192 C 
ENDROOT
BRANCH   8  10
ATOM     10  O   UNK d   1      50.977  85.448  24.961  0.00  0.00    -0.365 OA
ATOM     11  H   UNK d   1      51.464  86.300  25.184  0.00  0.00     0.213 HD
ENDBRANCH   8  10
BRANCH   8  12
ATOM     12  C   UNK d   1      51.733  84.256  26.897  0.00  0.00    -0.001 A 
ATOM     13  C   UNK d   1      50.719  83.649  27.617  0.00  0.00     0.015 A 
ATOM     14  C   UNK d   1      50.806  83.577  29.016  0.00  0.00     0.037 A 
ATOM     15  C   UNK d   1      51.846  84.081  29.701  0.00  0.00     0.068 A 
ATOM     16  C   UNK d   1      52.898  84.704  28.998  0.00  0.00     0.037 A 
ATOM     17  C   UNK d   1      52.775  84.754  27.621  0.00  0.00     0.015 A 
BRANCH  15  18
ATOM     18  O   UNK d   1      51.970  84.030  31.114  0.00  0.00    -0.356 OA
ATOM     19  C   UNK d   1      51.472  85.083  31.912  0.00  0.00     0.210 C 
ENDBRANCH  15  18
ENDBRANCH   8  12
BRANCH   7  20
ATOM     20  C   UNK d   1      53.809  85.105  24.077  0.00  0.00     0.040 A 
ATOM     21  C   UNK d   1      54.577  86.117  24.701  0.00  0.00     0.031 A 
ATOM     22  C   UNK d   1      55.321  87.026  23.967  0.00  0.00     0.021 A 
ATOM     23  C   UNK d   1      55.341  86.981  22.601  0.00  0.00     0.011 A 
ATOM     24  C   UNK d   1      54.603  86.006  21.963  0.00  0.00     0.021 A 
ATOM     25 Br   UNK d   1      56.335  88.224  21.545  0.00  0.00    -0.051 Br
ATOM     26  C   UNK d   1      53.850  85.084  22.716  0.00  0.00     0.031 A 
ENDBRANCH   7  20
TORSDOF 4
ENDMDL
