MODEL 1
REMARK VINA RESULT:    -7.290      0.000      0.000
REMARK INTER + INTRA:         -10.310
REMARK INTER:                  -9.207
REMARK INTRA:                  -1.103
REMARK UNBOUND:                -1.103
REMARK  5 active torsions:
REMARK  status: ('A' for Active; 'I' for Inactive)
REMARK    1  A    between atoms: C_6  and  O_20 
REMARK    2  A    between atoms: C_6  and  C_21 
REMARK    3  A    between atoms: N_8  and  C_10 
REMARK    4  A    between atoms: C_11  and  O_18 
REMARK    5  A    between atoms: C_14  and  O_16 
ROOT
ATOM      1  S   UNK d   1      53.407  85.362  23.772  0.00  0.00    -0.094 SA
ATOM      2  C   UNK d   1      53.905  85.225  25.471  0.00  0.00     0.084 C 
ATOM      3  C   UNK d   1      55.070  86.158  25.736  0.00  0.00     0.030 C 
ATOM      4  C   UNK d   1      56.236  85.770  24.844  0.00  0.00     0.129 C 
ATOM      5  N   UNK d   1      55.982  86.197  23.487  0.00  0.00    -0.324 N 
ATOM      6  C   UNK d   1      56.726  87.022  22.592  0.00  0.00     0.181 C 
ATOM      7  C   UNK d   1      56.374  86.350  21.274  0.00  0.00     0.198 C 
ATOM      8  N   UNK d   1      54.997  85.954  21.468  0.00  0.00    -0.320 N 
ATOM      9  C   UNK d   1      54.812  85.825  22.736  0.00  0.00     0.148 C 
ENDROOT
BRANCH   8  10
ATOM     10  C   UNK d   1      54.001  85.775  20.472  0.00  0.00     0.072 A 
ATOM     11  C   UNK d   1      53.741  84.473  20.066  0.00  0.00     0.095 A 
ATOM     12  C   UNK d   1      52.792  84.217  19.071  0.00  0.00     0.042 A 
ATOM     13  C   UNK d   1      52.112  85.271  18.486  0.00  0.00     0.039 A 
ATOM     14  C   UNK d   1      52.344  86.572  18.864  0.00  0.00     0.070 A 
ATOM     15  C   UNK d   1      53.311  86.762  19.871  0.00  0.00     0.069 A 
BRANCH  11  16
ATOM     16  O   UNK d   1      54.422  83.426  20.649  0.00  0.00    -0.354 OA
ATOM     17  C   UNK d   1      54.004  82.081  20.644  0.00  0.00     0.210 C 
ENDBRANCH  11  16
BRANCH  14  18
ATOM     18  O   UNK d   1      51.698  87.668  18.319  0.00  0.00    -0.356 OA
ATOM     19  C   UNK d   1      52.019  89.010  18.550  0.00  0.00     0.210 C 
ENDBRANCH  14  18
ENDBRANCH   8  10
BRANCH   6  20
ATOM     20  O   UNK d   1      58.087  86.918  22.857  0.00  0.00    -0.365 OA
ATOM     21  H   UNK d   1      58.496  86.237  22.276  0.00  0.00     0.213 HD
ENDBRANCH   6  20
BRANCH   6  22
ATOM     22  C   UNK d   1      56.287  88.428  22.504  0.00  0.00    -0.002 A 
ATOM     23  C   UNK d   1      55.772  89.176  23.515  0.00  0.00     0.013 A 
ATOM     24  C   UNK d   1      55.353  90.493  23.309  0.00  0.00     0.020 A 
ATOM     25  C   UNK d   1      55.444  91.086  22.068  0.00  0.00     0.011 A 
ATOM     26  C   UNK d   1      55.958  90.346  21.048  0.00  0.00     0.020 A 
ATOM     27 Br   UNK d   1      54.858  92.892  21.800  0.00  0.00    -0.051 Br
ATOM     28  C   UNK d   1      56.368  89.057  21.249  0.00  0.00     0.013 A 
ENDBRANCH   6  22
TORSDOF 5
ENDMDL
