MODEL 1
REMARK VINA RESULT:    -8.175      0.000      0.000
REMARK INTER + INTRA:         -10.141
REMARK INTER:                  -9.848
REMARK INTRA:                  -0.293
REMARK UNBOUND:                -0.293
REMARK  4 active torsions:
REMARK  status: ('A' for Active; 'I' for Inactive)
REMARK    1  A    between atoms: C_6  and  O_17 
REMARK    2  A    between atoms: C_6  and  C_18 
REMARK    3  A    between atoms: N_8  and  C_10 
REMARK    4  A    between atoms: C_20  and  N_24 
ROOT
ATOM      1  S   UNK d   1      53.277  82.291  21.262  0.00  0.00    -0.094 SA
ATOM      2  C   UNK d   1      51.726  81.920  22.180  0.00  0.00     0.084 C 
ATOM      3  C   UNK d   1      50.711  83.014  21.900  0.00  0.00     0.030 C 
ATOM      4  C   UNK d   1      51.341  84.379  22.005  0.00  0.00     0.129 C 
ATOM      5  N   UNK d   1      52.035  84.688  20.796  0.00  0.00    -0.324 N 
ATOM      6  C   UNK d   1      52.186  85.841  19.928  0.00  0.00     0.181 C 
ATOM      7  C   UNK d   1      52.446  85.215  18.569  0.00  0.00     0.198 C 
ATOM      8  N   UNK d   1      53.074  83.935  18.954  0.00  0.00    -0.323 N 
ATOM      9  C   UNK d   1      52.830  83.665  20.174  0.00  0.00     0.147 C 
ENDROOT
BRANCH   6  10
ATOM     10  O   UNK d   1      51.067  86.650  19.926  0.00  0.00    -0.365 OA
ATOM     11  H   UNK d   1      50.905  87.150  19.114  0.00  0.00     0.213 HD
ENDBRANCH   6  10
BRANCH   6  12
ATOM     12  C   UNK d   1      53.376  86.648  20.290  0.00  0.00     0.001 A 
ATOM     13  C   UNK d   1      54.337  86.115  21.127  0.00  0.00     0.048 A 
ATOM     14  C   UNK d   1      55.440  86.909  21.441  0.00  0.00     0.103 A 
ATOM     15  C   UNK d   1      55.568  88.169  20.941  0.00  0.00     0.036 A 
ATOM     16  C   UNK d   1      54.614  88.715  20.101  0.00  0.00     0.003 A 
ATOM     17  C   UNK d   1      53.510  87.912  19.790  0.00  0.00     0.012 A 
BRANCH  14  18
ATOM     18  N   UNK d   1      56.432  86.370  22.299  0.00  0.00    -0.116 N 
ATOM     19  O   UNK d   1      56.165  85.994  23.457  0.00  0.00    -0.532 OA
ATOM     20  O   UNK d   1      57.728  86.240  21.890  0.00  0.00    -0.532 OA
ENDBRANCH  14  18
ENDBRANCH   6  12
BRANCH   8  21
ATOM     21  C   UNK d   1      53.831  83.117  18.066  0.00  0.00     0.036 A 
ATOM     22  C   UNK d   1      55.152  83.264  17.762  0.00  0.00     0.031 A 
ATOM     23  C   UNK d   1      55.833  82.416  16.899  0.00  0.00     0.021 A 
ATOM     24  C   UNK d   1      55.163  81.366  16.305  0.00  0.00     0.011 A 
ATOM     25  C   UNK d   1      53.814  81.185  16.591  0.00  0.00     0.021 A 
ATOM     26 Br   UNK d   1      56.011  80.148  15.098  0.00  0.00    -0.051 Br
ATOM     27  C   UNK d   1      53.154  82.047  17.458  0.00  0.00     0.031 A 
ENDBRANCH   8  21
TORSDOF 4
ENDMDL
