/Users/jonathanwahrer/Desktop/Msc/3_Semester/Drug_Design_Praktikum/waehrer_HTS_screening/HTS_experiment/out/docking_results/vina_output/3npc/1220_docked.pdbqt
 OpenBabel03192220143D

 27 30  0  0  1  0  0  0  0  0999 V2000
   47.6400   99.5610   28.7860 S   0  0  0  0  0  0  0  0  0  0  0  0
   47.3600   97.7810   29.1460 C   0  0  0  0  0  2  0  0  0  0  0  0
   48.4310   96.9050   28.6470 C   0  0  0  0  0  2  0  0  0  0  0  0
   49.4480   97.4500   27.7290 C   0  0  0  0  0  2  0  0  0  0  0  0
   50.0810   98.6570   28.0720 N   0  0  1  0  0  0  0  0  0  0  0  0
   51.3670   99.2220   27.8000 C   0  0  2  0  0  0  0  0  0  0  0  0
   51.6090   99.9950   29.0780 C   0  0  0  0  0  2  0  0  0  0  0  0
   50.2720  100.4360   29.4130 N   0  0  0  0  0  0  0  0  0  0  0  0
   49.4360   99.6880   28.8630 C   0  0  1  0  0  3  0  0  0  0  0  0
   51.2440  100.1730   26.7830 O   0  0  0  0  0  0  0  0  0  0  0  0
   51.2910  101.0610   27.1730 H   0  0  0  0  0  0  0  0  0  0  0  0
   52.4550   98.2660   27.5220 C   0  0  0  0  0  0  0  0  0  0  0  0
   52.0960   96.9390   27.3050 C   0  0  0  0  0  3  0  0  0  0  0  0
   53.0400   95.9730   27.0350 C   0  0  0  0  0  3  0  0  0  0  0  0
   54.3890   96.2730   26.9650 C   0  0  0  0  0  0  0  0  0  0  0  0
   54.7500   97.5890   27.1760 C   0  0  0  0  0  3  0  0  0  0  0  0
   53.7900   98.5680   27.4510 C   0  0  0  0  0  3  0  0  0  0  0  0
   55.3380   95.2620   26.6830 N   0  0  0  0  0  0  0  0  0  0  0  0
   55.3610   94.1660   27.2550 O   0  0  0  0  0  0  0  0  0  0  0  0
   56.2890   95.4930   25.7220 O   0  0  0  0  0  0  0  0  0  0  0  0
   49.9640  101.5670   30.2360 C   0  0  0  0  0  0  0  0  0  0  0  0
   50.3220  101.5280   31.5760 C   0  0  0  0  0  3  0  0  0  0  0  0
   50.0360  102.5830   32.4400 C   0  0  0  0  0  3  0  0  0  0  0  0
   49.3800  103.7050   31.9840 C   0  0  0  0  0  0  0  0  0  0  0  0
   49.0190  103.7580   30.6600 C   0  0  0  0  0  3  0  0  0  0  0  0
   48.9730  105.1500   33.1870 Br  0  0  0  0  0  0  0  0  0  0  0  0
   49.3180  102.6820   29.8150 C   0  0  0  0  0  3  0  0  0  0  0  0
  1  2  1  0  0  0  0
  3  2  1  0  0  0  0
  4  3  1  0  0  0  0
  5  4  1  6  0  0  0
  5  9  1  0  0  0  0
  6 10  1  6  0  0  0
  6  5  1  0  0  0  0
  6  7  1  0  0  0  0
  7  8  1  0  0  0  0
  8 21  1  0  0  0  0
  9  1  1  6  0  0  0
  9  8  1  0  0  0  0
 10 11  1  0  0  0  0
 12  6  1  0  0  0  0
 13 12  2  0  0  0  0
 14 13  1  0  0  0  0
 15 14  2  0  0  0  0
 15 16  1  0  0  0  0
 16 17  2  0  0  0  0
 17 12  1  0  0  0  0
 18 15  1  0  0  0  0
 18 19  2  0  0  0  0
 20 18  2  0  0  0  0
 21 22  1  0  0  0  0
 22 23  2  0  0  0  0
 24 23  1  0  0  0  0
 24 26  1  0  0  0  0
 25 24  2  0  0  0  0
 27 21  2  0  0  0  0
 27 25  1  0  0  0  0
M  END
>  <Pose>
1

>  <Score>
-8.509

$$$$
