MODEL 1
REMARK VINA RESULT:    -5.768      0.000      0.000
REMARK INTER + INTRA:          -7.229
REMARK INTER:                  -6.611
REMARK INTRA:                  -0.618
REMARK UNBOUND:                -0.618
REMARK  3 active torsions:
REMARK  status: ('A' for Active; 'I' for Inactive)
REMARK    1  A    between atoms: C_6  and  O_17 
REMARK    2  A    between atoms: C_6  and  C_18 
REMARK    3  A    between atoms: N_8  and  C_10 
ROOT
ATOM      1  S   UNK d   1      51.261  85.426  26.853  0.00  0.00    -0.094 SA
ATOM      2  C   UNK d   1      51.128  84.939  28.632  0.00  0.00     0.084 C 
ATOM      3  C   UNK d   1      51.463  83.479  28.799  0.00  0.00     0.030 C 
ATOM      4  C   UNK d   1      51.159  82.638  27.579  0.00  0.00     0.129 C 
ATOM      5  N   UNK d   1      52.036  82.851  26.494  0.00  0.00    -0.324 N 
ATOM      6  C   UNK d   1      52.718  82.113  25.417  0.00  0.00     0.181 C 
ATOM      7  C   UNK d   1      54.009  82.895  25.418  0.00  0.00     0.198 C 
ATOM      8  N   UNK d   1      53.519  84.259  25.552  0.00  0.00    -0.323 N 
ATOM      9  C   UNK d   1      52.468  84.213  26.224  0.00  0.00     0.147 C 
ENDROOT
BRANCH   6  10
ATOM     10  O   UNK d   1      52.947  80.806  25.724  0.00  0.00    -0.365 OA
ATOM     11  H   UNK d   1      53.788  80.613  26.208  0.00  0.00     0.213 HD
ENDBRANCH   6  10
BRANCH   6  12
ATOM     12  C   UNK d   1      52.011  82.314  24.109  0.00  0.00    -0.002 A 
ATOM     13  C   UNK d   1      50.662  82.600  24.021  0.00  0.00     0.012 A 
ATOM     14  C   UNK d   1      50.087  82.779  22.770  0.00  0.00     0.001 A 
ATOM     15  C   UNK d   1      50.813  82.685  21.589  0.00  0.00     0.000 A 
ATOM     16  C   UNK d   1      52.150  82.403  21.668  0.00  0.00     0.001 A 
ATOM     17  C   UNK d   1      52.730  82.220  22.923  0.00  0.00     0.012 A 
ENDBRANCH   6  12
BRANCH   8  18
ATOM     18  C   UNK d   1      54.118  85.427  24.950  0.00  0.00     0.036 A 
ATOM     19  C   UNK d   1      54.560  86.519  25.627  0.00  0.00     0.031 A 
ATOM     20  C   UNK d   1      55.088  87.643  25.004  0.00  0.00     0.021 A 
ATOM     21  C   UNK d   1      55.179  87.677  23.638  0.00  0.00     0.011 A 
ATOM     22  C   UNK d   1      54.732  86.569  22.945  0.00  0.00     0.021 A 
ATOM     23 Br   UNK d   1      55.891  89.188  22.690  0.00  0.00    -0.051 Br
ATOM     24  C   UNK d   1      54.212  85.464  23.561  0.00  0.00     0.031 A 
ENDBRANCH   8  18
TORSDOF 3
ENDMDL
