/Users/jonathanwahrer/Desktop/Msc/3_Semester/Drug_Design_Praktikum/waehrer_HTS_screening/HTS_experiment/out/docking_results/vina_output/3npc/1226_docked.pdbqt
 OpenBabel03192220143D

 24 27  0  0  1  0  0  0  0  0999 V2000
   55.6620   88.9430   20.9370 S   0  0  0  0  0  0  0  0  0  0  0  0
   56.1140   88.3260   22.5830 C   0  0  0  0  0  2  0  0  0  0  0  0
   54.9630   87.4200   23.0300 C   0  0  0  0  0  2  0  0  0  0  0  0
   54.9260   86.2060   22.0870 C   0  0  0  0  0  2  0  0  0  0  0  0
   54.1680   86.5920   20.8920 N   0  0  1  0  0  0  0  0  0  0  0  0
   53.1920   85.9420   20.1160 C   0  0  2  0  0  0  0  0  0  0  0  0
   52.5830   87.0430   19.2540 C   0  0  0  0  0  2  0  0  0  0  0  0
   53.4510   88.1640   19.4510 N   0  0  0  0  0  0  0  0  0  0  0  0
   54.3280   87.8850   20.3250 C   0  0  1  0  0  3  0  0  0  0  0  0
   52.1450   85.5020   20.9560 O   0  0  0  0  0  0  0  0  0  0  0  0
   52.4020   85.7670   21.8780 H   0  0  0  0  0  0  0  0  0  0  0  0
   53.5900   84.8330   19.2520 C   0  0  0  0  0  0  0  0  0  0  0  0
   53.4070   85.0190   17.8830 C   0  0  0  0  0  3  0  0  0  0  0  0
   53.7610   84.0850   16.9280 C   0  0  0  0  0  3  0  0  0  0  0  0
   54.3220   82.8990   17.3120 C   0  0  0  0  0  0  0  0  0  0  0  0
   54.5120   82.6940   18.6670 C   0  0  0  0  0  3  0  0  0  0  0  0
   54.8500   81.5580   16.0290 Br  0  0  0  0  0  0  0  0  0  0  0  0
   54.1530   83.6440   19.6180 C   0  0  0  0  0  3  0  0  0  0  0  0
   53.2610   89.4090   18.7580 C   0  0  0  0  0  0  0  0  0  0  0  0
   52.3990   90.3240   19.2700 C   0  0  0  0  0  3  0  0  0  0  0  0
   52.2560   91.5330   18.5970 C   0  0  0  0  0  3  0  0  0  0  0  0
   52.9480   91.8340   17.4460 C   0  0  0  0  0  3  0  0  0  0  0  0
   53.8110   90.8710   16.9620 C   0  0  0  0  0  3  0  0  0  0  0  0
   53.9760   89.6660   17.6020 C   0  0  0  0  0  3  0  0  0  0  0  0
  1  2  1  0  0  0  0
  2  3  1  0  0  0  0
  4  3  1  0  0  0  0
  5  4  1  1  0  0  0
  6  5  1  0  0  0  0
  6 10  1  1  0  0  0
  7  8  1  0  0  0  0
  7  6  1  0  0  0  0
  8  9  1  0  0  0  0
  9  5  1  0  0  0  0
  9  1  1  1  0  0  0
 10 11  1  0  0  0  0
 12 18  1  0  0  0  0
 12  6  1  0  0  0  0
 13 12  2  0  0  0  0
 14 15  2  0  0  0  0
 14 13  1  0  0  0  0
 15 16  1  0  0  0  0
 16 18  2  0  0  0  0
 17 15  1  0  0  0  0
 19 20  1  0  0  0  0
 19  8  1  0  0  0  0
 21 20  2  0  0  0  0
 22 21  1  0  0  0  0
 23 22  2  0  0  0  0
 23 24  1  0  0  0  0
 24 19  2  0  0  0  0
M  END
>  <Pose>
1

>  <Score>
-8.365

$$$$
