MODEL 1
REMARK VINA RESULT:    -8.365      0.000      0.000
REMARK INTER + INTRA:         -10.234
REMARK INTER:                  -9.587
REMARK INTRA:                  -0.647
REMARK UNBOUND:                -0.647
REMARK  3 active torsions:
REMARK  status: ('A' for Active; 'I' for Inactive)
REMARK    1  A    between atoms: C_6  and  O_16 
REMARK    2  A    between atoms: C_6  and  C_17 
REMARK    3  A    between atoms: N_8  and  C_10 
ROOT
ATOM      1  S   UNK d   1      55.662  88.943  20.937  0.00  0.00    -0.094 SA
ATOM      2  C   UNK d   1      56.114  88.326  22.583  0.00  0.00     0.084 C 
ATOM      3  C   UNK d   1      54.963  87.420  23.030  0.00  0.00     0.030 C 
ATOM      4  C   UNK d   1      54.926  86.206  22.087  0.00  0.00     0.129 C 
ATOM      5  N   UNK d   1      54.168  86.592  20.892  0.00  0.00    -0.324 N 
ATOM      6  C   UNK d   1      53.192  85.942  20.116  0.00  0.00     0.181 C 
ATOM      7  C   UNK d   1      52.583  87.043  19.254  0.00  0.00     0.198 C 
ATOM      8  N   UNK d   1      53.451  88.164  19.451  0.00  0.00    -0.323 N 
ATOM      9  C   UNK d   1      54.328  87.885  20.325  0.00  0.00     0.147 C 
ENDROOT
BRANCH   6  10
ATOM     10  O   UNK d   1      52.145  85.502  20.956  0.00  0.00    -0.365 OA
ATOM     11  H   UNK d   1      52.402  85.767  21.878  0.00  0.00     0.213 HD
ENDBRANCH   6  10
BRANCH   6  12
ATOM     12  C   UNK d   1      53.590  84.833  19.252  0.00  0.00    -0.002 A 
ATOM     13  C   UNK d   1      53.407  85.019  17.883  0.00  0.00     0.013 A 
ATOM     14  C   UNK d   1      53.761  84.085  16.928  0.00  0.00     0.020 A 
ATOM     15  C   UNK d   1      54.322  82.899  17.312  0.00  0.00     0.011 A 
ATOM     16  C   UNK d   1      54.512  82.694  18.667  0.00  0.00     0.020 A 
ATOM     17 Br   UNK d   1      54.850  81.558  16.029  0.00  0.00    -0.051 Br
ATOM     18  C   UNK d   1      54.153  83.644  19.618  0.00  0.00     0.013 A 
ENDBRANCH   6  12
BRANCH   8  19
ATOM     19  C   UNK d   1      53.261  89.409  18.758  0.00  0.00     0.036 A 
ATOM     20  C   UNK d   1      52.399  90.324  19.270  0.00  0.00     0.029 A 
ATOM     21  C   UNK d   1      52.256  91.533  18.597  0.00  0.00     0.002 A 
ATOM     22  C   UNK d   1      52.948  91.834  17.446  0.00  0.00     0.000 A 
ATOM     23  C   UNK d   1      53.811  90.871  16.962  0.00  0.00     0.002 A 
ATOM     24  C   UNK d   1      53.976  89.666  17.602  0.00  0.00     0.029 A 
ENDBRANCH   8  19
TORSDOF 3
ENDMDL
