MODEL 1
REMARK VINA RESULT:    -7.265      0.000      0.000
REMARK INTER + INTRA:         -12.477
REMARK INTER:                 -10.875
REMARK INTRA:                  -1.602
REMARK UNBOUND:                -1.602
REMARK  9 active torsions:
REMARK  status: ('A' for Active; 'I' for Inactive)
REMARK    1  A    between atoms: C_5  and  S_6 
REMARK    2  A    between atoms: S_6  and  C_7 
REMARK    3  A    between atoms: C_7  and  C_8 
REMARK    4  A    between atoms: N_9  and  C_28 
REMARK    5  A    between atoms: C_12  and  C_13 
REMARK       I    between atoms: C_13  and  N_15 
REMARK    6  A    between atoms: N_15  and  N_16 
REMARK    7  A    between atoms: C_17  and  C_18 
REMARK    8  A    between atoms: C_22  and  O_24 
REMARK    9  A    between atoms: C_32  and  N_33 
ROOT
ATOM      1  C   UNK d   1      54.377  88.618  20.024  0.00  0.00     0.086 A 
ATOM      2  N   UNK d   1      54.963  89.695  19.486  0.00  0.00    -0.192 N 
ATOM      3  N   UNK d   1      56.177  89.769  20.059  0.00  0.00    -0.058 NA
ATOM      4  N   UNK d   1      56.356  88.812  20.897  0.00  0.00    -0.124 NA
ATOM      5  C   UNK d   1      55.234  88.006  20.945  0.00  0.00     0.175 A 
ENDROOT
BRANCH   5   6
ATOM      6  C   UNK d   1      55.120  86.836  21.777  0.00  0.00     0.294 C 
ATOM      7  O   UNK d   1      55.872  85.830  21.467  0.00  0.00    -0.264 OA
ATOM      8  N   UNK d   1      54.302  86.636  22.884  0.00  0.00    -0.242 N 
ATOM      9  H   UNK d   1      53.619  87.286  23.310  0.00  0.00     0.192 HD
BRANCH   8  10
ATOM     10  N   UNK d   1      54.344  85.381  23.586  0.00  0.00    -0.183 NA
ATOM     11  C   UNK d   1      53.456  85.058  24.441  0.00  0.00     0.150 C 
BRANCH  11  12
ATOM     12  C   UNK d   1      53.462  83.799  25.173  0.00  0.00    -0.013 A 
ATOM     13  C   UNK d   1      52.705  82.723  24.767  0.00  0.00     0.035 A 
ATOM     14  C   UNK d   1      52.705  81.521  25.445  0.00  0.00     0.051 A 
ATOM     15  C   UNK d   1      53.471  81.348  26.569  0.00  0.00     0.157 A 
ATOM     16 Br   UNK d   1      51.637  80.055  24.842  0.00  0.00    -0.048 Br
ATOM     17  C   UNK d   1      54.255  82.425  27.012  0.00  0.00     0.106 A 
ATOM     18  O   UNK d   1      53.455  80.132  27.235  0.00  0.00    -0.188 OA
ATOM     19  C   UNK d   1      54.234  83.612  26.312  0.00  0.00     0.052 A 
BRANCH  17  20
ATOM     20  O   UNK d   1      54.998  82.184  28.144  0.00  0.00    -0.353 OA
ATOM     21  C   UNK d   1      54.637  82.542  29.455  0.00  0.00     0.210 C 
ENDBRANCH  17  20
ENDBRANCH  11  12
ENDBRANCH   8  10
ENDBRANCH   5   6
BRANCH   1  22
ATOM     22  C   UNK d   1      53.042  88.084  19.711  0.00  0.00     0.143 C 
BRANCH  22  23
ATOM     23  S   UNK d   1      52.963  86.664  18.641  0.00  0.00    -0.098 SA
BRANCH  23  24
ATOM     24  C   UNK d   1      52.962  85.119  19.542  0.00  0.00     0.125 C 
ATOM     25  S   UNK d   1      53.824  83.662  18.950  0.00  0.00    -0.102 SA
ATOM     26  C   UNK d   1      53.173  82.536  20.222  0.00  0.00     0.103 C 
ATOM     27  C   UNK d   1      52.555  83.533  21.150  0.00  0.00     0.161 C 
ATOM     28  N   UNK d   1      52.436  84.792  20.614  0.00  0.00    -0.275 NA
ENDBRANCH  23  24
ENDBRANCH  22  23
ENDBRANCH   1  22
BRANCH   2  29
ATOM     29  C   UNK d   1      54.533  90.625  18.494  0.00  0.00     0.237 A 
ATOM     30  N   UNK d   1      54.972  90.759  17.226  0.00  0.00    -0.081 NA
ATOM     31  O   UNK d   1      54.350  91.683  16.595  0.00  0.00    -0.103 OA
ATOM     32  N   UNK d   1      53.478  92.201  17.401  0.00  0.00    -0.075 NA
ATOM     33  C   UNK d   1      53.543  91.577  18.615  0.00  0.00     0.300 A 
BRANCH  33  34
ATOM     34  N   UNK d   1      52.739  91.848  19.744  0.00  0.00    -0.026 N 
ATOM     35  H   UNK d   1      52.795  91.017  20.390  0.00  0.00     0.283 HD
ATOM     36  H   UNK d   1      51.750  92.067  19.528  0.00  0.00     0.283 HD
ATOM     37  H   UNK d   1      53.161  92.657  20.276  0.00  0.00     0.283 HD
ENDBRANCH  33  34
ENDBRANCH   2  29
TORSDOF 9
ENDMDL
