MODEL 1
REMARK VINA RESULT:    -6.589      0.000      0.000
REMARK INTER + INTRA:          -8.738
REMARK INTER:                  -7.744
REMARK INTRA:                  -0.994
REMARK UNBOUND:                -0.994
REMARK  3 active torsions:
REMARK  status: ('A' for Active; 'I' for Inactive)
REMARK    1  A    between atoms: C_9  and  C_12 
REMARK    2  A    between atoms: C_12  and  C_13 
REMARK    3  A    between atoms: C_12  and  C_24 
ROOT
ATOM      1  C   UNK d   1      51.139  83.698  28.759  0.00  0.00     0.063 C 
ENDROOT
BRANCH   1   2
ATOM      2  C   UNK d   1      50.757  85.022  29.322  0.00  0.00     0.182 C 
ATOM      3  C   UNK d   1      49.273  85.047  29.433  0.00  0.00     0.259 C 
ATOM      4  N   UNK d   1      48.686  84.363  30.558  0.00  0.00    -0.188 NA
ATOM      5  O   UNK d   1      48.592  85.648  28.567  0.00  0.00    -0.270 OA
ATOM      6  C   UNK d   1      49.328  84.118  31.620  0.00  0.00     0.174 C 
ATOM      7  S   UNK d   1      48.895  83.311  33.147  0.00  0.00    -0.090 SA
ATOM      8  N   UNK d   1      50.667  84.531  31.776  0.00  0.00    -0.295 N 
ATOM      9  C   UNK d   1      50.245  84.132  34.121  0.00  0.00     0.103 C 
ATOM     10  C   UNK d   1      51.276  84.162  33.022  0.00  0.00     0.144 C 
ATOM     11  C   UNK d   1      51.294  85.252  30.683  0.00  0.00     0.239 C 
ATOM     12  O   UNK d   1      52.245  86.021  30.960  0.00  0.00    -0.272 OA
ENDBRANCH   1   2
BRANCH   1  13
ATOM     13  C   UNK d   1      52.386  83.111  29.372  0.00  0.00     0.182 C 
ATOM     14  C   UNK d   1      53.612  83.335  28.588  0.00  0.00     0.239 C 
ATOM     15  O   UNK d   1      54.177  84.484  28.603  0.00  0.00    -0.272 OA
ATOM     16  N   UNK d   1      54.180  82.262  27.797  0.00  0.00    -0.295 N 
ATOM     17  C   UNK d   1      55.216  82.382  26.809  0.00  0.00     0.144 C 
ATOM     18  C   UNK d   1      53.709  80.947  28.010  0.00  0.00     0.174 C 
ATOM     19  C   UNK d   1      55.047  81.342  25.729  0.00  0.00     0.103 C 
ATOM     20  S   UNK d   1      54.611  79.928  26.845  0.00  0.00    -0.090 SA
ATOM     21  N   UNK d   1      52.809  80.664  28.870  0.00  0.00    -0.188 NA
ATOM     22  C   UNK d   1      52.200  81.673  29.691  0.00  0.00     0.259 C 
ATOM     23  O   UNK d   1      51.515  81.295  30.675  0.00  0.00    -0.270 OA
ENDBRANCH   1  13
BRANCH   1  24
ATOM     24  C   UNK d   1      51.239  83.810  27.287  0.00  0.00    -0.050 A 
ATOM     25  C   UNK d   1      50.863  82.754  26.465  0.00  0.00     0.026 A 
ATOM     26  C   UNK d   1      50.948  82.849  25.092  0.00  0.00     0.011 A 
ATOM     27  C   UNK d   1      51.411  84.003  24.501  0.00  0.00     0.019 A 
ATOM     28 Br   UNK d   1      50.433  81.404  23.956  0.00  0.00    -0.051 Br
ATOM     29  C   UNK d   1      51.780  85.036  25.308  0.00  0.00     0.002 A 
ATOM     30  C   UNK d   1      51.701  84.957  26.683  0.00  0.00     0.007 A 
ENDBRANCH   1  24
TORSDOF 3
ENDMDL
