MODEL 1
REMARK VINA RESULT:    -6.806      0.000      0.000
REMARK INTER + INTRA:          -9.521
REMARK INTER:                  -7.999
REMARK INTRA:                  -1.522
REMARK UNBOUND:                -1.522
REMARK  3 active torsions:
REMARK  status: ('A' for Active; 'I' for Inactive)
REMARK    1  A    between atoms: C_9  and  C_12 
REMARK    2  A    between atoms: C_12  and  C_13 
REMARK    3  A    between atoms: C_12  and  C_24 
ROOT
ATOM      1  C   UNK d   1      50.342  83.571  27.481  0.00  0.00     0.063 C 
ENDROOT
BRANCH   1   2
ATOM      2  C   UNK d   1      49.917  84.081  28.793  0.00  0.00     0.182 C 
ATOM      3  C   UNK d   1      48.770  84.925  28.973  0.00  0.00     0.259 C 
ATOM      4  N   UNK d   1      47.502  84.269  29.250  0.00  0.00    -0.188 NA
ATOM      5  O   UNK d   1      48.677  86.176  28.934  0.00  0.00    -0.270 OA
ATOM      6  C   UNK d   1      47.473  83.100  29.805  0.00  0.00     0.174 C 
ATOM      7  S   UNK d   1      46.085  82.034  30.276  0.00  0.00    -0.090 SA
ATOM      8  N   UNK d   1      48.621  82.353  30.143  0.00  0.00    -0.295 N 
ATOM      9  C   UNK d   1      47.101  80.494  30.352  0.00  0.00     0.103 C 
ATOM     10  C   UNK d   1      48.407  81.100  30.762  0.00  0.00     0.144 C 
ATOM     11  C   UNK d   1      49.886  82.978  29.825  0.00  0.00     0.239 C 
ATOM     12  O   UNK d   1      50.925  82.606  30.401  0.00  0.00    -0.272 OA
ENDBRANCH   1   2
BRANCH   1  13
ATOM     13  C   UNK d   1      50.251  82.147  27.133  0.00  0.00     0.182 C 
ATOM     14  C   UNK d   1      49.288  82.027  25.953  0.00  0.00     0.239 C 
ATOM     15  O   UNK d   1      48.052  82.082  26.148  0.00  0.00    -0.272 OA
ATOM     16  N   UNK d   1      49.802  81.852  24.612  0.00  0.00    -0.295 N 
ATOM     17  C   UNK d   1      49.109  82.050  23.387  0.00  0.00     0.144 C 
ATOM     18  C   UNK d   1      51.144  81.415  24.491  0.00  0.00     0.174 C 
ATOM     19  C   UNK d   1      50.049  82.471  22.284  0.00  0.00     0.103 C 
ATOM     20  S   UNK d   1      51.451  81.343  22.735  0.00  0.00    -0.090 SA
ATOM     21  N   UNK d   1      51.907  81.168  25.481  0.00  0.00    -0.188 NA
ATOM     22  C   UNK d   1      51.400  81.334  26.839  0.00  0.00     0.259 C 
ATOM     23  O   UNK d   1      52.033  80.716  27.714  0.00  0.00    -0.270 OA
ENDBRANCH   1  13
BRANCH   1  24
ATOM     24  C   UNK d   1      51.612  84.231  26.989  0.00  0.00    -0.051 A 
ATOM     25  C   UNK d   1      52.703  84.368  27.813  0.00  0.00     0.009 A 
ATOM     26  C   UNK d   1      53.834  84.977  27.333  0.00  0.00     0.019 A 
ATOM     27  C   UNK d   1      53.935  85.458  26.065  0.00  0.00     0.011 A 
ATOM     28  C   UNK d   1      52.861  85.337  25.218  0.00  0.00     0.019 A 
ATOM     29 Br   UNK d   1      55.522  86.308  25.403  0.00  0.00    -0.051 Br
ATOM     30  C   UNK d   1      51.710  84.718  25.707  0.00  0.00     0.009 A 
ENDBRANCH   1  24
TORSDOF 3
ENDMDL
