MODEL 1
REMARK VINA RESULT:    -8.120      0.000      0.000
REMARK INTER + INTRA:          -9.512
REMARK INTER:                  -9.069
REMARK INTRA:                  -0.443
REMARK UNBOUND:                -0.443
REMARK  2 active torsions:
REMARK  status: ('A' for Active; 'I' for Inactive)
REMARK    1  A    between atoms: C_4  and  C_7 
REMARK    2  A    between atoms: C_14  and  C_15 
ROOT
ATOM      1  S   UNK d   1      52.141  87.005  18.584  0.00  0.00    -0.025 SA
ATOM      2  C   UNK d   1      53.070  85.922  19.541  0.00  0.00     0.219 A 
ATOM      3  N   UNK d   1      53.771  86.773  20.289  0.00  0.00    -0.184 N 
ATOM      4  C   UNK d   1      54.542  85.959  21.086  0.00  0.00     0.205 A 
ATOM      5  N   UNK d   1      54.286  84.684  20.799  0.00  0.00    -0.125 NA
ATOM      6  N   UNK d   1      53.379  84.621  19.846  0.00  0.00    -0.120 NA
ATOM      7  N   UNK d   1      53.600  88.023  20.129  0.00  0.00    -0.154 NA
ATOM      8  C   UNK d   1      52.744  88.483  19.238  0.00  0.00     0.153 A 
ENDROOT
BRANCH   8   9
ATOM      9  C   UNK d   1      52.391  89.863  18.888  0.00  0.00     0.133 A 
ATOM     10  N   UNK d   1      51.504  90.645  19.515  0.00  0.00    -0.171 NA
ATOM     11  N   UNK d   1      51.458  91.839  18.902  0.00  0.00    -0.287 N 
ATOM     12  C   UNK d   1      52.324  91.829  17.869  0.00  0.00     0.131 A 
ATOM     13  H   UNK d   1      50.843  92.633  19.193  0.00  0.00     0.188 HD
ATOM     14  C   UNK d   1      52.919  90.565  17.862  0.00  0.00     0.061 A 
ATOM     15 Br   UNK d   1      54.218  90.023  16.607  0.00  0.00    -0.047 Br
ENDBRANCH   8   9
BRANCH   4  16
ATOM     16  C   UNK d   1      55.510  86.408  22.107  0.00  0.00     0.123 A 
ATOM     17  N   UNK d   1      56.836  86.307  21.902  0.00  0.00    -0.254 NA
ATOM     18  C   UNK d   1      57.712  86.721  22.844  0.00  0.00     0.136 A 
ATOM     19  C   UNK d   1      57.261  87.251  24.022  0.00  0.00     0.135 A 
ATOM     20  N   UNK d   1      55.944  87.347  24.211  0.00  0.00    -0.269 NA
ATOM     21  C   UNK d   1      55.047  86.940  23.286  0.00  0.00     0.151 A 
ENDBRANCH   4  16
TORSDOF 2
ENDMDL
