/Users/jonathanwahrer/Desktop/Msc/3_Semester/Drug_Design_Praktikum/waehrer_HTS_screening/HTS_experiment/out/docking_results/vina_output/3npc/1255_docked.pdbqt
 OpenBabel03192220163D

 34 38  0  0  1  0  0  0  0  0999 V2000
   51.0410   84.0560   30.1010 C   0  0  1  0  0  3  0  0  0  0  0  0
   50.6210   85.0070   29.0170 C   0  0  2  0  0  3  0  0  0  0  0  0
   49.0960   85.0900   29.0180 C   0  0  0  0  0  0  0  0  0  0  0  0
   48.3920   83.8780   28.6600 N   0  0  0  0  0  0  0  0  0  0  0  0
   48.5720   86.1610   29.3180 O   0  0  0  0  0  0  0  0  0  0  0  0
   48.9440   83.0330   27.8530 C   0  0  0  0  0  0  0  0  0  0  0  0
   48.3620   81.4690   27.2170 S   0  0  0  0  0  0  0  0  0  0  0  0
   50.2170   83.2310   27.2760 N   0  0  0  0  0  0  0  0  0  0  0  0
   49.8090   81.1400   26.2220 C   0  0  0  0  0  0  0  0  0  0  0  0
   50.6580   82.2480   26.4320 N   0  0  0  0  0  0  0  0  0  0  0  0
   50.0090   80.0690   25.4600 C   0  0  0  0  0  2  0  0  0  0  0  0
   51.6080   82.2800   25.9170 H   0  0  0  0  0  0  0  0  0  0  0  0
   50.8920   84.4690   27.6460 C   0  0  0  0  0  0  0  0  0  0  0  0
   51.6620   85.0350   26.8190 O   0  0  0  0  0  0  0  0  0  0  0  0
   52.4830   83.9550   30.3990 C   0  0  2  0  0  3  0  0  0  0  0  0
   53.4180   84.0360   29.2870 C   0  0  0  0  0  0  0  0  0  0  0  0
   54.0550   85.1210   29.0640 O   0  0  0  0  0  0  0  0  0  0  0  0
   53.6560   82.9050   28.4090 N   0  0  0  0  0  0  0  0  0  0  0  0
   54.1140   82.9190   27.1300 N   0  0  0  0  0  0  0  0  0  0  0  0
   53.3780   81.6440   28.9730 C   0  0  0  0  0  0  0  0  0  0  0  0
   54.2710   81.6700   26.4810 C   0  0  0  0  0  0  0  0  0  0  0  0
   54.3690   83.8070   26.5730 H   0  0  0  0  0  0  0  0  0  0  0  0
   54.6950   81.4040   25.2650 C   0  0  0  0  0  2  0  0  0  0  0  0
   53.7530   80.4590   27.6950 S   0  0  0  0  0  0  0  0  0  0  0  0
   52.9450   81.4720   30.1720 N   0  0  0  0  0  0  0  0  0  0  0  0
   52.7090   82.5950   31.0370 C   0  0  0  0  0  0  0  0  0  0  0  0
   52.6770   82.5310   32.2750 O   0  0  0  0  0  0  0  0  0  0  0  0
   50.2740   84.2910   31.3580 C   0  0  0  0  0  0  0  0  0  0  0  0
   50.4580   85.4320   32.1030 C   0  0  0  0  0  3  0  0  0  0  0  0
   49.7540   85.6540   33.2640 C   0  0  0  0  0  3  0  0  0  0  0  0
   48.8430   84.7160   33.6950 C   0  0  0  0  0  0  0  0  0  0  0  0
   48.6250   83.5440   32.9680 C   0  0  0  0  0  3  0  0  0  0  0  0
   47.8480   84.9950   35.3040 Br  0  0  0  0  0  0  0  0  0  0  0  0
   49.3510   83.3590   31.8090 C   0  0  0  0  0  3  0  0  0  0  0  0
  1 28  1  1  0  0  0
  2  3  1  0  0  0  0
  2  1  1  1  0  0  0
  3  5  2  0  0  0  0
  4  3  1  0  0  0  0
  6  4  2  0  0  0  0
  7  6  1  0  0  0  0
  8 13  1  0  0  0  0
  8  6  1  0  0  0  0
  9 10  1  0  0  0  0
  9  7  1  0  0  0  0
 10  8  1  0  0  0  0
 11  9  2  0  0  0  0
 12 10  1  0  0  0  0
 13  2  1  0  0  0  0
 14 13  2  0  0  0  0
 15  1  1  6  0  0  0
 15 26  1  0  0  0  0
 16 15  1  0  0  0  0
 17 16  2  0  0  0  0
 18 20  1  0  0  0  0
 18 16  1  0  0  0  0
 19 18  1  0  0  0  0
 20 25  2  0  0  0  0
 21 19  1  0  0  0  0
 21 24  1  0  0  0  0
 22 19  1  0  0  0  0
 23 21  2  0  0  0  0
 24 20  1  0  0  0  0
 25 26  1  0  0  0  0
 26 27  2  0  0  0  0
 28 34  2  0  0  0  0
 28 29  1  0  0  0  0
 29 30  2  0  0  0  0
 30 31  1  0  0  0  0
 31 33  1  0  0  0  0
 32 31  2  0  0  0  0
 34 32  1  0  0  0  0
M  END
>  <Pose>
1

>  <Score>
-7.180

$$$$
