MODEL 1
REMARK VINA RESULT:    -7.180      0.000      0.000
REMARK INTER + INTRA:          -8.971
REMARK INTER:                  -8.439
REMARK INTRA:                  -0.531
REMARK UNBOUND:                -0.531
REMARK  3 active torsions:
REMARK  status: ('A' for Active; 'I' for Inactive)
REMARK    1  A    between atoms: C_6  and  C_13 
REMARK    2  A    between atoms: C_13  and  C_14 
REMARK    3  A    between atoms: C_13  and  C_26 
ROOT
ATOM      1  C   UNK d   1      51.041  84.056  30.101  0.00  0.00     0.063 C 
ENDROOT
BRANCH   1   2
ATOM      2  C   UNK d   1      50.621  85.007  29.017  0.00  0.00     0.184 C 
ATOM      3  C   UNK d   1      49.096  85.090  29.018  0.00  0.00     0.259 C 
ATOM      4  N   UNK d   1      48.392  83.878  28.660  0.00  0.00    -0.186 NA
ATOM      5  O   UNK d   1      48.572  86.161  29.318  0.00  0.00    -0.270 OA
ATOM      6  C   UNK d   1      48.944  83.033  27.853  0.00  0.00     0.200 A 
ATOM      7  S   UNK d   1      48.362  81.469  27.217  0.00  0.00    -0.032 SA
ATOM      8  N   UNK d   1      50.217  83.231  27.276  0.00  0.00    -0.197 N 
ATOM      9  C   UNK d   1      49.809  81.140  26.222  0.00  0.00     0.083 A 
ATOM     10  N   UNK d   1      50.658  82.248  26.432  0.00  0.00    -0.283 N 
ATOM     11  C   UNK d   1      50.009  80.069  25.460  0.00  0.00     0.052 C 
ATOM     12  H   UNK d   1      51.608  82.280  25.917  0.00  0.00     0.188 HD
ATOM     13  C   UNK d   1      50.892  84.469  27.646  0.00  0.00     0.259 C 
ATOM     14  O   UNK d   1      51.662  85.035  26.819  0.00  0.00    -0.270 OA
ENDBRANCH   1   2
BRANCH   1  15
ATOM     15  C   UNK d   1      52.483  83.955  30.399  0.00  0.00     0.184 C 
ATOM     16  C   UNK d   1      53.418  84.036  29.287  0.00  0.00     0.259 C 
ATOM     17  O   UNK d   1      54.055  85.121  29.064  0.00  0.00    -0.270 OA
ATOM     18  N   UNK d   1      53.656  82.905  28.409  0.00  0.00    -0.197 N 
ATOM     19  N   UNK d   1      54.114  82.919  27.130  0.00  0.00    -0.283 N 
ATOM     20  C   UNK d   1      53.378  81.644  28.973  0.00  0.00     0.200 A 
ATOM     21  C   UNK d   1      54.271  81.670  26.481  0.00  0.00     0.083 A 
ATOM     22  H   UNK d   1      54.369  83.807  26.573  0.00  0.00     0.188 HD
ATOM     23  C   UNK d   1      54.695  81.404  25.265  0.00  0.00     0.052 C 
ATOM     24  S   UNK d   1      53.753  80.459  27.695  0.00  0.00    -0.032 SA
ATOM     25  N   UNK d   1      52.945  81.472  30.172  0.00  0.00    -0.186 NA
ATOM     26  C   UNK d   1      52.709  82.595  31.037  0.00  0.00     0.259 C 
ATOM     27  O   UNK d   1      52.677  82.531  32.275  0.00  0.00    -0.270 OA
ENDBRANCH   1  15
BRANCH   1  28
ATOM     28  C   UNK d   1      50.274  84.291  31.358  0.00  0.00    -0.051 A 
ATOM     29  C   UNK d   1      50.458  85.432  32.103  0.00  0.00     0.009 A 
ATOM     30  C   UNK d   1      49.754  85.654  33.264  0.00  0.00     0.019 A 
ATOM     31  C   UNK d   1      48.843  84.716  33.695  0.00  0.00     0.011 A 
ATOM     32  C   UNK d   1      48.625  83.544  32.968  0.00  0.00     0.019 A 
ATOM     33 Br   UNK d   1      47.848  84.995  35.304  0.00  0.00    -0.051 Br
ATOM     34  C   UNK d   1      49.351  83.359  31.809  0.00  0.00     0.009 A 
ENDBRANCH   1  28
TORSDOF 3
ENDMDL
