/Users/jonathanwahrer/Desktop/Msc/3_Semester/Drug_Design_Praktikum/waehrer_HTS_screening/HTS_experiment/out/docking_results/vina_output/3npc/1266_docked.pdbqt
 OpenBabel03192220163D

 28 31  0  0  1  0  0  0  0  0999 V2000
   50.4470  100.9160   28.6820 C   0  0  2  0  0  3  0  0  0  0  0  0
   50.1790  101.4320   27.3450 N   0  0  0  0  0  0  0  0  0  0  0  0
   51.1320  101.2710   26.3500 C   0  0  0  0  0  2  0  0  0  0  0  0
   52.1170  100.1250   26.4430 C   0  0  0  0  0  2  0  0  0  0  0  0
   52.3730   99.7080   27.7520 N   0  0  0  0  0  0  0  0  0  0  0  0
   51.8300  100.4780   28.8310 C   0  0  0  0  0  2  0  0  0  0  0  0
   53.1290   98.5720   28.1400 C   0  0  0  0  0  0  0  0  0  0  0  0
   53.3190   98.5310   29.4380 O   0  0  0  0  0  0  0  0  0  0  0  0
   49.2170  101.1770   27.0430 H   0  0  0  0  0  0  0  0  0  0  0  0
   53.7030   97.4930   27.4210 C   0  0  0  0  0  0  0  0  0  0  0  0
   52.8570   96.3990   27.1130 C   0  0  0  0  0  3  0  0  0  0  0  0
   53.2730   95.4050   26.3290 N   0  0  0  0  0  0  0  0  0  0  0  0
   54.4980   95.3910   25.8000 C   0  0  0  0  0  0  0  0  0  0  0  0
   55.3610   96.4210   26.0620 C   0  0  0  0  0  0  0  0  0  0  0  0
   54.9190   94.3360   24.9820 O   0  0  0  0  0  0  0  0  0  0  0  0
   54.9650   97.4790   26.8770 C   0  0  0  0  0  3  0  0  0  0  0  0
   56.6640   96.4340   25.4730 N   0  0  0  0  0  0  0  0  0  0  0  0
   57.0340   95.3550   24.6130 C   0  0  0  0  0  0  0  0  0  0  0  0
   57.3320   97.2000   25.6470 H   0  0  0  0  0  0  0  0  0  0  0  0
   57.9070   95.4300   23.7250 O   0  0  0  0  0  0  0  0  0  0  0  0
   56.3170   94.0570   24.8040 C   0  0  0  0  0  2  0  0  0  0  0  0
   49.4290   99.8230   28.8720 C   0  0  0  0  0  0  0  0  0  0  0  0
   48.0790  100.1980   28.9500 C   0  0  0  0  0  0  0  0  0  0  0  0
   47.7220  101.9380   28.9770 Cl  0  0  0  0  0  0  0  0  0  0  0  0
   47.0460   99.2880   29.0090 C   0  0  0  0  0  3  0  0  0  0  0  0
   47.3400   97.9290   28.9910 C   0  0  0  0  0  3  0  0  0  0  0  0
   48.6730   97.5610   28.9130 C   0  0  0  0  0  3  0  0  0  0  0  0
   49.7000   98.4860   28.8550 C   0  0  0  0  0  3  0  0  0  0  0  0
  1  6  1  0  0  0  0
  1 22  1  6  0  0  0
  2  1  1  0  0  0  0
  3  4  1  0  0  0  0
  3  2  1  0  0  0  0
  4  5  1  0  0  0  0
  5  7  1  0  0  0  0
  5  6  1  0  0  0  0
  7  8  2  0  0  0  0
  9  2  1  0  0  0  0
 10  7  1  0  0  0  0
 11 10  2  0  0  0  0
 12 11  1  0  0  0  0
 13 14  1  0  0  0  0
 13 12  2  0  0  0  0
 14 16  2  0  0  0  0
 15 13  1  0  0  0  0
 16 10  1  0  0  0  0
 17 19  1  0  0  0  0
 17 14  1  0  0  0  0
 18 21  1  0  0  0  0
 18 17  1  0  0  0  0
 20 18  2  0  0  0  0
 21 15  1  0  0  0  0
 22 23  1  0  0  0  0
 23 24  1  0  0  0  0
 23 25  2  0  0  0  0
 26 25  1  0  0  0  0
 27 26  2  0  0  0  0
 28 22  2  0  0  0  0
 28 27  1  0  0  0  0
M  END
>  <Pose>
1

>  <Score>
-9.686

$$$$
