MODEL 1
REMARK VINA RESULT:    -9.686      0.000      0.000
REMARK INTER + INTRA:         -10.940
REMARK INTER:                 -10.819
REMARK INTRA:                  -0.122
REMARK UNBOUND:                -0.122
REMARK  2 active torsions:
REMARK  status: ('A' for Active; 'I' for Inactive)
REMARK    1  A    between atoms: C_3  and  C_8 
REMARK       I    between atoms: N_12  and  C_14 
REMARK    2  A    between atoms: C_14  and  C_16 
ROOT
ATOM      1  C   UNK d   1      50.447 100.916  28.682  0.00  0.00     0.273 C 
ATOM      2  N   UNK d   1      50.179 101.432  27.345  0.00  0.00     0.095 NA
ATOM      3  C   UNK d   1      51.132 101.271  26.350  0.00  0.00     0.290 C 
ATOM      4  C   UNK d   1      52.117 100.125  26.443  0.00  0.00     0.155 C 
ATOM      5  N   UNK d   1      52.373  99.708  27.752  0.00  0.00    -0.355 N 
ATOM      6  C   UNK d   1      51.830 100.478  28.831  0.00  0.00     0.165 C 
ATOM      7  C   UNK d   1      53.129  98.572  28.140  0.00  0.00     0.189 C 
ATOM      8  O   UNK d   1      53.319  98.531  29.438  0.00  0.00    -0.171 OA
ATOM      9  H   UNK d   1      49.217 101.177  27.043  0.00  0.00     0.316 HD
ENDROOT
BRANCH   7  10
ATOM     10  C   UNK d   1      53.703  97.493  27.421  0.00  0.00     0.038 A 
ATOM     11  C   UNK d   1      52.857  96.399  27.113  0.00  0.00     0.135 A 
ATOM     12  N   UNK d   1      53.273  95.405  26.329  0.00  0.00    -0.234 NA
ATOM     13  C   UNK d   1      54.498  95.391  25.800  0.00  0.00     0.192 A 
ATOM     14  C   UNK d   1      55.361  96.421  26.062  0.00  0.00     0.089 A 
ATOM     15  O   UNK d   1      54.919  94.336  24.982  0.00  0.00    -0.323 OA
ATOM     16  C   UNK d   1      54.965  97.479  26.877  0.00  0.00     0.051 A 
ATOM     17  N   UNK d   1      56.664  96.434  25.473  0.00  0.00    -0.322 N 
ATOM     18  C   UNK d   1      57.034  95.355  24.613  0.00  0.00     0.246 C 
ATOM     19  H   UNK d   1      57.332  97.200  25.647  0.00  0.00     0.169 HD
ATOM     20  O   UNK d   1      57.907  95.430  23.725  0.00  0.00    -0.271 OA
ATOM     21  C   UNK d   1      56.317  94.057  24.804  0.00  0.00     0.280 C 
ENDBRANCH   7  10
BRANCH   1  22
ATOM     22  C   UNK d   1      49.429  99.823  28.872  0.00  0.00    -0.002 A 
ATOM     23  C   UNK d   1      48.079 100.198  28.950  0.00  0.00     0.042 A 
ATOM     24 Cl   UNK d   1      47.722 101.938  28.977  0.00  0.00    -0.084 Cl
ATOM     25  C   UNK d   1      47.046  99.288  29.009  0.00  0.00     0.024 A 
ATOM     26  C   UNK d   1      47.340  97.929  28.991  0.00  0.00     0.002 A 
ATOM     27  C   UNK d   1      48.673  97.561  28.913  0.00  0.00     0.001 A 
ATOM     28  C   UNK d   1      49.700  98.486  28.855  0.00  0.00     0.011 A 
ENDBRANCH   1  22
TORSDOF 2
ENDMDL
