MODEL 1
REMARK VINA RESULT:    -9.048      0.000      0.000
REMARK INTER + INTRA:         -14.568
REMARK INTER:                 -13.016
REMARK INTRA:                  -1.553
REMARK UNBOUND:                -1.553
REMARK  8 active torsions:
REMARK  status: ('A' for Active; 'I' for Inactive)
REMARK    1  A    between atoms: C_4  and  C_8 
REMARK    2  A    between atoms: C_8  and  N_10 
REMARK    3  A    between atoms: N_10  and  N_11 
REMARK       I    between atoms: N_11  and  C_12 
REMARK    4  A    between atoms: C_12  and  C_14 
REMARK    5  A    between atoms: N_17  and  C_26 
REMARK    6  A    between atoms: C_18  and  C_19 
REMARK    7  A    between atoms: C_19  and  N_20 
REMARK    8  A    between atoms: C_30  and  N_31 
ROOT
ATOM      1  C   UNK d   1      55.506  87.154  23.843  0.00  0.00     0.176 A 
ATOM      2  N   UNK d   1      55.840  87.122  25.140  0.00  0.00    -0.124 NA
ATOM      3  N   UNK d   1      55.187  86.119  25.668  0.00  0.00    -0.058 NA
ATOM      4  N   UNK d   1      54.445  85.508  24.747  0.00  0.00    -0.191 N 
ATOM      5  C   UNK d   1      54.603  86.112  23.580  0.00  0.00     0.104 A 
ENDROOT
BRANCH   1   6
ATOM      6  C   UNK d   1      56.027  88.118  22.891  0.00  0.00     0.292 C 
ATOM      7  N   UNK d   1      55.550  89.448  22.813  0.00  0.00    -0.264 N 
ATOM      8  H   UNK d   1      54.783  89.809  23.441  0.00  0.00     0.190 HD
ATOM      9  O   UNK d   1      56.936  87.753  22.111  0.00  0.00    -0.264 OA
BRANCH   7  10
ATOM     10  N   UNK d   1      56.063  90.368  21.899  0.00  0.00    -0.298 N 
ATOM     11  H   UNK d   1      57.034  90.382  21.544  0.00  0.00     0.187 HD
BRANCH  10  12
ATOM     12  C   UNK d   1      55.177  91.390  21.395  0.00  0.00     0.049 C 
ATOM     13  C   UNK d   1      54.902  92.414  22.163  0.00  0.00     0.045 C 
BRANCH  12  14
ATOM     14  C   UNK d   1      54.618  91.228  20.067  0.00  0.00    -0.008 A 
ATOM     15  C   UNK d   1      53.324  91.668  19.795  0.00  0.00     0.032 A 
ATOM     16  C   UNK d   1      52.788  91.534  18.537  0.00  0.00     0.011 A 
ATOM     17 Br   UNK d   1      51.022  92.128  18.154  0.00  0.00    -0.051 Br
ATOM     18  C   UNK d   1      53.505  90.964  17.500  0.00  0.00     0.019 A 
ATOM     19  C   UNK d   1      54.771  90.530  17.754  0.00  0.00     0.002 A 
ATOM     20  C   UNK d   1      55.310  90.669  19.033  0.00  0.00     0.014 A 
ENDBRANCH  12  14
ENDBRANCH  10  12
ENDBRANCH   7  10
ENDBRANCH   1   6
BRANCH   5  21
ATOM     21  C   UNK d   1      54.020  85.903  22.275  0.00  0.00     0.334 C 
BRANCH  21  22
ATOM     22  N   UNK d   1      54.438  84.707  21.568  0.00  0.00     0.094 NA
ATOM     23  C   UNK d   1      53.376  83.706  21.573  0.00  0.00     0.273 C 
ATOM     24  C   UNK d   1      52.039  84.298  21.187  0.00  0.00     0.030 C 
ATOM     25  C   UNK d   1      52.139  84.954  19.821  0.00  0.00     0.003 C 
ATOM     26  C   UNK d   1      53.519  84.795  19.249  0.00  0.00     0.030 C 
ATOM     27  C   UNK d   1      54.656  85.029  20.161  0.00  0.00     0.273 C 
ENDBRANCH  21  22
ENDBRANCH   5  21
BRANCH   4  28
ATOM     28  C   UNK d   1      53.607  84.402  25.024  0.00  0.00     0.229 A 
ATOM     29  N   UNK d   1      54.073  83.126  25.122  0.00  0.00    -0.081 NA
ATOM     30  O   UNK d   1      53.060  82.359  25.376  0.00  0.00    -0.103 OA
ATOM     31  N   UNK d   1      51.968  83.030  25.448  0.00  0.00    -0.083 NA
ATOM     32  C   UNK d   1      52.262  84.320  25.233  0.00  0.00     0.201 A 
BRANCH  32  33
ATOM     33  N   UNK d   1      51.376  85.407  25.220  0.00  0.00    -0.379 N 
ATOM     34  H   UNK d   1      51.137  86.015  26.034  0.00  0.00     0.158 HD
ATOM     35  H   UNK d   1      50.897  85.649  24.326  0.00  0.00     0.158 HD
ENDBRANCH  32  33
ENDBRANCH   4  28
TORSDOF 8
ENDMDL
