/Users/jonathanwahrer/Desktop/Msc/3_Semester/Drug_Design_Praktikum/waehrer_HTS_screening/HTS_experiment/out/docking_results/vina_output/3npc/1271_docked.pdbqt
 OpenBabel03192220173D

 35 38  0  0  0  0  0  0  0  0999 V2000
   55.5060   87.1540   23.8430 C   0  0  0  0  0  0  0  0  0  0  0  0
   55.8400   87.1220   25.1400 N   0  0  0  0  0  0  0  0  0  0  0  0
   55.1870   86.1190   25.6680 N   0  0  0  0  0  0  0  0  0  0  0  0
   54.4450   85.5080   24.7470 N   0  0  0  0  0  0  0  0  0  0  0  0
   54.6030   86.1120   23.5800 C   0  0  0  0  0  0  0  0  0  0  0  0
   56.0270   88.1180   22.8910 C   0  0  0  0  0  0  0  0  0  0  0  0
   55.5500   89.4480   22.8130 N   0  0  0  0  0  0  0  0  0  0  0  0
   54.7830   89.8090   23.4410 H   0  0  0  0  0  0  0  0  0  0  0  0
   56.9360   87.7530   22.1110 O   0  0  0  0  0  0  0  0  0  0  0  0
   56.0630   90.3680   21.8990 N   0  0  0  0  0  0  0  0  0  0  0  0
   57.0340   90.3820   21.5440 H   0  0  0  0  0  0  0  0  0  0  0  0
   55.1770   91.3900   21.3950 C   0  0  0  0  0  0  0  0  0  0  0  0
   54.9020   92.4140   22.1630 C   0  0  0  0  0  2  0  0  0  0  0  0
   54.6180   91.2280   20.0670 C   0  0  0  0  0  0  0  0  0  0  0  0
   53.3240   91.6680   19.7950 C   0  0  0  0  0  3  0  0  0  0  0  0
   52.7880   91.5340   18.5370 C   0  0  0  0  0  0  0  0  0  0  0  0
   51.0220   92.1280   18.1540 Br  0  0  0  0  0  0  0  0  0  0  0  0
   53.5050   90.9640   17.5000 C   0  0  0  0  0  3  0  0  0  0  0  0
   54.7710   90.5300   17.7540 C   0  0  0  0  0  3  0  0  0  0  0  0
   55.3100   90.6690   19.0330 C   0  0  0  0  0  3  0  0  0  0  0  0
   54.0200   85.9030   22.2750 C   0  0  0  0  0  2  0  0  0  0  0  0
   54.4380   84.7070   21.5680 N   0  0  0  0  0  0  0  0  0  0  0  0
   53.3760   83.7060   21.5730 C   0  0  0  0  0  2  0  0  0  0  0  0
   52.0390   84.2980   21.1870 C   0  0  0  0  0  2  0  0  0  0  0  0
   52.1390   84.9540   19.8210 C   0  0  0  0  0  2  0  0  0  0  0  0
   53.5190   84.7950   19.2490 C   0  0  0  0  0  2  0  0  0  0  0  0
   54.6560   85.0290   20.1610 C   0  0  0  0  0  2  0  0  0  0  0  0
   53.6070   84.4020   25.0240 C   0  0  0  0  0  0  0  0  0  0  0  0
   54.0730   83.1260   25.1220 N   0  0  0  0  0  0  0  0  0  0  0  0
   53.0600   82.3590   25.3760 O   0  0  0  0  0  0  0  0  0  0  0  0
   51.9680   83.0300   25.4480 N   0  0  0  0  0  0  0  0  0  0  0  0
   52.2620   84.3200   25.2330 C   0  0  0  0  0  0  0  0  0  0  0  0
   51.3760   85.4070   25.2200 N   0  0  0  0  0  0  0  0  0  0  0  0
   51.1370   86.0150   26.0340 H   0  0  0  0  0  0  0  0  0  0  0  0
   50.8970   85.6490   24.3260 H   0  0  0  0  0  0  0  0  0  0  0  0
  1  2  1  0  0  0  0
  2  3  2  0  0  0  0
  4 28  1  0  0  0  0
  4  3  1  0  0  0  0
  5  1  2  0  0  0  0
  5  4  1  0  0  0  0
  6  1  1  0  0  0  0
  7  6  1  0  0  0  0
  7  8  1  0  0  0  0
  9  6  2  0  0  0  0
 10  7  1  0  0  0  0
 11 10  1  0  0  0  0
 12 10  1  0  0  0  0
 12 13  2  0  0  0  0
 14 12  1  0  0  0  0
 15 14  1  0  0  0  0
 16 15  2  0  0  0  0
 17 16  1  0  0  0  0
 18 19  2  0  0  0  0
 18 16  1  0  0  0  0
 19 20  1  0  0  0  0
 20 14  2  0  0  0  0
 21  5  1  0  0  0  0
 22 23  1  0  0  0  0
 22 21  1  0  0  0  0
 24 23  1  0  0  0  0
 25 24  1  0  0  0  0
 26 25  1  0  0  0  0
 26 27  1  0  0  0  0
 27 22  1  0  0  0  0
 28 29  2  0  0  0  0
 28 32  1  0  0  0  0
 29 30  1  0  0  0  0
 30 31  1  0  0  0  0
 32 31  2  0  0  0  0
 33 32  1  0  0  0  0
 33 34  1  0  0  0  0
 35 33  1  0  0  0  0
M  END
>  <Pose>
1

>  <Score>
-9.048

$$$$
