/Users/jonathanwahrer/Desktop/Msc/3_Semester/Drug_Design_Praktikum/waehrer_HTS_screening/HTS_experiment/out/docking_results/vina_output/3npc/1280_docked.pdbqt
 OpenBabel03192220183D

 35 38  0  0  1  0  0  0  0  0999 V2000
   48.9240  101.0940   30.8030 C   0  0  1  0  0  3  0  0  0  0  0  0
   47.7560  101.2840   29.9660 N   0  0  0  0  0  0  0  0  0  0  0  0
   48.2260  101.5800   28.6630 C   0  0  0  0  0  0  0  0  0  0  0  0
   47.6100  102.2260   27.8090 O   0  0  0  0  0  0  0  0  0  0  0  0
   49.5630  100.9710   28.5530 C   0  0  0  0  0  0  0  0  0  0  0  0
   50.3330  100.9850   27.5620 O   0  0  0  0  0  0  0  0  0  0  0  0
   49.8010  100.3410   29.8450 C   0  0  0  0  0  0  0  0  0  0  0  0
   50.5990   99.3050   30.0610 C   0  0  0  0  0  0  0  0  0  0  0  0
   50.6340   98.8320   31.3940 O   0  0  0  0  0  1  0  0  0  0  0  0
   49.4780  102.3930   31.2120 C   0  0  0  0  0  0  0  0  0  0  0  0
   48.8460  103.5700   30.8380 C   0  0  0  0  0  3  0  0  0  0  0  0
   49.3370  104.8200   31.2310 C   0  0  0  0  0  0  0  0  0  0  0  0
   48.4340  106.4300   30.6950 Br  0  0  0  0  0  0  0  0  0  0  0  0
   50.4670  104.9050   32.0030 C   0  0  0  0  0  3  0  0  0  0  0  0
   51.1040  103.7480   32.3820 C   0  0  0  0  0  3  0  0  0  0  0  0
   50.6020  102.5160   31.9820 C   0  0  0  0  0  3  0  0  0  0  0  0
   51.4040   98.6640   29.0270 C   0  0  0  0  0  0  0  0  0  0  0  0
   50.9450   97.7010   28.1780 C   0  0  0  0  0  0  0  0  0  0  0  0
   51.8050   97.0990   27.2410 C   0  0  0  0  0  3  0  0  0  0  0  0
   49.5180   97.3040   28.1930 C   0  0  0  0  0  1  0  0  0  0  0  0
   53.1260   97.4390   27.1290 C   0  0  0  0  0  0  0  0  0  0  0  0
   53.5910   98.4130   27.9860 C   0  0  0  0  0  3  0  0  0  0  0  0
   52.7630   99.0070   28.9020 C   0  0  0  0  0  3  0  0  0  0  0  0
   53.9820   96.8460   26.2010 O   0  0  0  0  0  0  0  0  0  0  0  0
   55.3750   96.9410   26.3500 C   0  0  0  0  0  1  0  0  0  0  0  0
   46.3900  101.1830   30.4360 C   0  0  0  0  0  2  0  0  0  0  0  0
   45.9470  102.3570   31.2520 C   0  0  0  0  0  2  0  0  0  0  0  0
   45.9980  102.1810   32.7220 C   0  0  0  0  0  2  0  0  0  0  0  0
   46.4810  103.2940   33.4580 N   0  0  0  0  0  4  0  0  0  0  0  0
   45.4400  103.9860   34.2340 C   0  0  0  0  0  2  0  0  0  0  0  0
   45.9800  105.4000   34.4620 C   0  0  0  0  0  2  0  0  0  0  0  0
   47.3220  105.5010   34.1420 O   0  0  0  0  0  0  0  0  0  0  0  0
   48.0610  104.4930   34.7620 C   0  0  0  0  0  2  0  0  0  0  0  0
   47.5790  103.0950   34.3330 C   0  0  0  0  0  2  0  0  0  0  0  0
   46.7940  104.0200   32.7430 H   0  0  0  0  0  0  0  0  0  0  0  0
  1 10  1  6  0  0  0
  2 26  1  0  0  0  0
  2  1  1  0  0  0  0
  3  2  1  0  0  0  0
  4  3  2  0  0  0  0
  5  3  1  0  0  0  0
  5  7  1  0  0  0  0
  6  5  2  0  0  0  0
  7  8  2  0  0  0  0
  7  1  1  0  0  0  0
  8  9  1  0  0  0  0
 10 16  1  0  0  0  0
 11 10  2  0  0  0  0
 11 12  1  0  0  0  0
 12 14  2  0  0  0  0
 13 12  1  0  0  0  0
 14 15  1  0  0  0  0
 16 15  2  0  0  0  0
 17  8  1  0  0  0  0
 18 20  1  0  0  0  0
 18 17  2  0  0  0  0
 19 18  1  0  0  0  0
 21 19  2  0  0  0  0
 21 22  1  0  0  0  0
 22 23  2  0  0  0  0
 23 17  1  0  0  0  0
 24 25  1  0  0  0  0
 24 21  1  0  0  0  0
 26 27  1  0  0  0  0
 27 28  1  0  0  0  0
 28 29  1  0  0  0  0
 29 30  1  0  0  0  0
 29 34  1  0  0  0  0
 30 31  1  0  0  0  0
 32 31  1  0  0  0  0
 32 33  1  0  0  0  0
 34 33  1  0  0  0  0
 35 29  1  0  0  0  0
M  END
>  <Pose>
1

>  <Score>
-7.852

$$$$
