MODEL 1
REMARK VINA RESULT:    -6.831      0.000      0.000
REMARK INTER + INTRA:         -11.643
REMARK INTER:                  -9.626
REMARK INTRA:                  -2.017
REMARK UNBOUND:                -2.017
REMARK  7 active torsions:
REMARK  status: ('A' for Active; 'I' for Inactive)
REMARK    1  A    between atoms: C_4  and  C_8 
REMARK    2  A    between atoms: N_9  and  C_29 
REMARK    3  A    between atoms: C_15  and  C_17 
REMARK    4  A    between atoms: N_19  and  C_22 
REMARK    5  A    between atoms: C_29  and  C_30 
REMARK    6  A    between atoms: C_30  and  C_31 
REMARK    7  A    between atoms: C_31  and  N_32 
ROOT
ATOM      1  C   UNK d   1      52.753  84.189  19.371  0.00  0.00     0.161 C 
ATOM      2  N   UNK d   1      53.726  83.555  18.564  0.00  0.00    -0.332 N 
ATOM      3  C   UNK d   1      54.382  82.543  19.311  0.00  0.00     0.295 C 
ATOM      4  O   UNK d   1      55.368  81.857  18.899  0.00  0.00    -0.264 OA
ATOM      5  C   UNK d   1      53.733  82.429  20.599  0.00  0.00     0.250 C 
ATOM      6  O   UNK d   1      54.122  81.601  21.466  0.00  0.00    -0.282 OA
ATOM      7  C   UNK d   1      52.658  83.403  20.628  0.00  0.00     0.062 C 
ATOM      8  C   UNK d   1      51.818  83.557  21.627  0.00  0.00     0.133 C 
ATOM      9  O   UNK d   1      50.881  84.562  21.565  0.00  0.00    -0.190 OA
ENDROOT
BRANCH   1  10
ATOM     10  C   UNK d   1      53.109  85.590  19.622  0.00  0.00    -0.029 A 
ATOM     11  C   UNK d   1      52.522  86.568  18.840  0.00  0.00     0.028 A 
ATOM     12  C   UNK d   1      52.730  87.909  18.957  0.00  0.00     0.011 A 
ATOM     13 Br   UNK d   1      51.890  89.217  17.849  0.00  0.00    -0.051 Br
ATOM     14  C   UNK d   1      53.621  88.320  19.962  0.00  0.00     0.019 A 
ATOM     15  C   UNK d   1      54.226  87.365  20.760  0.00  0.00     0.002 A 
ATOM     16  C   UNK d   1      53.990  86.012  20.614  0.00  0.00     0.009 A 
ENDBRANCH   1  10
BRANCH   8  17
ATOM     17  C   UNK d   1      51.858  82.690  22.778  0.00  0.00     0.045 A 
ATOM     18  C   UNK d   1      52.530  83.002  23.973  0.00  0.00     0.047 A 
ATOM     19  N   UNK d   1      52.343  82.011  24.853  0.00  0.00    -0.238 N 
ATOM     20  C   UNK d   1      53.314  84.254  24.183  0.00  0.00     0.071 C 
ATOM     21  N   UNK d   1      51.589  81.104  24.259  0.00  0.00    -0.179 NA
ATOM     22  C   UNK d   1      51.274  81.476  23.010  0.00  0.00     0.155 A 
BRANCH  19  23
ATOM     23  C   UNK d   1      52.838  81.935  26.182  0.00  0.00     0.058 A 
ATOM     24  C   UNK d   1      52.044  82.405  27.219  0.00  0.00     0.031 A 
ATOM     25  C   UNK d   1      52.457  82.353  28.536  0.00  0.00     0.002 A 
ATOM     26  C   UNK d   1      53.700  81.820  28.877  0.00  0.00     0.000 A 
ATOM     27  C   UNK d   1      54.492  81.351  27.844  0.00  0.00     0.002 A 
ATOM     28  C   UNK d   1      54.059  81.415  26.545  0.00  0.00     0.031 A 
ENDBRANCH  19  23
ENDBRANCH   8  17
BRANCH   2  29
ATOM     29  C   UNK d   1      54.035  83.850  17.136  0.00  0.00     0.129 C 
BRANCH  29  30
ATOM     30  C   UNK d   1      53.287  82.889  16.248  0.00  0.00     0.048 C 
BRANCH  30  31
ATOM     31  C   UNK d   1      54.179  81.953  15.497  0.00  0.00     0.235 C 
BRANCH  31  32
ATOM     32  N   UNK d   1      54.588  80.777  16.192  0.00  0.00    -0.079 N 
ATOM     33  C   UNK d   1      53.619  79.738  16.306  0.00  0.00     0.269 C 
ATOM     34  C   UNK d   1      55.784  80.203  15.554  0.00  0.00     0.269 C 
ATOM     35  H   UNK d   1      54.917  81.039  17.170  0.00  0.00     0.278 HD
ENDBRANCH  31  32
ENDBRANCH  30  31
ENDBRANCH  29  30
ENDBRANCH   2  29
TORSDOF 7
ENDMDL
