MODEL 1
REMARK VINA RESULT:    -7.729      0.000      0.000
REMARK INTER + INTRA:          -7.995
REMARK INTER:                  -8.181
REMARK INTRA:                   0.186
REMARK UNBOUND:                 0.186
REMARK  1 active torsions:
REMARK  status: ('A' for Active; 'I' for Inactive)
REMARK    1  A    between atoms: C_5  and  C_8 
ROOT
ATOM      1  C   UNK d   1      54.050  86.412  20.423  0.00  0.00     0.102 A 
ATOM      2  C   UNK d   1      54.357  86.536  21.831  0.00  0.00     0.068 A 
ATOM      3  C   UNK d   1      53.931  85.603  22.734  0.00  0.00     0.124 A 
ATOM      4  N   UNK d   1      53.183  84.446  22.340  0.00  0.00    -0.343 N 
ATOM      5  C   UNK d   1      52.912  84.327  20.949  0.00  0.00     0.048 A 
ATOM      6  C   UNK d   1      53.310  85.201  20.067  0.00  0.00     0.055 A 
ATOM      7  C   UNK d   1      52.883  84.742  18.710  0.00  0.00     0.292 A 
ATOM      8  O   UNK d   1      53.132  85.395  17.652  0.00  0.00    -0.259 OA
ATOM      9  O   UNK d   1      52.231  83.569  18.900  0.00  0.00    -0.312 OA
ATOM     10  C   UNK d   1      52.147  83.223  20.241  0.00  0.00     0.237 A 
ATOM     11  N   UNK d   1      54.233  85.763  24.063  0.00  0.00    -0.289 N 
ATOM     12  C   UNK d   1      54.939  86.820  24.479  0.00  0.00     0.332 A 
ATOM     13  O   UNK d   1      55.205  86.948  25.707  0.00  0.00    -0.246 OA
ATOM     14  N   UNK d   1      55.354  87.732  23.583  0.00  0.00    -0.270 N 
ATOM     15  C   UNK d   1      55.103  87.651  22.279  0.00  0.00     0.262 A 
ATOM     16  O   UNK d   1      55.487  88.498  21.434  0.00  0.00    -0.267 OA
ATOM     17  C   UNK d   1      56.122  88.872  24.085  0.00  0.00     0.164 C 
ATOM     18  C   UNK d   1      53.750  84.736  24.974  0.00  0.00     0.163 C 
ATOM     19  H   UNK d   1      52.877  83.764  23.056  0.00  0.00     0.167 HD
ENDROOT
BRANCH   1  20
ATOM     20  C   UNK d   1      53.526  87.612  19.779  0.00  0.00    -0.045 A 
ATOM     21  C   UNK d   1      54.311  88.448  19.043  0.00  0.00     0.009 A 
ATOM     22  C   UNK d   1      53.779  89.600  18.439  0.00  0.00     0.019 A 
ATOM     23  C   UNK d   1      52.447  89.888  18.591  0.00  0.00     0.011 A 
ATOM     24 Br   UNK d   1      51.673  91.453  17.783  0.00  0.00    -0.051 Br
ATOM     25  C   UNK d   1      51.650  89.059  19.325  0.00  0.00     0.019 A 
ATOM     26  C   UNK d   1      52.194  87.910  19.925  0.00  0.00     0.009 A 
ENDBRANCH   1  20
TORSDOF 1
ENDMDL
