MODEL 1
REMARK VINA RESULT:    -7.966      0.000      0.000
REMARK INTER + INTRA:         -12.452
REMARK INTER:                 -11.225
REMARK INTRA:                  -1.227
REMARK UNBOUND:                -1.227
REMARK  8 active torsions:
REMARK  status: ('A' for Active; 'I' for Inactive)
REMARK    1  A    between atoms: C_3  and  O_32 
REMARK    2  A    between atoms: C_6  and  C_8 
REMARK    3  A    between atoms: N_9  and  N_10 
REMARK       I    between atoms: N_10  and  C_11 
REMARK    4  A    between atoms: C_11  and  C_13 
REMARK    5  A    between atoms: N_14  and  C_25 
REMARK    6  A    between atoms: C_17  and  C_18 
REMARK    7  A    between atoms: C_18  and  N_19 
REMARK    8  A    between atoms: C_29  and  N_30 
ROOT
ATOM      1  C   UNK d   1      53.903  82.611  20.419  0.00  0.00     0.160 A 
ATOM      2  N   UNK d   1      53.622  81.842  21.519  0.00  0.00    -0.184 N 
ATOM      3  N   UNK d   1      53.842  80.598  21.147  0.00  0.00    -0.058 NA
ATOM      4  N   UNK d   1      54.236  80.526  19.918  0.00  0.00    -0.132 NA
ATOM      5  C   UNK d   1      54.294  81.785  19.399  0.00  0.00     0.121 A 
ENDROOT
BRANCH   1   6
ATOM      6  C   UNK d   1      53.764  84.060  20.475  0.00  0.00     0.292 C 
ATOM      7  N   UNK d   1      52.713  84.832  19.932  0.00  0.00    -0.242 N 
ATOM      8  H   UNK d   1      51.885  84.464  19.413  0.00  0.00     0.192 HD
ATOM      9  O   UNK d   1      54.669  84.760  21.071  0.00  0.00    -0.264 OA
BRANCH   7  10
ATOM     10  N   UNK d   1      52.801  86.253  20.117  0.00  0.00    -0.183 NA
ATOM     11  C   UNK d   1      53.080  87.038  19.151  0.00  0.00     0.150 C 
BRANCH  11  12
ATOM     12  C   UNK d   1      53.169  88.493  19.342  0.00  0.00    -0.014 A 
ATOM     13  C   UNK d   1      52.243  89.332  18.806  0.00  0.00     0.035 A 
ATOM     14  C   UNK d   1      52.329  90.701  18.986  0.00  0.00     0.046 A 
ATOM     15  C   UNK d   1      53.351  91.258  19.712  0.00  0.00     0.100 A 
ATOM     16 Br   UNK d   1      51.013  91.877  18.223  0.00  0.00    -0.048 Br
ATOM     17  C   UNK d   1      54.293  90.410  20.258  0.00  0.00     0.046 A 
ATOM     18 Br   UNK d   1      55.720  91.174  21.270  0.00  0.00    -0.048 Br
ATOM     19  C   UNK d   1      54.199  89.045  20.072  0.00  0.00     0.035 A 
BRANCH  15  20
ATOM     20  O   UNK d   1      53.403  92.635  19.873  0.00  0.00    -0.358 OA
ATOM     21  H   UNK d   1      52.919  93.280  19.273  0.00  0.00     0.217 HD
ENDBRANCH  15  20
ENDBRANCH  11  12
ENDBRANCH   7  10
ENDBRANCH   1   6
BRANCH   2  22
ATOM     22  C   UNK d   1      53.185  82.292  22.784  0.00  0.00     0.230 A 
ATOM     23  N   UNK d   1      53.909  82.638  23.877  0.00  0.00    -0.081 NA
ATOM     24  O   UNK d   1      53.107  82.992  24.816  0.00  0.00    -0.103 OA
ATOM     25  N   UNK d   1      51.865  82.918  24.457  0.00  0.00    -0.083 NA
ATOM     26  C   UNK d   1      51.870  82.476  23.170  0.00  0.00     0.201 A 
BRANCH  26  27
ATOM     27  N   UNK d   1      50.702  82.257  22.396  0.00  0.00    -0.379 N 
ATOM     28  H   UNK d   1      50.718  82.542  21.399  0.00  0.00     0.158 HD
ATOM     29  H   UNK d   1      49.834  81.829  22.767  0.00  0.00     0.158 HD
ENDBRANCH  26  27
ENDBRANCH   2  22
BRANCH   5  30
ATOM     30  C   UNK d   1      54.675  82.190  18.047  0.00  0.00     0.336 C 
BRANCH  30  31
ATOM     31  N   UNK d   1      53.576  82.722  17.254  0.00  0.00     0.098 N 
ATOM     32  C   UNK d   1      54.042  83.830  16.430  0.00  0.00     0.299 C 
ATOM     33  C   UNK d   1      54.496  83.367  15.075  0.00  0.00     0.198 C 
ATOM     34  O   UNK d   1      54.858  82.033  15.026  0.00  0.00    -0.388 OA
ATOM     35  C   UNK d   1      53.856  81.150  15.398  0.00  0.00     0.198 C 
ATOM     36  C   UNK d   1      52.930  81.726  16.436  0.00  0.00     0.299 C 
ENDBRANCH  30  31
ENDBRANCH   5  30
TORSDOF 8
ENDMDL
