MODEL 1
REMARK VINA RESULT:    -9.071      0.000      0.000
REMARK INTER + INTRA:          -9.740
REMARK INTER:                 -10.132
REMARK INTRA:                   0.392
REMARK UNBOUND:                 0.392
REMARK  2 active torsions:
REMARK  status: ('A' for Active; 'I' for Inactive)
REMARK    1  A    between atoms: C_3  and  N_11 
REMARK    2  A    between atoms: C_6  and  N_8 
ROOT
ATOM      1  N   UNK d   1      54.759  89.205  20.027  0.00  0.00    -0.250 N 
ATOM      2  C   UNK d   1      55.186  90.132  19.048  0.00  0.00     0.239 C 
ATOM      3  O   UNK d   1      56.349  90.555  18.880  0.00  0.00    -0.272 OA
ATOM      4  C   UNK d   1      54.046  90.562  18.210  0.00  0.00     0.127 C 
ATOM      5  C   UNK d   1      53.533  91.855  18.804  0.00  0.00     0.159 C 
ATOM      6  O   UNK d   1      52.882  91.350  19.961  0.00  0.00    -0.371 OA
ATOM      7  C   UNK d   1      51.956  90.525  19.268  0.00  0.00     0.159 C 
ATOM      8  C   UNK d   1      52.910  89.603  18.558  0.00  0.00     0.127 C 
ATOM      9  C   UNK d   1      53.507  88.694  19.562  0.00  0.00     0.239 C 
ATOM     10  O   UNK d   1      52.983  87.605  19.964  0.00  0.00    -0.272 OA
ATOM     11  C   UNK d   1      51.360  91.527  18.360  0.00  0.00     0.004 C 
ATOM     12  C   UNK d   1      52.358  92.348  18.043  0.00  0.00     0.004 C 
ENDROOT
BRANCH   1  13
ATOM     13  C   UNK d   1      55.364  88.794  21.244  0.00  0.00     0.062 A 
ATOM     14  C   UNK d   1      55.571  89.674  22.281  0.00  0.00     0.040 A 
ATOM     15 Br   UNK d   1      54.992  91.479  22.006  0.00  0.00    -0.049 Br
ATOM     16  C   UNK d   1      56.168  89.298  23.482  0.00  0.00     0.057 A 
ATOM     17  C   UNK d   1      56.584  87.997  23.682  0.00  0.00     0.104 A 
ATOM     18  C   UNK d   1      56.376  87.110  22.639  0.00  0.00     0.038 A 
ATOM     19  C   UNK d   1      55.786  87.480  21.453  0.00  0.00     0.034 A 
BRANCH  17  20
ATOM     20  N   UNK d   1      57.199  87.584  24.896  0.00  0.00    -0.116 N 
ATOM     21  O   UNK d   1      57.592  88.462  25.684  0.00  0.00    -0.532 OA
ATOM     22  O   UNK d   1      57.388  86.279  25.260  0.00  0.00    -0.532 OA
ENDBRANCH  17  20
ENDBRANCH   1  13
TORSDOF 2
ENDMDL
