MODEL 1
REMARK VINA RESULT:    -8.073      0.000      0.000
REMARK INTER + INTRA:         -11.818
REMARK INTER:                 -10.905
REMARK INTRA:                  -0.913
REMARK UNBOUND:                -0.913
REMARK  6 active torsions:
REMARK  status: ('A' for Active; 'I' for Inactive)
REMARK    1  A    between atoms: C_4  and  C_8 
REMARK    2  A    between atoms: N_9  and  C_26 
REMARK    3  A    between atoms: C_15  and  C_17 
REMARK    4  A    between atoms: C_26  and  C_27 
REMARK    5  A    between atoms: C_27  and  C_28 
REMARK    6  A    between atoms: C_28  and  N_29 
ROOT
ATOM      1  C   UNK d   1      53.907  84.692  20.924  0.00  0.00     0.161 C 
ATOM      2  N   UNK d   1      53.761  83.877  19.737  0.00  0.00    -0.332 N 
ATOM      3  C   UNK d   1      52.632  84.370  19.037  0.00  0.00     0.295 C 
ATOM      4  O   UNK d   1      51.874  83.745  18.254  0.00  0.00    -0.264 OA
ATOM      5  C   UNK d   1      52.511  85.780  19.408  0.00  0.00     0.251 C 
ATOM      6  O   UNK d   1      51.662  86.623  19.039  0.00  0.00    -0.282 OA
ATOM      7  C   UNK d   1      53.622  86.040  20.338  0.00  0.00     0.064 C 
ATOM      8  C   UNK d   1      54.161  87.215  20.570  0.00  0.00     0.153 C 
ATOM      9  O   UNK d   1      55.182  87.267  21.528  0.00  0.00    -0.188 OA
ENDROOT
BRANCH   1  10
ATOM     10  C   UNK d   1      53.008  84.326  22.023  0.00  0.00    -0.029 A 
ATOM     11  C   UNK d   1      51.892  83.539  21.902  0.00  0.00     0.028 A 
ATOM     12  C   UNK d   1      51.073  83.216  22.986  0.00  0.00     0.011 A 
ATOM     13 Br   UNK d   1      49.522  82.105  22.734  0.00  0.00    -0.051 Br
ATOM     14  C   UNK d   1      51.376  83.697  24.241  0.00  0.00     0.019 A 
ATOM     15  C   UNK d   1      52.492  84.490  24.391  0.00  0.00     0.002 A 
ATOM     16  C   UNK d   1      53.290  84.801  23.315  0.00  0.00     0.009 A 
ENDBRANCH   1  10
BRANCH   8  17
ATOM     17  C   UNK d   1      53.735  88.439  19.862  0.00  0.00     0.114 A 
ATOM     18  O   UNK d   1      52.657  89.145  20.029  0.00  0.00    -0.307 OA
ATOM     19  C   UNK d   1      52.622  90.175  19.214  0.00  0.00     0.086 A 
ATOM     20  C   UNK d   1      53.767  90.167  18.432  0.00  0.00     0.001 A 
ATOM     21  C   UNK d   1      51.715  91.199  19.006  0.00  0.00     0.038 A 
ATOM     22  C   UNK d   1      54.463  89.054  18.861  0.00  0.00     0.054 A 
ATOM     23  C   UNK d   1      53.975  91.150  17.489  0.00  0.00     0.014 A 
ATOM     24  C   UNK d   1      53.072  92.169  17.282  0.00  0.00     0.001 A 
ATOM     25  C   UNK d   1      51.929  92.191  18.051  0.00  0.00     0.003 A 
ENDBRANCH   8  17
BRANCH   2  26
ATOM     26  C   UNK d   1      54.576  82.765  19.255  0.00  0.00     0.129 C 
BRANCH  26  27
ATOM     27  C   UNK d   1      55.136  83.075  17.879  0.00  0.00     0.048 C 
BRANCH  27  28
ATOM     28  C   UNK d   1      54.670  82.102  16.828  0.00  0.00     0.235 C 
BRANCH  28  29
ATOM     29  N   UNK d   1      53.687  82.723  16.000  0.00  0.00    -0.079 N 
ATOM     30  C   UNK d   1      54.256  83.522  14.935  0.00  0.00     0.269 C 
ATOM     31  C   UNK d   1      52.729  81.835  15.415  0.00  0.00     0.269 C 
ATOM     32  H   UNK d   1      53.144  83.403  16.613  0.00  0.00     0.278 HD
ENDBRANCH  28  29
ENDBRANCH  27  28
ENDBRANCH  26  27
ENDBRANCH   2  26
TORSDOF 6
ENDMDL
