MODEL 1
REMARK VINA RESULT:    -9.044      0.000      0.000
REMARK INTER + INTRA:         -12.599
REMARK INTER:                 -12.480
REMARK INTRA:                  -0.119
REMARK UNBOUND:                -0.119
REMARK  7 active torsions:
REMARK  status: ('A' for Active; 'I' for Inactive)
REMARK    1  A    between atoms: C_4  and  C_8 
REMARK    2  A    between atoms: C_8  and  C_10 
REMARK    3  A    between atoms: C_10  and  N_11 
REMARK    4  A    between atoms: N_18  and  C_21 
REMARK    5  A    between atoms: C_19  and  N_20 
REMARK    6  A    between atoms: C_21  and  C_22 
REMARK    7  A    between atoms: C_22  and  N_23 
ROOT
ATOM      1  N   UNK d   1      53.329  87.743  19.647  0.00  0.00    -0.175 N 
ATOM      2  C   UNK d   1      53.720  88.792  18.853  0.00  0.00     0.079 A 
ATOM      3  C   UNK d   1      54.783  89.375  19.479  0.00  0.00     0.079 A 
ATOM      4  C   UNK d   1      55.397  90.488  18.897  0.00  0.00     0.032 A 
ATOM      5  C   UNK d   1      54.919  90.978  17.700  0.00  0.00     0.002 A 
ATOM      6  C   UNK d   1      53.847  90.391  17.064  0.00  0.00     0.002 A 
ATOM      7  C   UNK d   1      53.242  89.279  17.655  0.00  0.00     0.032 A 
ATOM      8  N   UNK d   1      55.020  88.687  20.618  0.00  0.00    -0.179 N 
ATOM      9  C   UNK d   1      54.143  87.688  20.734  0.00  0.00     0.681 A 
ENDROOT
BRANCH   1  10
ATOM     10  C   UNK d   1      52.264  86.822  19.309  0.00  0.00     0.216 C 
BRANCH  10  11
ATOM     11  C   UNK d   1      52.588  85.415  19.573  0.00  0.00     0.113 C 
ATOM     12  O   UNK d   1      52.123  84.925  20.700  0.00  0.00    -0.194 OA
BRANCH  11  13
ATOM     13  C   UNK d   1      53.339  84.463  18.796  0.00  0.00    -0.001 A 
ATOM     14  C   UNK d   1      53.494  84.482  17.440  0.00  0.00     0.033 A 
ATOM     15  C   UNK d   1      54.236  83.550  16.773  0.00  0.00     0.011 A 
ATOM     16 Br   UNK d   1      54.433  83.626  14.848  0.00  0.00    -0.051 Br
ATOM     17  C   UNK d   1      54.858  82.544  17.476  0.00  0.00     0.019 A 
ATOM     18  C   UNK d   1      54.740  82.471  18.844  0.00  0.00     0.002 A 
ATOM     19  C   UNK d   1      53.990  83.422  19.478  0.00  0.00     0.014 A 
ENDBRANCH  11  13
ENDBRANCH  10  11
ENDBRANCH   1  10
BRANCH   9  20
ATOM     20  N   UNK d   1      54.143  86.768  21.673  0.00  0.00    -0.234 N 
ATOM     21  H   UNK d   1      53.512  86.782  22.470  0.00  0.00     0.174 HD
ATOM     22  H   UNK d   1      54.838  86.011  21.615  0.00  0.00     0.174 HD
ENDBRANCH   9  20
BRANCH   8  23
ATOM     23  C   UNK d   1      56.120  89.028  21.503  0.00  0.00     0.178 C 
BRANCH  23  24
ATOM     24  C   UNK d   1      56.359  88.102  22.624  0.00  0.00     0.293 C 
BRANCH  24  25
ATOM     25  N   UNK d   1      56.609  88.624  23.919  0.00  0.00     0.094 N 
ATOM     26  C   UNK d   1      57.580  87.766  24.645  0.00  0.00     0.298 C 
ATOM     27  C   UNK d   1      57.124  86.346  24.726  0.00  0.00     0.198 C 
ATOM     28  O   UNK d   1      56.001  86.325  25.554  0.00  0.00    -0.388 OA
ATOM     29  C   UNK d   1      55.002  87.139  25.082  0.00  0.00     0.198 C 
ATOM     30  C   UNK d   1      55.421  88.554  24.786  0.00  0.00     0.298 C 
ENDBRANCH  24  25
ENDBRANCH  23  24
ENDBRANCH   8  23
TORSDOF 7
ENDMDL
