/Users/jonathanwahrer/Desktop/Msc/3_Semester/Drug_Design_Praktikum/waehrer_HTS_screening/HTS_experiment/out/docking_results/vina_output/3npc/1325_docked.pdbqt
 OpenBabel03192220213D

 31 34  0  0  1  0  0  0  0  0999 V2000
   55.1610   86.1790   21.7130 C   0  0  1  0  0  3  0  0  0  0  0  0
   54.0080   85.3910   22.0340 N   0  0  0  0  0  0  0  0  0  0  0  0
   53.2320   85.4040   20.7990 C   0  0  0  0  0  0  0  0  0  0  0  0
   52.4100   84.5340   20.4340 O   0  0  0  0  0  0  0  0  0  0  0  0
   53.5860   86.6100   20.0740 C   0  0  0  0  0  0  0  0  0  0  0  0
   53.1580   87.0250   18.9560 O   0  0  0  0  0  0  0  0  0  0  0  0
   54.5780   87.2930   20.9110 C   0  0  0  0  0  0  0  0  0  0  0  0
   54.8640   88.5650   20.8790 C   0  0  0  0  0  0  0  0  0  0  0  0
   55.8840   89.0390   21.7120 O   0  0  0  0  0  1  0  0  0  0  0  0
   56.0440   86.5880   22.7760 C   0  0  0  0  0  0  0  0  0  0  0  0
   57.4180   86.3300   22.6240 C   0  0  0  0  0  3  0  0  0  0  0  0
   58.3540   86.6900   23.5590 C   0  0  0  0  0  3  0  0  0  0  0  0
   57.9790   87.3340   24.7120 C   0  0  0  0  0  0  0  0  0  0  0  0
   59.2590   87.8510   26.0410 Br  0  0  0  0  0  0  0  0  0  0  0  0
   56.6370   87.5900   24.8680 C   0  0  0  0  0  3  0  0  0  0  0  0
   55.6940   87.2270   23.9250 C   0  0  0  0  0  3  0  0  0  0  0  0
   54.1380   89.5010   19.9980 C   0  0  0  0  0  0  0  0  0  0  0  0
   52.8870   89.9110   20.1760 O   0  0  0  0  0  0  0  0  0  0  0  0
   52.5140   90.7380   19.2330 C   0  0  0  0  0  0  0  0  0  0  0  0
   53.5500   90.9220   18.3410 C   0  0  0  0  0  0  0  0  0  0  0  0
   51.3260   91.4290   18.9740 C   0  0  0  0  0  3  0  0  0  0  0  0
   54.5630   90.1270   18.8510 C   0  0  0  0  0  3  0  0  0  0  0  0
   53.4010   91.7540   17.2540 C   0  0  0  0  0  3  0  0  0  0  0  0
   52.2360   92.4400   16.9910 C   0  0  0  0  0  3  0  0  0  0  0  0
   51.1930   92.2570   17.8820 C   0  0  0  0  0  3  0  0  0  0  0  0
   53.6120   84.6440   23.2070 C   0  0  0  0  0  2  0  0  0  0  0  0
   53.1560   85.3940   24.3870 C   0  0  0  0  0  2  0  0  0  0  0  0
   51.8360   85.1060   24.8850 N   0  0  0  0  0  4  0  0  0  0  0  0
   51.2260   83.9910   24.2170 C   0  0  0  0  0  1  0  0  0  0  0  0
   51.7180   85.0920   26.3150 C   0  0  0  0  0  1  0  0  0  0  0  0
   51.2560   85.9560   24.5650 H   0  0  0  0  0  0  0  0  0  0  0  0
  1  2  1  0  0  0  0
  1 10  1  1  0  0  0
  2 26  1  0  0  0  0
  3  2  1  0  0  0  0
  4  3  2  0  0  0  0
  5  3  1  0  0  0  0
  5  7  1  0  0  0  0
  6  5  2  0  0  0  0
  7  1  1  0  0  0  0
  8  7  2  0  0  0  0
  8  9  1  0  0  0  0
 10 16  1  0  0  0  0
 11 10  2  0  0  0  0
 11 12  1  0  0  0  0
 12 13  2  0  0  0  0
 13 15  1  0  0  0  0
 13 14  1  0  0  0  0
 16 15  2  0  0  0  0
 17 18  1  0  0  0  0
 17  8  1  0  0  0  0
 19 18  1  0  0  0  0
 20 22  1  0  0  0  0
 20 19  2  0  0  0  0
 21 19  1  0  0  0  0
 22 17  2  0  0  0  0
 23 20  1  0  0  0  0
 24 23  2  0  0  0  0
 24 25  1  0  0  0  0
 25 21  2  0  0  0  0
 26 27  1  0  0  0  0
 27 28  1  0  0  0  0
 28 30  1  0  0  0  0
 29 28  1  0  0  0  0
 31 28  1  0  0  0  0
M  END
>  <Pose>
1

>  <Score>
-7.716

$$$$
