MODEL 1
REMARK VINA RESULT:    -7.716      0.000      0.000
REMARK INTER + INTRA:         -10.003
REMARK INTER:                  -9.971
REMARK INTRA:                  -0.033
REMARK UNBOUND:                -0.033
REMARK  5 active torsions:
REMARK  status: ('A' for Active; 'I' for Inactive)
REMARK    1  A    between atoms: C_5  and  C_8 
REMARK    2  A    between atoms: N_9  and  C_26 
REMARK    3  A    between atoms: C_15  and  C_17 
REMARK    4  A    between atoms: C_26  and  C_27 
REMARK    5  A    between atoms: C_27  and  N_28 
ROOT
ATOM      1  C   UNK d   1      55.161  86.179  21.713  0.00  0.00     0.161 C 
ATOM      2  N   UNK d   1      54.008  85.391  22.034  0.00  0.00    -0.331 N 
ATOM      3  C   UNK d   1      53.232  85.404  20.799  0.00  0.00     0.295 C 
ATOM      4  O   UNK d   1      52.410  84.534  20.434  0.00  0.00    -0.264 OA
ATOM      5  C   UNK d   1      53.586  86.610  20.074  0.00  0.00     0.251 C 
ATOM      6  O   UNK d   1      53.158  87.025  18.956  0.00  0.00    -0.282 OA
ATOM      7  C   UNK d   1      54.578  87.293  20.911  0.00  0.00     0.064 C 
ATOM      8  C   UNK d   1      54.864  88.565  20.879  0.00  0.00     0.153 C 
ATOM      9  O   UNK d   1      55.884  89.039  21.712  0.00  0.00    -0.188 OA
ENDROOT
BRANCH   1  10
ATOM     10  C   UNK d   1      56.044  86.588  22.776  0.00  0.00    -0.030 A 
ATOM     11  C   UNK d   1      57.418  86.330  22.624  0.00  0.00     0.011 A 
ATOM     12  C   UNK d   1      58.354  86.690  23.559  0.00  0.00     0.019 A 
ATOM     13  C   UNK d   1      57.979  87.334  24.712  0.00  0.00     0.011 A 
ATOM     14 Br   UNK d   1      59.259  87.851  26.041  0.00  0.00    -0.051 Br
ATOM     15  C   UNK d   1      56.637  87.590  24.868  0.00  0.00     0.019 A 
ATOM     16  C   UNK d   1      55.694  87.227  23.925  0.00  0.00     0.011 A 
ENDBRANCH   1  10
BRANCH   8  17
ATOM     17  C   UNK d   1      54.138  89.501  19.998  0.00  0.00     0.114 A 
ATOM     18  O   UNK d   1      52.887  89.911  20.176  0.00  0.00    -0.307 OA
ATOM     19  C   UNK d   1      52.514  90.738  19.233  0.00  0.00     0.086 A 
ATOM     20  C   UNK d   1      53.550  90.922  18.341  0.00  0.00     0.001 A 
ATOM     21  C   UNK d   1      51.326  91.429  18.974  0.00  0.00     0.038 A 
ATOM     22  C   UNK d   1      54.563  90.127  18.851  0.00  0.00     0.054 A 
ATOM     23  C   UNK d   1      53.401  91.754  17.254  0.00  0.00     0.014 A 
ATOM     24  C   UNK d   1      52.236  92.440  16.991  0.00  0.00     0.001 A 
ATOM     25  C   UNK d   1      51.193  92.257  17.882  0.00  0.00     0.003 A 
ENDBRANCH   8  17
BRANCH   2  26
ATOM     26  C   UNK d   1      53.612  84.644  23.207  0.00  0.00     0.155 C 
BRANCH  26  27
ATOM     27  C   UNK d   1      53.156  85.394  24.387  0.00  0.00     0.254 C 
BRANCH  27  28
ATOM     28  N   UNK d   1      51.836  85.106  24.885  0.00  0.00    -0.077 N 
ATOM     29  C   UNK d   1      51.226  83.991  24.217  0.00  0.00     0.269 C 
ATOM     30  C   UNK d   1      51.718  85.092  26.315  0.00  0.00     0.269 C 
ATOM     31  H   UNK d   1      51.256  85.956  24.565  0.00  0.00     0.279 HD
ENDBRANCH  27  28
ENDBRANCH  26  27
ENDBRANCH   2  26
TORSDOF 5
ENDMDL
