MODEL 1
REMARK VINA RESULT:    -8.897      0.000      0.000
REMARK INTER + INTRA:         -11.502
REMARK INTER:                 -10.457
REMARK INTRA:                  -1.044
REMARK UNBOUND:                -1.044
REMARK  3 active torsions:
REMARK  status: ('A' for Active; 'I' for Inactive)
REMARK    1  A    between atoms: C_4  and  C_8 
REMARK    2  A    between atoms: C_16  and  C_17 
REMARK    3  A    between atoms: C_17  and  N_18 
ROOT
ATOM      1  C   UNK d   1      52.343  86.310  18.234  0.00  0.00     0.053 C 
ATOM      2  C   UNK d   1      52.762  87.491  18.692  0.00  0.00     0.127 A 
ATOM      3  O   UNK d   1      53.831  87.728  19.554  0.00  0.00    -0.305 OA
ATOM      4  C   UNK d   1      53.968  89.067  19.798  0.00  0.00     0.101 A 
ATOM      5  C   UNK d   1      52.996  89.784  19.108  0.00  0.00     0.051 A 
ATOM      6  C   UNK d   1      52.988  91.164  19.233  0.00  0.00     0.021 A 
ATOM      7  C   UNK d   1      53.924  91.794  20.021  0.00  0.00     0.041 A 
ATOM      8  C   UNK d   1      54.885  91.041  20.699  0.00  0.00     0.118 A 
ATOM      9  C   UNK d   1      54.916  89.675  20.594  0.00  0.00     0.039 A 
ATOM     10  O   UNK d   1      55.782  91.768  21.466  0.00  0.00    -0.191 OA
ATOM     11  C   UNK d   1      52.187  88.796  18.374  0.00  0.00     0.218 A 
ATOM     12  O   UNK d   1      51.205  89.076  17.640  0.00  0.00    -0.284 OA
ENDROOT
BRANCH   9  13
ATOM     13  C   UNK d   1      55.892  88.927  21.387  0.00  0.00     0.279 C 
BRANCH  13  14
ATOM     14  N   UNK d   1      55.368  88.033  22.355  0.00  0.00    -0.064 N 
ATOM     15  C   UNK d   1      55.432  88.679  23.655  0.00  0.00     0.265 C 
ATOM     16  C   UNK d   1      55.798  87.787  24.790  0.00  0.00     0.299 C 
ATOM     17  N   UNK d   1      56.944  86.974  24.581  0.00  0.00     0.087 N 
ATOM     18  C   UNK d   1      57.323  86.928  23.207  0.00  0.00     0.299 C 
ATOM     19  C   UNK d   1      56.718  85.654  25.132  0.00  0.00     0.310 C 
ATOM     20  C   UNK d   1      56.110  86.794  22.350  0.00  0.00     0.265 C 
ATOM     21  H   UNK d   1      54.363  87.747  22.152  0.00  0.00     0.280 HD
ENDBRANCH  13  14
ENDBRANCH   9  13
BRANCH   1  22
ATOM     22  C   UNK d   1      53.007  85.080  18.618  0.00  0.00    -0.032 A 
ATOM     23  C   UNK d   1      53.854  84.429  17.749  0.00  0.00     0.030 A 
ATOM     24  C   UNK d   1      54.475  83.241  18.126  0.00  0.00     0.011 A 
ATOM     25 Br   UNK d   1      55.642  82.333  16.916  0.00  0.00    -0.051 Br
ATOM     26  C   UNK d   1      54.239  82.710  19.384  0.00  0.00     0.019 A 
ATOM     27  C   UNK d   1      53.385  83.389  20.223  0.00  0.00     0.002 A 
ATOM     28  C   UNK d   1      52.765  84.564  19.868  0.00  0.00     0.011 A 
ENDBRANCH   1  22
TORSDOF 3
ENDMDL
