MODEL 1
REMARK VINA RESULT:    -9.112      0.000      0.000
REMARK INTER + INTRA:         -12.572
REMARK INTER:                 -11.775
REMARK INTRA:                  -0.797
REMARK UNBOUND:                -0.797
REMARK  5 active torsions:
REMARK  status: ('A' for Active; 'I' for Inactive)
REMARK    1  A    between atoms: C_5  and  C_8 
REMARK    2  A    between atoms: N_11  and  C_13 
REMARK    3  A    between atoms: C_13  and  C_14 
REMARK       I    between atoms: C_14  and  N_16 
REMARK    4  A    between atoms: N_16  and  C_17 
REMARK    5  A    between atoms: C_20  and  C_23 
ROOT
ATOM      1  C   UNK d   1      48.786 103.696  31.468  0.00  0.00     0.061 A 
ATOM      2  N   UNK d   1      47.679 103.054  31.909  0.00  0.00    -0.335 N 
ATOM      3  C   UNK d   1      47.177 102.317  30.897  0.00  0.00     0.086 A 
ATOM      4  N   UNK d   1      47.938 102.463  29.790  0.00  0.00    -0.336 N 
ATOM      5  C   UNK d   1      48.925 103.313  30.152  0.00  0.00     0.123 A 
ATOM      6  C   UNK d   1      45.960 101.599  31.354  0.00  0.00     0.078 A 
ATOM      7  C   UNK d   1      45.712 102.051  32.752  0.00  0.00     0.028 A 
ATOM      8  C   UNK d   1      46.872 102.908  33.100  0.00  0.00     0.131 A 
ENDROOT
BRANCH   4   9
ATOM      9  C   UNK d   1      47.759 101.854  28.488  0.00  0.00     0.232 C 
BRANCH   9  10
ATOM     10  C   UNK d   1      48.987 101.099  28.109  0.00  0.00     0.240 C 
ATOM     11  O   UNK d   1      49.718 101.582  27.242  0.00  0.00    -0.271 OA
ATOM     12  N   UNK d   1      49.236  99.888  28.758  0.00  0.00    -0.326 N 
ATOM     13  H   UNK d   1      48.562  99.513  29.507  0.00  0.00     0.169 HD
BRANCH  12  14
ATOM     14  C   UNK d   1      50.361  99.057  28.518  0.00  0.00     0.034 A 
ATOM     15  C   UNK d   1      51.617  99.472  28.978  0.00  0.00     0.030 A 
ATOM     16  C   UNK d   1      52.718  98.710  28.748  0.00  0.00     0.009 A 
ATOM     17  C   UNK d   1      52.632  97.511  28.060  0.00  0.00    -0.058 A 
ATOM     18  C   UNK d   1      51.403  97.115  27.615  0.00  0.00     0.009 A 
ATOM     19  C   UNK d   1      50.250  97.879  27.835  0.00  0.00     0.030 A 
BRANCH  17  20
ATOM     20  C   UNK d   1      53.849  96.695  27.822  0.00  0.00     0.034 C 
ATOM     21  C   UNK d   1      53.583  95.783  26.620  0.00  0.00     0.010 C 
ENDBRANCH  17  20
ENDBRANCH  12  14
ENDBRANCH   9  10
ENDBRANCH   4   9
BRANCH   1  22
ATOM     22  C   UNK d   1      49.684 104.608  32.174  0.00  0.00    -0.008 A 
ATOM     23  C   UNK d   1      50.769 104.130  32.883  0.00  0.00     0.015 A 
ATOM     24  C   UNK d   1      51.632 104.972  33.561  0.00  0.00     0.024 A 
ATOM     25  C   UNK d   1      51.447 106.337  33.558  0.00  0.00     0.034 A 
ATOM     26 Cl   UNK d   1      52.541 107.414  34.417  0.00  0.00    -0.084 Cl
ATOM     27  C   UNK d   1      50.367 106.830  32.856  0.00  0.00     0.024 A 
ATOM     28  C   UNK d   1      49.495 105.974  32.171  0.00  0.00     0.015 A 
ENDBRANCH   1  22
TORSDOF 5
ENDMDL
