/Users/jonathanwahrer/Desktop/Msc/3_Semester/Drug_Design_Praktikum/waehrer_HTS_screening/HTS_experiment/out/docking_results/vina_output/3npc/1343_docked.pdbqt
 OpenBabel03192220233D

 41 44  0  0  1  0  0  0  0  0999 V2000
   53.7830   85.7350   20.6170 C   0  0  0  0  0  0  0  0  0  0  0  0
   54.5040   86.7110   21.2270 N   0  0  0  0  0  0  0  0  0  0  0  0
   54.1890   87.9030   20.6580 C   0  0  0  0  0  0  0  0  0  0  0  0
   54.5850   89.1650   20.8590 N   0  0  0  0  0  0  0  0  0  0  0  0
   54.1010   90.1920   20.1360 C   0  0  0  0  0  0  0  0  0  0  0  0
   53.1850   89.9390   19.1760 N   0  0  0  0  0  0  0  0  0  0  0  0
   52.7450   88.7120   18.9210 C   0  0  0  0  0  0  0  0  0  0  0  0
   53.2460   87.6630   19.6670 C   0  0  0  0  0  0  0  0  0  0  0  0
   53.0360   86.3580   19.6800 N   0  0  0  0  0  0  0  0  0  0  0  0
   53.8230   84.3460   20.9210 N   0  0  0  0  0  0  0  0  0  0  0  0
   54.1590   83.6800   20.2080 H   0  0  0  0  0  0  0  0  0  0  0  0
   53.3940   83.9480   22.2020 N   0  0  0  0  0  0  0  0  0  0  0  0
   52.2940   84.3100   22.7210 C   0  0  0  0  0  3  0  0  0  0  0  0
   51.8240   83.9150   24.0450 C   0  0  0  0  0  0  0  0  0  0  0  0
   50.9020   82.9020   24.1980 C   0  0  0  0  0  0  0  0  0  0  0  0
   50.2490   82.0220   22.6440 Br  0  0  0  0  0  0  0  0  0  0  0  0
   50.4470   82.5180   25.4620 C   0  0  0  0  0  3  0  0  0  0  0  0
   50.9050   83.1400   26.6040 C   0  0  0  0  0  0  0  0  0  0  0  0
   51.8270   84.1540   26.4510 C   0  0  0  0  0  0  0  0  0  0  0  0
   52.2690   84.5240   25.1980 C   0  0  0  0  0  3  0  0  0  0  0  0
   50.4620   82.7700   27.8740 O   0  0  0  0  0  0  0  0  0  0  0  0
   49.2160   83.1330   28.3880 C   0  0  0  0  0  1  0  0  0  0  0  0
   52.2820   84.7740   27.6100 O   0  0  0  0  0  0  0  0  0  0  0  0
   53.5220   84.5390   28.1990 C   0  0  0  0  0  1  0  0  0  0  0  0
   55.4380   86.5110   22.2910 C   0  0  2  0  0  3  0  0  0  0  0  0
   54.9860   86.9450   23.5290 O   0  0  0  0  0  0  0  0  0  0  0  0
   56.0660   87.1770   24.3310 C   0  0  1  0  0  3  0  0  0  0  0  0
   57.3130   87.1780   23.5140 C   0  0  2  0  0  3  0  0  0  0  0  0
   56.7580   87.2270   22.0890 C   0  0  1  0  0  3  0  0  0  0  0  0
   55.9140   88.5690   24.9490 C   0  0  0  0  0  2  0  0  0  0  0  0
   54.6140   88.7330   25.4400 O   0  0  0  0  0  0  0  0  0  0  0  0
   54.4330   89.6790   25.6740 H   0  0  0  0  0  0  0  0  0  0  0  0
   57.9640   85.9320   23.6150 O   0  0  0  0  0  0  0  0  0  0  0  0
   57.8380   85.5310   24.5020 H   0  0  0  0  0  0  0  0  0  0  0  0
   57.5950   86.5370   21.2120 O   0  0  0  0  0  0  0  0  0  0  0  0
   57.9410   87.1550   20.5180 H   0  0  0  0  0  0  0  0  0  0  0  0
   51.7980   88.4190   17.9350 O   0  0  0  0  0  0  0  0  0  0  0  0
   51.9610   87.5760   17.3970 H   0  0  0  0  0  0  0  0  0  0  0  0
   54.5370   91.5400   20.3650 N   0  0  0  0  0  0  0  0  0  0  0  0
   55.4770   91.8890   20.1500 H   0  0  0  0  0  0  0  0  0  0  0  0
   53.8350   92.1890   20.7780 H   0  0  0  0  0  0  0  0  0  0  0  0
  1 10  1  0  0  0  0
  1  2  1  0  0  0  0
  3  4  1  0  0  0  0
  3  2  1  0  0  0  0
  5 39  1  0  0  0  0
  5  4  2  0  0  0  0
  6  5  1  0  0  0  0
  7  6  2  0  0  0  0
  7  8  1  0  0  0  0
  8  9  1  0  0  0  0
  8  3  2  0  0  0  0
  9  1  2  0  0  0  0
 10 12  1  0  0  0  0
 11 10  1  0  0  0  0
 12 13  2  0  0  0  0
 13 14  1  0  0  0  0
 14 15  2  0  0  0  0
 14 20  1  0  0  0  0
 15 17  1  0  0  0  0
 16 15  1  0  0  0  0
 17 18  2  0  0  0  0
 18 21  1  0  0  0  0
 19 18  1  0  0  0  0
 19 23  1  0  0  0  0
 20 19  2  0  0  0  0
 21 22  1  0  0  0  0
 23 24  1  0  0  0  0
 25  2  1  6  0  0  0
 25 26  1  0  0  0  0
 26 27  1  0  0  0  0
 27 30  1  6  0  0  0
 28 33  1  6  0  0  0
 28 27  1  0  0  0  0
 29 35  1  6  0  0  0
 29 25  1  0  0  0  0
 29 28  1  0  0  0  0
 30 31  1  0  0  0  0
 31 32  1  0  0  0  0
 33 34  1  0  0  0  0
 36 35  1  0  0  0  0
 37  7  1  0  0  0  0
 38 37  1  0  0  0  0
 39 41  1  0  0  0  0
 40 39  1  0  0  0  0
M  END
>  <Pose>
1

>  <Score>
-8.304

$$$$
