MODEL 1
REMARK VINA RESULT:    -6.152      0.000      0.000
REMARK INTER + INTRA:          -6.947
REMARK INTER:                  -6.691
REMARK INTRA:                  -0.256
REMARK UNBOUND:                -0.256
REMARK  2 active torsions:
REMARK  status: ('A' for Active; 'I' for Inactive)
REMARK    1  A    between atoms: C_3  and  C_8 
REMARK    2  A    between atoms: C_12  and  N_16 
ROOT
ATOM      1  C   UNK d   1      51.107  83.547  28.569  0.00  0.00     0.084 A 
ATOM      2  C   UNK d   1      49.886  83.499  29.243  0.00  0.00     0.166 A 
ATOM      3  C   UNK d   1      49.277  84.106  30.458  0.00  0.00     0.295 C 
ATOM      4  N   UNK d   1      48.619  85.210  29.714  0.00  0.00    -0.209 NA
ATOM      5  C   UNK d   1      49.443  85.618  28.800  0.00  0.00     0.124 C 
ATOM      6  C   UNK d   1      50.630  84.830  28.916  0.00  0.00     0.146 A 
ATOM      7  C   UNK d   1      51.463  85.432  30.000  0.00  0.00     0.080 C 
ATOM      8  N   UNK d   1      52.143  85.909  30.842  0.00  0.00    -0.196 NA
ATOM      9  O   UNK d   1      48.296  83.231  30.937  0.00  0.00    -0.333 OA
ATOM     10  C   UNK d   1      48.536  83.054  32.285  0.00  0.00     0.199 C 
ATOM     11  C   UNK d   1      49.280  84.327  32.652  0.00  0.00     0.199 C 
ATOM     12  O   UNK d   1      50.058  84.480  31.477  0.00  0.00    -0.333 OA
ATOM     13  C   UNK d   1      48.738  83.175  28.322  0.00  0.00     0.080 C 
ATOM     14  N   UNK d   1      47.851  82.923  27.583  0.00  0.00    -0.196 NA
ENDROOT
BRANCH   1  15
ATOM     15  C   UNK d   1      52.276  82.921  29.239  0.00  0.00    -0.032 A 
ATOM     16  C   UNK d   1      53.564  83.153  28.828  0.00  0.00     0.017 A 
ATOM     17 Br   UNK d   1      53.959  84.315  27.366  0.00  0.00    -0.051 Br
ATOM     18  C   UNK d   1      54.601  82.524  29.504  0.00  0.00     0.019 A 
ATOM     19  C   UNK d   1      54.361  81.669  30.585  0.00  0.00     0.001 A 
ATOM     20  C   UNK d   1      53.063  81.451  30.980  0.00  0.00     0.001 A 
ATOM     21  C   UNK d   1      52.030  82.083  30.301  0.00  0.00     0.009 A 
ENDBRANCH   1  15
BRANCH   5  22
ATOM     22  N   UNK d   1      49.190  86.676  27.848  0.00  0.00    -0.386 N 
ATOM     23  H   UNK d   1      49.640  87.606  27.948  0.00  0.00     0.157 HD
ATOM     24  H   UNK d   1      48.551  86.524  27.046  0.00  0.00     0.157 HD
ENDBRANCH   5  22
TORSDOF 2
ENDMDL
