/Users/jonathanwahrer/Desktop/Msc/3_Semester/Drug_Design_Praktikum/waehrer_HTS_screening/HTS_experiment/out/docking_results/vina_output/3npc/1360_docked.pdbqt
 OpenBabel03192220233D

 34 37  0  0  1  0  0  0  0  0999 V2000
   53.2160   84.1710   27.0120 C   0  0  1  0  0  3  0  0  0  0  0  0
   52.0290   83.9910   27.8070 N   0  0  0  0  0  0  0  0  0  0  0  0
   51.1630   83.2370   26.8710 C   0  0  2  0  0  3  0  0  0  0  0  0
   50.0190   82.8480   27.6010 N   0  0  0  0  0  0  0  0  0  0  0  0
   50.1040   83.4490   28.8970 C   0  0  0  0  0  0  0  0  0  0  0  0
   51.3190   84.1300   28.9950 C   0  0  0  0  0  0  0  0  0  0  0  0
   51.6140   84.7930   30.1670 C   0  0  0  0  0  0  0  0  0  0  0  0
   52.7140   85.4000   30.2320 O   0  0  0  0  0  0  0  0  0  0  0  0
   50.7390   84.7700   31.1790 N   0  0  0  0  0  0  0  0  0  0  0  0
   49.5950   84.1170   31.0580 C   0  0  0  0  0  0  0  0  0  0  0  0
   48.7980   84.1200   32.0350 O   0  0  0  0  0  0  0  0  0  0  0  0
   49.2460   83.4410   29.9210 N   0  0  0  0  0  0  0  0  0  0  0  0
   47.9660   82.7690   29.9170 C   0  0  0  0  0  1  0  0  0  0  0  0
   51.0930   85.4880   32.4080 C   0  0  0  0  0  1  0  0  0  0  0  0
   48.9180   82.0280   27.1650 C   0  0  0  0  0  1  0  0  0  0  0  0
   52.0570   82.2440   26.2580 C   0  0  1  0  0  3  0  0  0  0  0  0
   53.4690   82.6970   26.6580 C   0  0  1  0  0  3  0  0  0  0  0  0
   52.9520   84.9130   25.8000 C   0  0  2  0  0  3  0  0  0  0  0  0
   51.7120   84.8490   25.4070 O   0  0  0  0  0  1  0  0  0  0  0  0
   53.8260   85.7040   24.9630 C   0  0  0  0  0  0  0  0  0  0  0  0
   54.6000   86.7320   25.4470 C   0  0  0  0  0  3  0  0  0  0  0  0
   55.3810   87.4560   24.5810 C   0  0  0  0  0  3  0  0  0  0  0  0
   55.4110   87.1800   23.2220 C   0  0  0  0  0  0  0  0  0  0  0  0
   56.5040   88.2030   22.0430 Br  0  0  0  0  0  0  0  0  0  0  0  0
   54.6300   86.1450   22.7410 C   0  0  0  0  0  3  0  0  0  0  0  0
   53.8440   85.4120   23.5960 C   0  0  0  0  0  3  0  0  0  0  0  0
   54.4250   82.5240   25.5690 C   0  0  0  0  0  0  0  0  0  0  0  0
   55.6450   82.8600   25.7340 O   0  0  0  0  0  0  0  0  0  0  0  0
   54.0610   82.0050   24.3560 O   0  0  0  0  0  0  0  0  0  0  0  0
   54.4610   80.7070   23.9110 C   0  0  0  0  0  1  0  0  0  0  0  0
   51.8550   80.8320   26.5540 C   0  0  0  0  0  0  0  0  0  0  0  0
   52.2050   80.3690   27.6720 O   0  0  0  0  0  0  0  0  0  0  0  0
   51.2840   79.9710   25.6420 O   0  0  0  0  0  0  0  0  0  0  0  0
   50.7930   80.4320   24.4030 C   0  0  0  0  0  1  0  0  0  0  0  0
  1 18  1  6  0  0  0
  1  2  1  0  0  0  0
  2  6  1  0  0  0  0
  3  4  1  1  0  0  0
  3  2  1  0  0  0  0
  4  5  1  0  0  0  0
  5  6  2  0  0  0  0
  5 12  1  0  0  0  0
  6  7  1  0  0  0  0
  7  8  2  0  0  0  0
  7  9  1  0  0  0  0
  9 14  1  0  0  0  0
 10  9  1  0  0  0  0
 10 11  2  0  0  0  0
 12 10  1  0  0  0  0
 13 12  1  0  0  0  0
 15  4  1  0  0  0  0
 16 31  1  1  0  0  0
 16 17  1  0  0  0  0
 16  3  1  0  0  0  0
 17 27  1  6  0  0  0
 17  1  1  0  0  0  0
 18 19  1  6  0  0  0
 20 21  1  0  0  0  0
 20 18  1  0  0  0  0
 22 21  2  0  0  0  0
 23 22  1  0  0  0  0
 24 23  1  0  0  0  0
 25 23  2  0  0  0  0
 25 26  1  0  0  0  0
 26 20  2  0  0  0  0
 27 28  2  0  0  0  0
 29 27  1  0  0  0  0
 30 29  1  0  0  0  0
 31 32  2  0  0  0  0
 33 31  1  0  0  0  0
 34 33  1  0  0  0  0
M  END
>  <Pose>
1

>  <Score>
-6.849

$$$$
