/Users/jonathanwahrer/Desktop/Msc/3_Semester/Drug_Design_Praktikum/waehrer_HTS_screening/HTS_experiment/out/docking_results/vina_output/3npc/1372_docked.pdbqt
 OpenBabel03192220243D

 31 34  0  0  1  0  0  0  0  0999 V2000
   48.2330  103.3330   31.6560 C   0  0  0  0  0  0  0  0  0  0  0  0
   47.5690  102.3380   32.0110 O   0  0  0  0  0  0  0  0  0  0  0  0
   47.7290  104.6230   31.8590 N   0  0  0  0  0  0  0  0  0  0  0  0
   46.6930  105.0880   32.7170 C   0  0  0  0  0  2  0  0  0  0  0  0
   47.1180  106.5190   33.0830 C   0  0  0  0  0  2  0  0  0  0  0  0
   48.6180  106.6800   33.0880 C   0  0  1  0  0  0  0  0  0  0  0  0
   48.9990  108.0240   33.4240 N   0  0  0  0  0  0  0  0  0  0  0  0
   50.4620  108.1130   33.3130 C   0  0  0  0  0  2  0  0  0  0  0  0
   51.1510  107.2870   34.3550 C   0  0  0  0  0  2  0  0  0  0  0  0
   50.3970  106.0630   34.7060 C   0  0  0  0  0  0  0  0  0  0  0  0
   50.6870  105.0860   35.5700 N   0  0  0  0  0  0  0  0  0  0  0  0
   49.6920  104.1770   35.5400 C   0  0  0  0  0  3  0  0  0  0  0  0
   48.7890  104.6050   34.6480 N   0  0  0  0  0  0  0  0  0  0  0  0
   49.1690  105.7680   34.0980 C   0  0  0  0  0  0  0  0  0  0  0  0
   49.2400  106.4400   31.7030 C   0  0  0  0  0  2  0  0  0  0  0  0
   48.2060  105.7180   30.9500 C   0  0  0  0  0  2  0  0  0  0  0  0
   48.6230  108.6820   32.7000 H   0  0  0  0  0  0  0  0  0  0  0  0
   51.5130  104.9690   36.1980 H   0  0  0  0  0  0  0  0  0  0  0  0
   49.5700  103.0910   31.0300 C   0  0  1  0  0  3  0  0  0  0  0  0
   50.6190  103.2650   32.1590 C   0  0  0  0  0  1  0  0  0  0  0  0
   49.7720  101.7310   30.5930 N   0  0  0  0  0  0  0  0  0  0  0  0
   49.8200  101.4490   29.1690 C   0  0  0  0  0  0  0  0  0  0  0  0
   49.7380  102.3500   28.3250 O   0  0  0  0  0  0  0  0  0  0  0  0
   49.8850  100.9800   31.2710 H   0  0  0  0  0  0  0  0  0  0  0  0
   49.9580  100.0300   28.8000 C   0  0  0  0  0  0  0  0  0  0  0  0
   51.2350   99.5700   28.4370 C   0  0  0  0  0  3  0  0  0  0  0  0
   51.4860   98.2750   28.0590 C   0  0  0  0  0  0  0  0  0  0  0  0
   53.2790   97.7360   27.5870 Br  0  0  0  0  0  0  0  0  0  0  0  0
   50.4390   97.3850   28.0330 C   0  0  0  0  0  3  0  0  0  0  0  0
   49.1720   97.8210   28.3840 C   0  0  0  0  0  3  0  0  0  0  0  0
   48.9300   99.1370   28.7640 C   0  0  0  0  0  3  0  0  0  0  0  0
  1  3  1  0  0  0  0
  1  2  2  0  0  0  0
  3  4  1  0  0  0  0
  4  5  1  0  0  0  0
  5  6  1  0  0  0  0
  6 15  1  6  0  0  0
  6  7  1  0  0  0  0
  6 14  1  0  0  0  0
  8  7  1  0  0  0  0
  8  9  1  0  0  0  0
  9 10  1  0  0  0  0
 10 11  1  0  0  0  0
 11 18  1  0  0  0  0
 12 11  1  0  0  0  0
 13 12  2  0  0  0  0
 14 13  1  0  0  0  0
 14 10  2  0  0  0  0
 16 15  1  0  0  0  0
 16  3  1  0  0  0  0
 17  7  1  0  0  0  0
 19  1  1  0  0  0  0
 19 20  1  1  0  0  0
 21 19  1  0  0  0  0
 21 24  1  0  0  0  0
 22 21  1  0  0  0  0
 23 22  2  0  0  0  0
 25 22  1  0  0  0  0
 26 25  2  0  0  0  0
 27 26  1  0  0  0  0
 28 27  1  0  0  0  0
 29 27  2  0  0  0  0
 29 30  1  0  0  0  0
 30 31  2  0  0  0  0
 31 25  1  0  0  0  0
M  END
>  <Pose>
1

>  <Score>
-7.712

$$$$
