MODEL 1
REMARK VINA RESULT:    -9.313      0.000      0.000
REMARK INTER + INTRA:         -13.837
REMARK INTER:                 -12.852
REMARK INTRA:                  -0.984
REMARK UNBOUND:                -0.984
REMARK  7 active torsions:
REMARK  status: ('A' for Active; 'I' for Inactive)
REMARK    1  A    between atoms: C_7  and  C_11 
REMARK    2  A    between atoms: C_11  and  O_12 
REMARK    3  A    between atoms: O_12  and  C_13 
REMARK    4  A    between atoms: C_13  and  C_15 
REMARK    5  A    between atoms: N_17  and  C_26 
REMARK    6  A    between atoms: C_26  and  C_27 
REMARK    7  A    between atoms: C_27  and  O_28 
ROOT
ATOM      1  C   UNK d   1      52.395  87.244  19.282  0.00  0.00     0.315 C 
ATOM      2  O   UNK d   1      51.205  87.424  19.504  0.00  0.00    -0.257 OA
ENDROOT
BRANCH   1   3
ATOM      3  O   UNK d   1      52.618  85.989  18.651  0.00  0.00    -0.310 OA
BRANCH   3   4
ATOM      4  C   UNK d   1      53.118  84.943  19.439  0.00  0.00     0.238 C 
BRANCH   4   5
ATOM      5  C   UNK d   1      53.479  83.838  18.530  0.00  0.00     0.066 A 
ATOM      6  N   UNK d   1      53.513  84.047  17.203  0.00  0.00    -0.233 NA
ATOM      7  C   UNK d   1      53.834  83.079  16.329  0.00  0.00     0.137 A 
ATOM      8  N   UNK d   1      54.137  81.849  16.759  0.00  0.00    -0.272 N 
ATOM      9  C   UNK d   1      53.857  83.331  14.984  0.00  0.00     0.052 A 
ATOM     10  C   UNK d   1      54.463  80.868  15.881  0.00  0.00     0.121 A 
ATOM     11  C   UNK d   1      54.129  81.553  18.075  0.00  0.00     0.255 A 
ATOM     12  C   UNK d   1      54.491  81.104  14.519  0.00  0.00     0.027 A 
ATOM     13 Br   UNK d   1      54.955  79.696  13.291  0.00  0.00    -0.050 Br
ATOM     14  C   UNK d   1      54.182  82.360  14.059  0.00  0.00     0.024 A 
ATOM     15  C   UNK d   1      53.790  82.576  18.972  0.00  0.00     0.104 A 
ATOM     16  O   UNK d   1      54.408  80.410  18.514  0.00  0.00    -0.268 OA
ENDBRANCH   4   5
ENDBRANCH   3   4
ENDBRANCH   1   3
BRANCH   1  17
ATOM     17  C   UNK d   1      53.535  88.095  19.563  0.00  0.00     0.163 A 
ATOM     18  N   UNK d   1      54.259  87.927  20.710  0.00  0.00    -0.163 NA
ATOM     19  N   UNK d   1      55.302  88.688  20.990  0.00  0.00    -0.231 N 
ATOM     20  C   UNK d   1      55.699  89.666  20.158  0.00  0.00     0.274 A 
ATOM     21  O   UNK d   1      56.708  90.396  20.440  0.00  0.00    -0.266 OA
ATOM     22  C   UNK d   1      55.024  89.901  18.984  0.00  0.00     0.046 A 
ATOM     23  C   UNK d   1      53.926  89.081  18.712  0.00  0.00     0.016 A 
ATOM     24  C   UNK d   1      55.447  90.903  18.151  0.00  0.00     0.018 A 
ATOM     25  C   UNK d   1      53.282  89.350  17.529  0.00  0.00     0.015 A 
ATOM     26  C   UNK d   1      53.702  90.364  16.674  0.00  0.00     0.001 A 
ATOM     27  C   UNK d   1      54.788  91.153  16.974  0.00  0.00     0.001 A 
BRANCH  19  28
ATOM     28  C   UNK d   1      56.061  88.501  22.209  0.00  0.00     0.180 C 
BRANCH  28  29
ATOM     29  C   UNK d   1      56.933  87.274  22.161  0.00  0.00     0.186 C 
BRANCH  29  30
ATOM     30  O   UNK d   1      56.240  86.140  21.781  0.00  0.00    -0.399 OA
ATOM     31  H   UNK d   1      56.710  85.362  22.162  0.00  0.00     0.209 HD
ENDBRANCH  29  30
ENDBRANCH  28  29
ENDBRANCH  19  28
ENDBRANCH   1  17
TORSDOF 7
ENDMDL
