/Users/jonathanwahrer/Desktop/Msc/3_Semester/Drug_Design_Praktikum/waehrer_HTS_screening/HTS_experiment/out/docking_results/vina_output/3npc/1386_docked.pdbqt
 OpenBabel03192220243D

 33 36  0  0  1  0  0  0  0  0999 V2000
   53.2240   83.7900   19.0140 C   0  0  0  0  0  0  0  0  0  0  0  0
   51.9730   83.8270   19.0330 O   0  0  0  0  0  0  0  0  0  0  0  0
   53.8870   83.2530   17.8490 N   0  0  0  0  0  0  0  0  0  0  0  0
   53.0890   82.7810   16.7510 C   0  0  0  0  0  2  0  0  0  0  0  0
   53.2690   81.2780   16.6800 C   0  0  2  0  0  3  0  0  0  0  0  0
   54.6150   80.8190   17.1100 C   0  0  2  0  0  0  0  0  0  0  0  0
   55.6830   81.8500   17.0900 C   0  0  0  0  0  2  0  0  0  0  0  0
   55.3140   83.1580   17.7090 C   0  0  0  0  0  2  0  0  0  0  0  0
   55.0410   79.6990   16.1510 C   0  0  0  0  0  1  0  0  0  0  0  0
   54.0450   84.2700   20.1320 C   0  0  0  0  0  2  0  0  0  0  0  0
   53.5320   85.3900   20.9330 C   0  0  0  0  0  2  0  0  0  0  0  0
   53.7710   86.7610   20.4150 C   0  0  0  0  0  0  0  0  0  0  0  0
   53.2510   87.2460   19.2330 N   0  0  0  0  0  0  0  0  0  0  0  0
   53.7050   88.4910   19.0280 C   0  0  0  0  0  0  0  0  0  0  0  0
   53.5090   89.4270   18.0250 C   0  0  0  0  0  3  0  0  0  0  0  0
   54.5300   88.8330   20.0750 C   0  0  0  0  0  0  0  0  0  0  0  0
   54.1190   90.6580   18.0770 C   0  0  0  0  0  0  0  0  0  0  0  0
   53.8350   91.8190   16.7700 Cl  0  0  0  0  0  0  0  0  0  0  0  0
   54.9430   90.9860   19.1360 C   0  0  0  0  0  3  0  0  0  0  0  0
   55.1450   90.0650   20.1360 C   0  0  0  0  0  3  0  0  0  0  0  0
   54.5340   87.7390   20.8910 N   0  0  0  0  0  0  0  0  0  0  0  0
   55.3470   87.7200   22.0940 C   0  0  0  0  0  1  0  0  0  0  0  0
   52.9080   80.8530   15.3500 N   0  0  0  0  0  0  0  0  0  0  0  0
   53.5500   81.3570   14.2780 C   0  0  0  0  0  3  0  0  0  0  0  0
   53.2390   80.9800   12.9920 C   0  0  0  0  0  3  0  0  0  0  0  0
   52.2370   80.0550   12.8040 C   0  0  0  0  0  0  0  0  0  0  0  0
   51.9020   79.6650   11.6380 O   0  0  0  0  0  0  0  0  0  0  0  0
   51.6140   79.5700   13.8900 N   0  0  0  0  0  0  0  0  0  0  0  0
   51.9350   79.9530   15.1270 C   0  0  0  0  0  0  0  0  0  0  0  0
   50.8340   78.8550   13.7910 H   0  0  0  0  0  0  0  0  0  0  0  0
   51.3170   79.4650   16.1160 O   0  0  0  0  0  0  0  0  0  0  0  0
   54.6070   80.2290   18.3840 O   0  0  0  0  0  0  0  0  0  0  0  0
   53.6710   80.3010   18.7500 H   0  0  0  0  0  0  0  0  0  0  0  0
  1  2  2  0  0  0  0
  1 10  1  0  0  0  0
  3  1  1  0  0  0  0
  4  3  1  0  0  0  0
  5 23  1  6  0  0  0
  5  4  1  0  0  0  0
  5  6  1  0  0  0  0
  6  9  1  6  0  0  0
  6 32  1  0  0  0  0
  7  6  1  0  0  0  0
  7  8  1  0  0  0  0
  8  3  1  0  0  0  0
 10 11  1  0  0  0  0
 12 21  1  0  0  0  0
 12 11  1  0  0  0  0
 13 12  2  0  0  0  0
 14 13  1  0  0  0  0
 14 16  1  0  0  0  0
 15 17  1  0  0  0  0
 15 14  2  0  0  0  0
 16 20  2  0  0  0  0
 16 21  1  0  0  0  0
 17 19  2  0  0  0  0
 18 17  1  0  0  0  0
 19 20  1  0  0  0  0
 21 22  1  0  0  0  0
 24 23  1  0  0  0  0
 25 24  2  0  0  0  0
 26 25  1  0  0  0  0
 26 28  1  0  0  0  0
 27 26  2  0  0  0  0
 28 29  1  0  0  0  0
 29 23  1  0  0  0  0
 29 31  2  0  0  0  0
 30 28  1  0  0  0  0
 32 33  1  0  0  0  0
M  END
>  <Pose>
1

>  <Score>
-8.455

$$$$
