MODEL 1
REMARK VINA RESULT:    -8.358      0.000      0.000
REMARK INTER + INTRA:         -10.113
REMARK INTER:                  -9.823
REMARK INTRA:                  -0.290
REMARK UNBOUND:                -0.290
REMARK  3 active torsions:
REMARK  status: ('A' for Active; 'I' for Inactive)
REMARK    1  A    between atoms: C_4  and  C_8 
REMARK       I    between atoms: C_8  and  N_10 
REMARK    2  A    between atoms: N_10  and  C_11 
REMARK    3  A    between atoms: C_11  and  C_12 
REMARK       I    between atoms: C_12  and  N_14 
ROOT
ATOM      1  C   UNK d   1      54.306  85.621  25.522  0.00  0.00     0.237 C 
ATOM      2  O   UNK d   1      54.875  86.590  26.081  0.00  0.00    -0.272 OA
ATOM      3  N   UNK d   1      53.464  84.790  26.277  0.00  0.00    -0.351 N 
ATOM      4  C   UNK d   1      52.777  83.658  25.705  0.00  0.00     0.129 C 
ATOM      5  C   UNK d   1      51.295  83.952  25.797  0.00  0.00     0.068 C 
ATOM      6  C   UNK d   1      50.944  84.360  27.208  0.00  0.00     0.206 C 
ATOM      7  N   UNK d   1      50.453  85.721  27.170  0.00  0.00     0.099 N 
ATOM      8  C   UNK d   1      49.960  86.215  28.409  0.00  0.00     0.277 C 
ATOM      9  C   UNK d   1      49.177  85.274  29.249  0.00  0.00     0.089 C 
ATOM     10  C   UNK d   1      48.926  83.955  28.630  0.00  0.00     0.039 A 
ATOM     11  N   UNK d   1      47.963  83.006  28.836  0.00  0.00    -0.352 N 
ATOM     12  C   UNK d   1      48.227  82.002  27.992  0.00  0.00     0.207 A 
ATOM     13  N   UNK d   1      49.321  82.304  27.274  0.00  0.00    -0.244 NA
ATOM     14  C   UNK d   1      49.788  83.522  27.647  0.00  0.00     0.097 A 
ATOM     15  C   UNK d   1      52.066  84.230  28.187  0.00  0.00     0.068 C 
ATOM     16  C   UNK d   1      53.257  85.049  27.678  0.00  0.00     0.129 C 
ATOM     17  H   UNK d   1      51.243  86.347  26.861  0.00  0.00     0.317 HD
ATOM     18  H   UNK d   1      47.177  83.097  29.545  0.00  0.00     0.166 HD
ENDROOT
BRANCH   1  19
ATOM     19  C   UNK d   1      54.575  85.425  24.073  0.00  0.00     0.225 C 
BRANCH  19  20
ATOM     20  N   UNK d   1      54.546  86.679  23.351  0.00  0.00    -0.348 N 
ATOM     21  C   UNK d   1      55.168  86.832  22.091  0.00  0.00     0.252 C 
ATOM     22  O   UNK d   1      55.756  85.830  21.609  0.00  0.00    -0.268 OA
ATOM     23  H   UNK d   1      54.054  87.493  23.769  0.00  0.00     0.163 HD
BRANCH  21  24
ATOM     24  C   UNK d   1      55.154  88.082  21.345  0.00  0.00     0.033 A 
ATOM     25  C   UNK d   1      54.250  88.352  20.334  0.00  0.00     0.036 A 
ATOM     26  C   UNK d   1      54.260  89.549  19.642  0.00  0.00     0.011 A 
ATOM     27 Br   UNK d   1      52.983  89.835  18.273  0.00  0.00    -0.051 Br
ATOM     28  C   UNK d   1      55.202  90.531  19.953  0.00  0.00     0.019 A 
ATOM     29  C   UNK d   1      56.095  90.245  20.961  0.00  0.00     0.002 A 
ATOM     30  C   UNK d   1      56.091  89.058  21.654  0.00  0.00     0.017 A 
ENDBRANCH  21  24
ENDBRANCH  19  20
ENDBRANCH   1  19
TORSDOF 3
ENDMDL
