/Users/jonathanwahrer/Desktop/Msc/3_Semester/Drug_Design_Praktikum/waehrer_HTS_screening/HTS_experiment/out/docking_results/vina_output/3npc/1388_docked.pdbqt
 OpenBabel03192220243D

 30 33  0  0  1  0  0  0  0  0999 V2000
   54.3060   85.6210   25.5220 C   0  0  0  0  0  0  0  0  0  0  0  0
   54.8750   86.5900   26.0810 O   0  0  0  0  0  0  0  0  0  0  0  0
   53.4640   84.7900   26.2770 N   0  0  0  0  0  0  0  0  0  0  0  0
   52.7770   83.6580   25.7050 C   0  0  0  0  0  2  0  0  0  0  0  0
   51.2950   83.9520   25.7970 C   0  0  0  0  0  2  0  0  0  0  0  0
   50.9440   84.3600   27.2080 C   0  0  1  0  0  0  0  0  0  0  0  0
   50.4530   85.7210   27.1700 N   0  0  0  0  0  0  0  0  0  0  0  0
   49.9600   86.2150   28.4090 C   0  0  0  0  0  2  0  0  0  0  0  0
   49.1770   85.2740   29.2490 C   0  0  0  0  0  2  0  0  0  0  0  0
   48.9260   83.9550   28.6300 C   0  0  0  0  0  0  0  0  0  0  0  0
   47.9630   83.0060   28.8360 N   0  0  0  0  0  0  0  0  0  0  0  0
   48.2270   82.0020   27.9920 C   0  0  0  0  0  3  0  0  0  0  0  0
   49.3210   82.3040   27.2740 N   0  0  0  0  0  0  0  0  0  0  0  0
   49.7880   83.5220   27.6470 C   0  0  0  0  0  0  0  0  0  0  0  0
   52.0660   84.2300   28.1870 C   0  0  0  0  0  2  0  0  0  0  0  0
   53.2570   85.0490   27.6780 C   0  0  0  0  0  2  0  0  0  0  0  0
   51.2430   86.3470   26.8610 H   0  0  0  0  0  0  0  0  0  0  0  0
   47.1770   83.0970   29.5450 H   0  0  0  0  0  0  0  0  0  0  0  0
   54.5750   85.4250   24.0730 C   0  0  0  0  0  2  0  0  0  0  0  0
   54.5460   86.6790   23.3510 N   0  0  0  0  0  0  0  0  0  0  0  0
   55.1680   86.8320   22.0910 C   0  0  0  0  0  0  0  0  0  0  0  0
   55.7560   85.8300   21.6090 O   0  0  0  0  0  0  0  0  0  0  0  0
   54.0540   87.4930   23.7690 H   0  0  0  0  0  0  0  0  0  0  0  0
   55.1540   88.0820   21.3450 C   0  0  0  0  0  0  0  0  0  0  0  0
   54.2500   88.3520   20.3340 C   0  0  0  0  0  3  0  0  0  0  0  0
   54.2600   89.5490   19.6420 C   0  0  0  0  0  0  0  0  0  0  0  0
   52.9830   89.8350   18.2730 Br  0  0  0  0  0  0  0  0  0  0  0  0
   55.2020   90.5310   19.9530 C   0  0  0  0  0  3  0  0  0  0  0  0
   56.0950   90.2450   20.9610 C   0  0  0  0  0  3  0  0  0  0  0  0
   56.0910   89.0580   21.6540 C   0  0  0  0  0  3  0  0  0  0  0  0
  1  2  2  0  0  0  0
  1  3  1  0  0  0  0
  3 16  1  0  0  0  0
  4  5  1  0  0  0  0
  4  3  1  0  0  0  0
  6  5  1  6  0  0  0
  6 14  1  0  0  0  0
  6 15  1  0  0  0  0
  7  6  1  0  0  0  0
  7  8  1  0  0  0  0
  8  9  1  0  0  0  0
 10 11  1  0  0  0  0
 10  9  1  0  0  0  0
 11 18  1  0  0  0  0
 12 11  1  0  0  0  0
 13 14  1  0  0  0  0
 13 12  2  0  0  0  0
 14 10  2  0  0  0  0
 16 15  1  0  0  0  0
 17  7  1  0  0  0  0
 19  1  1  0  0  0  0
 20 23  1  0  0  0  0
 20 19  1  0  0  0  0
 21 20  1  0  0  0  0
 22 21  2  0  0  0  0
 24 30  1  0  0  0  0
 24 21  1  0  0  0  0
 25 24  2  0  0  0  0
 26 28  2  0  0  0  0
 26 25  1  0  0  0  0
 27 26  1  0  0  0  0
 28 29  1  0  0  0  0
 29 30  2  0  0  0  0
M  END
>  <Pose>
1

>  <Score>
-8.358

$$$$
