/Users/jonathanwahrer/Desktop/Msc/3_Semester/Drug_Design_Praktikum/waehrer_HTS_screening/HTS_experiment/out/docking_results/vina_output/3npc/1405_docked.pdbqt
 OpenBabel03192220253D

 27 30  0  0  1  0  0  0  0  0999 V2000
   47.9680   79.8560   29.2080 Br  0  0  0  0  0  0  0  0  0  0  0  0
   48.7100   81.4400   30.0170 C   0  0  0  0  0  0  0  0  0  0  0  0
   49.8290   82.0380   29.5010 C   0  0  0  0  0  3  0  0  0  0  0  0
   50.3420   83.1720   30.0960 C   0  0  0  0  0  0  0  0  0  0  0  0
   49.6960   83.6580   31.2000 C   0  0  0  0  0  0  0  0  0  0  0  0
   48.5440   83.0400   31.7300 C   0  0  0  0  0  3  0  0  0  0  0  0
   48.0480   81.9160   31.1250 C   0  0  0  0  0  3  0  0  0  0  0  0
   50.3410   84.8250   31.6990 N   0  0  0  0  0  0  0  0  0  0  0  0
   51.4440   85.0920   30.8780 C   0  0  0  0  0  0  0  0  0  0  0  0
   52.2490   86.0610   31.0290 O   0  0  0  0  0  0  0  0  0  0  0  0
   51.5060   84.0430   29.8010 C   0  0  2  0  0  0  0  0  0  0  0  0
   51.3780   84.7600   28.5370 C   0  0  0  0  0  0  0  0  0  0  0  0
   52.3860   84.7650   27.6240 C   0  0  0  0  0  0  0  0  0  0  0  0
   51.9520   85.5160   26.5690 N   0  0  0  0  0  0  0  0  0  0  0  0
   50.7360   85.9650   26.7990 N   0  0  0  0  0  0  0  0  0  0  0  0
   50.3440   85.5270   27.9940 C   0  0  0  0  0  0  0  0  0  0  0  0
   49.0500   85.7590   28.7090 C   0  0  0  0  0  1  0  0  0  0  0  0
   53.5960   84.0930   27.8260 O   0  0  0  0  0  0  0  0  0  0  0  0
   53.7140   83.4110   29.0330 C   0  0  0  0  0  0  0  0  0  0  0  0
   52.7820   83.3690   29.9490 C   0  0  0  0  0  0  0  0  0  0  0  0
   53.0810   82.5960   31.1670 C   0  0  0  0  0  0  0  0  0  0  0  0
   53.2960   81.9880   32.1410 N   0  0  0  0  0  0  0  0  0  0  0  0
   49.9330   85.6190   32.8690 C   0  0  0  0  0  1  0  0  0  0  0  0
   50.1320   86.5680   26.1830 H   0  0  0  0  0  0  0  0  0  0  0  0
   54.9520   82.6920   29.3010 N   0  0  0  0  0  0  0  0  0  0  0  0
   55.0980   81.8470   28.7140 H   0  0  0  0  0  0  0  0  0  0  0  0
   55.6290   82.9820   30.0030 H   0  0  0  0  0  0  0  0  0  0  0  0
  1  2  1  0  0  0  0
  2  7  1  0  0  0  0
  3  2  2  0  0  0  0
  3  4  1  0  0  0  0
  4  5  2  0  0  0  0
  5  8  1  0  0  0  0
  5  6  1  0  0  0  0
  7  6  2  0  0  0  0
  8 23  1  0  0  0  0
  9 10  2  0  0  0  0
  9  8  1  0  0  0  0
 11 12  1  6  0  0  0
 11 20  1  0  0  0  0
 11  4  1  0  0  0  0
 11  9  1  0  0  0  0
 13 18  1  0  0  0  0
 13 12  1  0  0  0  0
 14 15  1  0  0  0  0
 14 13  2  0  0  0  0
 15 16  1  0  0  0  0
 16 12  2  0  0  0  0
 16 17  1  0  0  0  0
 18 19  1  0  0  0  0
 19 25  1  0  0  0  0
 19 20  2  0  0  0  0
 20 21  1  0  0  0  0
 21 22  3  0  0  0  0
 24 15  1  0  0  0  0
 25 27  1  0  0  0  0
 26 25  1  0  0  0  0
M  END
>  <Pose>
1

>  <Score>
-6.605

$$$$
