/Users/jonathanwahrer/Desktop/Msc/3_Semester/Drug_Design_Praktikum/waehrer_HTS_screening/HTS_experiment/out/docking_results/vina_output/3npc/1413_docked.pdbqt
 OpenBabel03192220253D

 24 27  0  0  0  0  0  0  0  0999 V2000
   52.2540   99.7650   27.7780 C   0  0  0  0  0  2  0  0  0  0  0  0
   50.9530  100.0910   28.3380 N   0  0  0  0  0  0  0  0  0  0  0  0
   49.8690   99.3140   28.1770 C   0  0  0  0  0  2  0  0  0  0  0  0
   48.6420   99.6660   28.7300 C   0  0  0  0  0  0  0  0  0  0  0  0
   48.5000  100.8240   29.4610 C   0  0  0  0  0  0  0  0  0  0  0  0
   47.4060   99.1010   28.7390 N   0  0  0  0  0  0  0  0  0  0  0  0
   49.5880  101.6100   29.6250 C   0  0  0  0  0  0  0  0  0  0  0  0
   47.2290  100.9520   29.8920 N   0  0  0  0  0  0  0  0  0  0  0  0
   49.4180  103.2100   30.6250 Br  0  0  0  0  0  0  0  0  0  0  0  0
   50.8010  101.2250   29.0560 C   0  0  0  0  0  3  0  0  0  0  0  0
   46.6090   99.8740   29.4240 N   0  0  0  0  0  0  0  0  0  0  0  0
   46.5960  101.9520   30.6650 C   0  0  0  0  0  1  0  0  0  0  0  0
   52.8090   98.4980   28.2460 C   0  0  0  0  0  0  0  0  0  0  0  0
   52.6110   98.2150   29.4670 O   0  0  0  0  0  0  0  0  0  0  0  0
   53.5630   97.5360   27.4490 C   0  0  0  0  0  0  0  0  0  0  0  0
   54.7920   97.8920   26.9690 C   0  0  0  0  0  3  0  0  0  0  0  0
   55.5200   97.0110   26.2120 C   0  0  0  0  0  0  0  0  0  0  0  0
   55.0510   95.7460   25.9070 C   0  0  0  0  0  0  0  0  0  0  0  0
   56.7620   97.3930   25.7380 C   0  0  0  0  0  3  0  0  0  0  0  0
   53.7960   95.4150   26.4110 C   0  0  0  0  0  3  0  0  0  0  0  0
   55.7660   94.8420   25.1480 C   0  0  0  0  0  3  0  0  0  0  0  0
   53.0660   96.2910   27.1670 C   0  0  0  0  0  3  0  0  0  0  0  0
   57.0010   95.2370   24.6820 C   0  0  0  0  0  3  0  0  0  0  0  0
   57.4790   96.4960   24.9800 C   0  0  0  0  0  3  0  0  0  0  0  0
  1 13  1  0  0  0  0
  1  2  1  0  0  0  0
  2 10  1  0  0  0  0
  3  2  1  0  0  0  0
  3  4  1  0  0  0  0
  4  6  1  0  0  0  0
  4  5  2  0  0  0  0
  5  7  1  0  0  0  0
  5  8  1  0  0  0  0
  6 11  2  0  0  0  0
  7  9  1  0  0  0  0
  8 12  1  0  0  0  0
 10  7  2  0  0  0  0
 11  8  1  0  0  0  0
 13 14  2  0  0  0  0
 15 13  1  0  0  0  0
 16 15  2  0  0  0  0
 17 16  1  0  0  0  0
 18 17  1  0  0  0  0
 18 20  1  0  0  0  0
 19 17  2  0  0  0  0
 20 22  2  0  0  0  0
 21 18  2  0  0  0  0
 22 15  1  0  0  0  0
 23 24  2  0  0  0  0
 23 21  1  0  0  0  0
 24 19  1  0  0  0  0
M  END
>  <Pose>
1

>  <Score>
-10.047

$$$$
