MODEL 1
REMARK VINA RESULT:    -7.936      0.000      0.000
REMARK INTER + INTRA:         -11.767
REMARK INTER:                 -10.720
REMARK INTRA:                  -1.047
REMARK UNBOUND:                -1.047
REMARK  6 active torsions:
REMARK  status: ('A' for Active; 'I' for Inactive)
REMARK    1  A    between atoms: C_13  and  C_29 
REMARK    2  A    between atoms: C_15  and  C_16 
REMARK       I    between atoms: C_16  and  N_18 
REMARK    3  A    between atoms: N_18  and  C_19 
REMARK    4  A    between atoms: C_20  and  O_27 
REMARK    5  A    between atoms: C_23  and  O_25 
REMARK    6  A    between atoms: C_29  and  C_30 
REMARK       I    between atoms: C_30  and  N_32 
ROOT
ATOM      1 Cl   UNK d   1      54.601  84.362  16.081  0.00  0.00    -0.084 Cl
ATOM      2  C   UNK d   1      54.507  83.335  17.509  0.00  0.00     0.034 A 
ATOM      3  C   UNK d   1      53.795  83.699  18.620  0.00  0.00     0.036 A 
ATOM      4  C   UNK d   1      53.755  82.859  19.710  0.00  0.00     0.019 A 
ATOM      5  C   UNK d   1      54.439  81.673  19.641  0.00  0.00     0.044 A 
ATOM      6  C   UNK d   1      55.164  81.304  18.504  0.00  0.00     0.032 A 
ATOM      7  C   UNK d   1      55.197  82.145  17.431  0.00  0.00     0.026 A 
ATOM      8  N   UNK d   1      54.301  80.900  20.827  0.00  0.00    -0.324 N 
ATOM      9  C   UNK d   1      53.483  81.646  21.686  0.00  0.00     0.267 A 
ATOM     10  O   UNK d   1      53.152  81.217  22.840  0.00  0.00    -0.270 OA
ATOM     11  C   UNK d   1      53.114  82.916  21.045  0.00  0.00     0.278 A 
ATOM     12  N   UNK d   1      51.682  82.965  20.959  0.00  0.00     0.113 N 
ATOM     13  C   UNK d   1      51.198  83.984  21.838  0.00  0.00     0.232 C 
ATOM     14  C   UNK d   1      52.332  84.379  22.728  0.00  0.00     0.053 C 
ATOM     15  C   UNK d   1      53.531  84.044  21.886  0.00  0.00     0.133 C 
ATOM     16  H   UNK d   1      54.724  79.955  21.026  0.00  0.00     0.169 HD
ATOM     17  H   UNK d   1      51.367  83.069  19.971  0.00  0.00     0.318 HD
ENDROOT
BRANCH  15  18
ATOM     18  C   UNK d   1      54.085  85.226  21.177  0.00  0.00     0.229 C 
ATOM     19  O   UNK d   1      55.292  85.150  20.841  0.00  0.00    -0.273 OA
ATOM     20  N   UNK d   1      53.343  86.376  20.883  0.00  0.00    -0.324 N 
ATOM     21  H   UNK d   1      52.326  86.334  21.201  0.00  0.00     0.169 HD
BRANCH  20  22
ATOM     22  C   UNK d   1      53.752  87.541  20.232  0.00  0.00     0.071 A 
ATOM     23  C   UNK d   1      54.568  88.441  20.902  0.00  0.00     0.095 A 
ATOM     24  C   UNK d   1      55.012  89.611  20.319  0.00  0.00     0.042 A 
ATOM     25  C   UNK d   1      54.659  89.942  19.035  0.00  0.00     0.039 A 
ATOM     26  C   UNK d   1      53.856  89.076  18.351  0.00  0.00     0.070 A 
ATOM     27  C   UNK d   1      53.416  87.898  18.951  0.00  0.00     0.069 A 
BRANCH  23  28
ATOM     28  O   UNK d   1      54.966  88.177  22.200  0.00  0.00    -0.354 OA
ATOM     29  C   UNK d   1      56.258  88.389  22.682  0.00  0.00     0.210 C 
ENDBRANCH  23  28
BRANCH  26  30
ATOM     30  O   UNK d   1      53.479  89.373  17.054  0.00  0.00    -0.356 OA
ATOM     31  C   UNK d   1      54.135  90.355  16.272  0.00  0.00     0.210 C 
ENDBRANCH  26  30
ENDBRANCH  20  22
ENDBRANCH  15  18
BRANCH  13  32
ATOM     32  C   UNK d   1      49.987  83.518  22.629  0.00  0.00     0.138 C 
BRANCH  32  33
ATOM     33  C   UNK d   1      50.087  82.102  23.008  0.00  0.00     0.217 C 
ATOM     34  O   UNK d   1      49.666  81.217  22.247  0.00  0.00    -0.274 OA
ATOM     35  N   UNK d   1      50.665  81.748  24.242  0.00  0.00    -0.370 N 
ATOM     36  H   UNK d   1      51.380  80.990  24.252  0.00  0.00     0.159 HD
ATOM     37  H   UNK d   1      50.425  82.197  25.159  0.00  0.00     0.159 HD
ENDBRANCH  32  33
ENDBRANCH  13  32
TORSDOF 6
ENDMDL
