MODEL 1
REMARK VINA RESULT:    -8.020      0.000      0.000
REMARK INTER + INTRA:          -9.309
REMARK INTER:                  -8.957
REMARK INTRA:                  -0.352
REMARK UNBOUND:                -0.352
REMARK  2 active torsions:
REMARK  status: ('A' for Active; 'I' for Inactive)
REMARK    1  A    between atoms: N_4  and  C_8 
REMARK    2  A    between atoms: C_8  and  C_9 
ROOT
ATOM      1  C   UNK d   1      55.698  89.654  21.953  0.00  0.00     0.168 A 
ATOM      2  N   UNK d   1      55.691  89.618  23.296  0.00  0.00    -0.148 NA
ATOM      3  N   UNK d   1      55.256  88.425  23.734  0.00  0.00    -0.206 N 
ATOM      4  C   UNK d   1      54.981  87.683  22.647  0.00  0.00     0.169 A 
ATOM      5  N   UNK d   1      55.254  88.439  21.567  0.00  0.00    -0.209 NA
ATOM      6  C   UNK d   1      54.513  86.398  22.847  0.00  0.00     0.079 A 
ATOM      7  C   UNK d   1      54.325  85.872  24.111  0.00  0.00     0.162 A 
ATOM      8  N   UNK d   1      53.862  84.606  24.026  0.00  0.00    -0.256 N 
ATOM      9  N   UNK d   1      53.762  84.344  22.736  0.00  0.00    -0.182 NA
ATOM     10  C   UNK d   1      54.142  85.393  21.985  0.00  0.00     0.158 A 
ATOM     11  C   UNK d   1      53.547  83.730  25.152  0.00  0.00     0.182 C 
ATOM     12  N   UNK d   1      54.621  86.670  25.151  0.00  0.00    -0.222 NA
ATOM     13  C   UNK d   1      55.077  87.920  24.969  0.00  0.00     0.239 A 
ENDROOT
BRANCH   1  14
ATOM     14  C   UNK d   1      56.103  90.770  21.055  0.00  0.00     0.232 C 
BRANCH  14  15
ATOM     15  N   UNK d   1      55.178  90.929  19.944  0.00  0.00    -0.272 N 
ATOM     16  C   UNK d   1      53.911  91.385  20.007  0.00  0.00     0.134 A 
ATOM     17  C   UNK d   1      53.379  91.379  18.720  0.00  0.00     0.054 A 
ATOM     18 Br   UNK d   1      51.635  91.910  18.166  0.00  0.00    -0.047 Br
ATOM     19  C   UNK d   1      54.378  90.904  17.897  0.00  0.00     0.069 A 
ATOM     20  N   UNK d   1      55.450  90.642  18.670  0.00  0.00    -0.176 NA
ATOM     21  C   UNK d   1      54.225  90.738  16.432  0.00  0.00     0.074 C 
ENDBRANCH  14  15
ENDBRANCH   1  14
TORSDOF 2
ENDMDL
