MODEL 1
REMARK VINA RESULT:    -8.485      0.000      0.000
REMARK INTER + INTRA:         -10.001
REMARK INTER:                  -9.477
REMARK INTRA:                  -0.524
REMARK UNBOUND:                -0.524
REMARK  2 active torsions:
REMARK  status: ('A' for Active; 'I' for Inactive)
REMARK    1  A    between atoms: N_5  and  C_8 
REMARK    2  A    between atoms: C_8  and  C_9 
REMARK       I    between atoms: C_9  and  N_11 
ROOT
ATOM      1  C   UNK d   1      53.050  85.898  19.426  0.00  0.00     0.171 C 
ATOM      2  O   UNK d   1      52.881  85.570  18.150  0.00  0.00    -0.175 OA
ATOM      3  N   UNK d   1      53.747  84.959  20.170  0.00  0.00    -0.361 N 
ATOM      4  C   UNK d   1      54.087  85.010  21.548  0.00  0.00     0.127 C 
ATOM      5  C   UNK d   1      53.243  84.001  22.328  0.00  0.00     0.061 C 
ATOM      6  C   UNK d   1      52.951  82.795  21.450  0.00  0.00     0.118 C 
ATOM      7  N   UNK d   1      52.939  81.652  22.347  0.00  0.00    -0.324 N 
ATOM      8  C   UNK d   1      51.582  81.521  22.819  0.00  0.00     0.323 C 
ATOM      9  O   UNK d   1      51.212  80.878  23.833  0.00  0.00    -0.247 OA
ATOM     10  N   UNK d   1      50.743  82.263  21.913  0.00  0.00    -0.277 N 
ATOM     11  C   UNK d   1      51.576  82.833  20.911  0.00  0.00     0.254 C 
ATOM     12  O   UNK d   1      51.181  83.269  19.805  0.00  0.00    -0.270 OA
ATOM     13  C   UNK d   1      54.002  82.569  20.410  0.00  0.00     0.061 C 
ATOM     14  C   UNK d   1      54.209  83.726  19.488  0.00  0.00     0.127 C 
ATOM     15  H   UNK d   1      53.741  81.041  22.607  0.00  0.00     0.165 HD
ATOM     16  H   UNK d   1      49.721  82.359  21.984  0.00  0.00     0.173 HD
ENDROOT
BRANCH   1  17
ATOM     17  C   UNK d   1      52.451  87.181  19.735  0.00  0.00     0.216 C 
BRANCH  17  18
ATOM     18  N   UNK d   1      53.094  88.381  19.328  0.00  0.00    -0.341 N 
ATOM     19  C   UNK d   1      54.231  88.856  19.919  0.00  0.00     0.046 A 
ATOM     20  C   UNK d   1      54.613  90.013  19.290  0.00  0.00     0.010 A 
ATOM     21  C   UNK d   1      54.993  88.372  20.983  0.00  0.00     0.030 A 
ATOM     22  C   UNK d   1      53.693  90.248  18.299  0.00  0.00     0.045 A 
ATOM     23  C   UNK d   1      55.748  90.687  19.715  0.00  0.00     0.015 A 
ATOM     24 Br   UNK d   1      53.785  91.755  17.126  0.00  0.00    -0.048 Br
ATOM     25  C   UNK d   1      52.770  89.240  18.333  0.00  0.00     0.027 A 
ATOM     26  C   UNK d   1      51.603  89.098  17.435  0.00  0.00     0.070 C 
ATOM     27  C   UNK d   1      56.493  90.203  20.765  0.00  0.00     0.001 A 
ATOM     28  C   UNK d   1      56.129  89.051  21.405  0.00  0.00     0.002 A 
ENDBRANCH  17  18
ENDBRANCH   1  17
TORSDOF 2
ENDMDL
