MODEL 1
REMARK VINA RESULT:    -7.920      0.000      0.000
REMARK INTER + INTRA:         -11.037
REMARK INTER:                 -10.235
REMARK INTRA:                  -0.803
REMARK UNBOUND:                -0.803
REMARK  5 active torsions:
REMARK  status: ('A' for Active; 'I' for Inactive)
REMARK    1  A    between atoms: N_3  and  C_14 
REMARK    2  A    between atoms: C_14  and  C_15 
REMARK    3  A    between atoms: C_15  and  C_16 
REMARK    4  A    between atoms: C_16  and  C_17 
REMARK    5  A    between atoms: C_17  and  N_18 
ROOT
ATOM      1  C   UNK d   1      53.681  85.163  22.417  0.00  0.00     0.022 C 
ENDROOT
BRANCH   1   2
ATOM      2  C   UNK d   1      54.232  85.447  21.026  0.00  0.00     0.132 C 
BRANCH   2   3
ATOM      3  N   UNK d   1      54.465  86.858  20.830  0.00  0.00    -0.318 N 
ATOM      4  C   UNK d   1      55.492  87.621  21.276  0.00  0.00     0.180 A 
ATOM      5 Br   UNK d   1      56.929  86.927  22.325  0.00  0.00    -0.008 Br
ATOM      6  N   UNK d   1      55.339  88.896  20.877  0.00  0.00    -0.203 NA
ATOM      7  C   UNK d   1      54.198  88.988  20.154  0.00  0.00     0.169 A 
ATOM      8  C   UNK d   1      53.675  87.711  20.141  0.00  0.00     0.152 A 
ATOM      9  N   UNK d   1      53.596  90.029  19.536  0.00  0.00    -0.286 N 
ATOM     10  C   UNK d   1      52.486  87.505  19.460  0.00  0.00     0.280 A 
ATOM     11  N   UNK d   1      51.896  88.543  18.850  0.00  0.00    -0.273 N 
ATOM     12  O   UNK d   1      52.024  86.342  19.457  0.00  0.00    -0.265 OA
ATOM     13  C   UNK d   1      52.443  89.790  18.886  0.00  0.00     0.330 A 
ATOM     14  H   UNK d   1      50.997  88.397  18.333  0.00  0.00     0.173 HD
ATOM     15  O   UNK d   1      51.825  90.709  18.286  0.00  0.00    -0.246 OA
ATOM     16  C   UNK d   1      54.160  91.365  19.561  0.00  0.00     0.163 C 
ENDBRANCH   2   3
ENDBRANCH   1   2
BRANCH   1  17
ATOM     17  C   UNK d   1      52.684  84.035  22.384  0.00  0.00     0.022 C 
BRANCH  17  18
ATOM     18  C   UNK d   1      52.974  82.911  23.333  0.00  0.00     0.132 C 
BRANCH  18  19
ATOM     19  N   UNK d   1      52.429  83.190  24.619  0.00  0.00    -0.318 N 
ATOM     20  C   UNK d   1      52.991  83.704  25.711  0.00  0.00     0.152 A 
ATOM     21  C   UNK d   1      52.024  83.816  26.703  0.00  0.00     0.169 A 
ATOM     22  C   UNK d   1      54.261  84.111  26.029  0.00  0.00     0.280 A 
ATOM     23  N   UNK d   1      50.899  83.357  26.163  0.00  0.00    -0.203 NA
ATOM     24  N   UNK d   1      52.332  84.302  27.909  0.00  0.00    -0.286 N 
ATOM     25  C   UNK d   1      51.120  82.972  24.905  0.00  0.00     0.180 A 
ATOM     26 Br   UNK d   1      49.783  82.249  23.755  0.00  0.00    -0.008 Br
ATOM     27  C   UNK d   1      53.587  84.697  28.196  0.00  0.00     0.330 A 
ATOM     28  C   UNK d   1      51.336  84.431  28.967  0.00  0.00     0.163 C 
ATOM     29  O   UNK d   1      53.869  85.154  29.332  0.00  0.00    -0.246 OA
ATOM     30  N   UNK d   1      54.528  84.594  27.252  0.00  0.00    -0.273 N 
ATOM     31  H   UNK d   1      55.528  84.893  27.437  0.00  0.00     0.173 HD
ATOM     32  O   UNK d   1      55.152  84.020  25.162  0.00  0.00    -0.265 OA
ENDBRANCH  18  19
ENDBRANCH  17  18
ENDBRANCH   1  17
TORSDOF 5
ENDMDL
