/Users/jonathanwahrer/Desktop/Msc/3_Semester/Drug_Design_Praktikum/waehrer_HTS_screening/HTS_experiment/out/docking_results/vina_output/3npc/1435_docked.pdbqt
 OpenBabel03192220263D

 32 35  0  0  0  0  0  0  0  0999 V2000
   53.6810   85.1630   22.4170 C   0  0  0  0  0  2  0  0  0  0  0  0
   54.2320   85.4470   21.0260 C   0  0  0  0  0  2  0  0  0  0  0  0
   54.4650   86.8580   20.8300 N   0  0  0  0  0  0  0  0  0  0  0  0
   55.4920   87.6210   21.2760 C   0  0  0  0  0  0  0  0  0  0  0  0
   56.9290   86.9270   22.3250 Br  0  0  0  0  0  0  0  0  0  0  0  0
   55.3390   88.8960   20.8770 N   0  0  0  0  0  0  0  0  0  0  0  0
   54.1980   88.9880   20.1540 C   0  0  0  0  0  0  0  0  0  0  0  0
   53.6750   87.7110   20.1410 C   0  0  0  0  0  0  0  0  0  0  0  0
   53.5960   90.0290   19.5360 N   0  0  0  0  0  0  0  0  0  0  0  0
   52.4860   87.5050   19.4600 C   0  0  0  0  0  0  0  0  0  0  0  0
   51.8960   88.5430   18.8500 N   0  0  0  0  0  0  0  0  0  0  0  0
   52.0240   86.3420   19.4570 O   0  0  0  0  0  0  0  0  0  0  0  0
   52.4430   89.7900   18.8860 C   0  0  0  0  0  0  0  0  0  0  0  0
   50.9970   88.3970   18.3330 H   0  0  0  0  0  0  0  0  0  0  0  0
   51.8250   90.7090   18.2860 O   0  0  0  0  0  0  0  0  0  0  0  0
   54.1600   91.3650   19.5610 C   0  0  0  0  0  1  0  0  0  0  0  0
   52.6840   84.0350   22.3840 C   0  0  0  0  0  2  0  0  0  0  0  0
   52.9740   82.9110   23.3330 C   0  0  0  0  0  2  0  0  0  0  0  0
   52.4290   83.1900   24.6190 N   0  0  0  0  0  0  0  0  0  0  0  0
   52.9910   83.7040   25.7110 C   0  0  0  0  0  0  0  0  0  0  0  0
   52.0240   83.8160   26.7030 C   0  0  0  0  0  0  0  0  0  0  0  0
   54.2610   84.1110   26.0290 C   0  0  0  0  0  0  0  0  0  0  0  0
   50.8990   83.3570   26.1630 N   0  0  0  0  0  0  0  0  0  0  0  0
   52.3320   84.3020   27.9090 N   0  0  0  0  0  0  0  0  0  0  0  0
   51.1200   82.9720   24.9050 C   0  0  0  0  0  0  0  0  0  0  0  0
   49.7830   82.2490   23.7550 Br  0  0  0  0  0  0  0  0  0  0  0  0
   53.5870   84.6970   28.1960 C   0  0  0  0  0  0  0  0  0  0  0  0
   51.3360   84.4310   28.9670 C   0  0  0  0  0  1  0  0  0  0  0  0
   53.8690   85.1540   29.3320 O   0  0  0  0  0  0  0  0  0  0  0  0
   54.5280   84.5940   27.2520 N   0  0  0  0  0  0  0  0  0  0  0  0
   55.5280   84.8930   27.4370 H   0  0  0  0  0  0  0  0  0  0  0  0
   55.1520   84.0200   25.1620 O   0  0  0  0  0  0  0  0  0  0  0  0
  2  1  1  0  0  0  0
  3  2  1  0  0  0  0
  3  4  1  0  0  0  0
  4  5  1  0  0  0  0
  6  4  2  0  0  0  0
  7  6  1  0  0  0  0
  8  7  2  0  0  0  0
  8  3  1  0  0  0  0
  9 16  1  0  0  0  0
  9  7  1  0  0  0  0
 10  8  1  0  0  0  0
 11 13  1  0  0  0  0
 11 10  1  0  0  0  0
 12 10  2  0  0  0  0
 13  9  1  0  0  0  0
 14 11  1  0  0  0  0
 15 13  2  0  0  0  0
 17  1  1  0  0  0  0
 17 18  1  0  0  0  0
 18 19  1  0  0  0  0
 19 25  1  0  0  0  0
 19 20  1  0  0  0  0
 20 22  1  0  0  0  0
 20 21  2  0  0  0  0
 21 24  1  0  0  0  0
 22 30  1  0  0  0  0
 23 21  1  0  0  0  0
 24 27  1  0  0  0  0
 24 28  1  0  0  0  0
 25 23  2  0  0  0  0
 26 25  1  0  0  0  0
 27 29  2  0  0  0  0
 30 31  1  0  0  0  0
 30 27  1  0  0  0  0
 32 22  2  0  0  0  0
M  END
>  <Pose>
1

>  <Score>
-7.920

$$$$
