MODEL 1
REMARK VINA RESULT:    -7.664      0.000      0.000
REMARK INTER + INTRA:         -11.522
REMARK INTER:                 -10.352
REMARK INTRA:                  -1.170
REMARK UNBOUND:                -1.170
REMARK  6 active torsions:
REMARK  status: ('A' for Active; 'I' for Inactive)
REMARK    1  A    between atoms: N_3  and  C_14 
REMARK    2  A    between atoms: C_14  and  C_15 
REMARK    3  A    between atoms: C_15  and  O_16 
REMARK    4  A    between atoms: O_16  and  C_17 
REMARK    5  A    between atoms: C_17  and  C_18 
REMARK    6  A    between atoms: C_18  and  N_19 
ROOT
ATOM      1  O   UNK d   1      54.301  83.487  20.665  0.00  0.00    -0.388 OA
ENDROOT
BRANCH   1   2
ATOM      2  C   UNK d   1      53.174  82.784  20.396  0.00  0.00     0.188 C 
BRANCH   2   3
ATOM      3  C   UNK d   1      52.400  82.100  21.446  0.00  0.00     0.158 C 
BRANCH   3   4
ATOM      4  N   UNK d   1      52.844  82.207  22.794  0.00  0.00    -0.316 N 
ATOM      5  C   UNK d   1      53.750  81.513  23.481  0.00  0.00     0.180 A 
ATOM      6 Br   UNK d   1      54.752  80.000  22.879  0.00  0.00    -0.008 Br
ATOM      7  N   UNK d   1      53.878  81.981  24.744  0.00  0.00    -0.203 NA
ATOM      8  C   UNK d   1      53.027  82.992  24.854  0.00  0.00     0.169 A 
ATOM      9  C   UNK d   1      52.370  83.152  23.653  0.00  0.00     0.152 A 
ATOM     10  N   UNK d   1      52.724  83.824  25.889  0.00  0.00    -0.286 N 
ATOM     11  C   UNK d   1      51.413  84.130  23.471  0.00  0.00     0.280 A 
ATOM     12  N   UNK d   1      51.154  84.930  24.544  0.00  0.00    -0.273 N 
ATOM     13  O   UNK d   1      50.800  84.290  22.386  0.00  0.00    -0.265 OA
ATOM     14  C   UNK d   1      51.800  84.766  25.710  0.00  0.00     0.330 A 
ATOM     15  H   UNK d   1      50.432  85.672  24.419  0.00  0.00     0.173 HD
ATOM     16  O   UNK d   1      51.539  85.523  26.689  0.00  0.00    -0.246 OA
ATOM     17  C   UNK d   1      53.392  83.689  27.166  0.00  0.00     0.163 C 
ENDBRANCH   3   4
ENDBRANCH   2   3
ENDBRANCH   1   2
BRANCH   1  18
ATOM     18  C   UNK d   1      54.262  84.747  20.092  0.00  0.00     0.188 C 
BRANCH  18  19
ATOM     19  C   UNK d   1      53.866  85.750  21.134  0.00  0.00     0.158 C 
BRANCH  19  20
ATOM     20  N   UNK d   1      54.170  87.088  20.737  0.00  0.00    -0.316 N 
ATOM     21  C   UNK d   1      53.409  87.866  19.957  0.00  0.00     0.152 A 
ATOM     22  C   UNK d   1      54.048  89.058  19.810  0.00  0.00     0.169 A 
ATOM     23  C   UNK d   1      52.190  87.660  19.342  0.00  0.00     0.280 A 
ATOM     24  N   UNK d   1      55.181  88.976  20.503  0.00  0.00    -0.203 NA
ATOM     25  N   UNK d   1      53.495  90.032  19.068  0.00  0.00    -0.286 N 
ATOM     26  C   UNK d   1      55.291  87.773  21.091  0.00  0.00     0.180 A 
ATOM     27 Br   UNK d   1      56.678  87.091  22.194  0.00  0.00    -0.008 Br
ATOM     28  C   UNK d   1      52.319  89.813  18.484  0.00  0.00     0.330 A 
ATOM     29  C   UNK d   1      54.160  91.307  18.900  0.00  0.00     0.163 C 
ATOM     30  O   UNK d   1      51.812  90.735  17.791  0.00  0.00    -0.246 OA
ATOM     31  N   UNK d   1      51.679  88.657  18.615  0.00  0.00    -0.273 N 
ATOM     32  H   UNK d   1      50.758  88.504  18.149  0.00  0.00     0.173 HD
ATOM     33  O   UNK d   1      51.545  86.568  19.443  0.00  0.00    -0.265 OA
ENDBRANCH  19  20
ENDBRANCH  18  19
ENDBRANCH   1  18
TORSDOF 6
ENDMDL
