MODEL 1
REMARK VINA RESULT:    -9.557      0.000      0.000
REMARK INTER + INTRA:         -13.440
REMARK INTER:                 -12.909
REMARK INTRA:                  -0.531
REMARK UNBOUND:                -0.531
REMARK  6 active torsions:
REMARK  status: ('A' for Active; 'I' for Inactive)
REMARK    1  A    between atoms: C_6  and  C_8 
REMARK       I    between atoms: C_8  and  N_10 
REMARK    2  A    between atoms: N_10  and  C_11 
REMARK    3  A    between atoms: C_11  and  C_12 
REMARK    4  A    between atoms: C_12  and  N_13 
REMARK    5  A    between atoms: C_16  and  C_18 
REMARK    6  A    between atoms: C_20  and  C_23 
ROOT
ATOM      1  N   UNK d   1      55.835  95.959  25.586  0.00  0.00    -0.281 N 
ATOM      2  N   UNK d   1      56.470  97.104  25.771  0.00  0.00     0.005 NA
ATOM      3  N   UNK d   1      55.733  97.932  26.498  0.00  0.00    -0.154 NA
ATOM      4  C   UNK d   1      54.573  97.334  26.811  0.00  0.00     0.146 A 
ATOM      5  C   UNK d   1      54.646  96.089  26.232  0.00  0.00     0.145 A 
ENDROOT
BRANCH   1   6
ATOM      6  C   UNK d   1      56.291  94.778  24.844  0.00  0.00     0.165 C 
BRANCH   6   7
ATOM      7  C   UNK d   1      55.049  93.970  24.540  0.00  0.00     0.144 C 
BRANCH   7   8
ATOM      8  N   UNK d   1      55.366  92.843  23.677  0.00  0.00    -0.355 N 
ATOM      9  C   UNK d   1      54.690  92.745  22.431  0.00  0.00     0.253 C 
ATOM     10  O   UNK d   1      53.836  93.633  22.104  0.00  0.00    -0.268 OA
ATOM     11  H   UNK d   1      56.065  92.126  23.957  0.00  0.00     0.162 HD
BRANCH   9  12
ATOM     12  C   UNK d   1      54.930  91.660  21.491  0.00  0.00     0.050 A 
ATOM     13  C   UNK d   1      55.714  90.603  21.855  0.00  0.00     0.133 A 
ATOM     14  N   UNK d   1      55.995  89.553  21.060  0.00  0.00    -0.271 NA
ATOM     15  C   UNK d   1      55.472  89.530  19.812  0.00  0.00     0.135 A 
ATOM     16  C   UNK d   1      54.673  90.565  19.382  0.00  0.00     0.029 A 
ATOM     17 Br   UNK d   1      53.956  90.490  17.613  0.00  0.00    -0.050 Br
ATOM     18  C   UNK d   1      54.392  91.645  20.219  0.00  0.00     0.039 A 
ENDBRANCH   9  12
ENDBRANCH   7   8
ENDBRANCH   6   7
ENDBRANCH   1   6
BRANCH   4  19
ATOM     19  C   UNK d   1      53.476  97.878  27.591  0.00  0.00     0.228 A 
ATOM     20  N   UNK d   1      52.509  98.709  27.165  0.00  0.00    -0.198 NA
ATOM     21  C   UNK d   1      51.679  98.986  28.184  0.00  0.00     0.191 A 
ATOM     22  N   UNK d   1      52.159  98.307  29.238  0.00  0.00    -0.105 NA
ATOM     23  O   UNK d   1      53.219  97.664  28.855  0.00  0.00    -0.189 OA
BRANCH  21  24
ATOM     24  C   UNK d   1      50.485  99.857  28.152  0.00  0.00     0.032 A 
ATOM     25  C   UNK d   1      50.550 101.085  27.536  0.00  0.00     0.131 A 
ATOM     26  N   UNK d   1      49.469 101.887  27.501  0.00  0.00    -0.272 NA
ATOM     27  C   UNK d   1      48.285 101.549  28.050  0.00  0.00     0.116 A 
ATOM     28  C   UNK d   1      48.229 100.313  28.666  0.00  0.00     0.020 A 
ATOM     29  C   UNK d   1      49.305  99.466  28.725  0.00  0.00     0.018 A 
ENDBRANCH  21  24
ENDBRANCH   4  19
TORSDOF 6
ENDMDL
