MODEL 1
REMARK VINA RESULT:    -8.098      0.000      0.000
REMARK INTER + INTRA:         -11.253
REMARK INTER:                 -10.939
REMARK INTRA:                  -0.314
REMARK UNBOUND:                -0.314
REMARK  6 active torsions:
REMARK  status: ('A' for Active; 'I' for Inactive)
REMARK    1  A    between atoms: C_3  and  N_8 
REMARK       I    between atoms: N_11  and  C_14 
REMARK    2  A    between atoms: C_14  and  C_16 
REMARK    3  A    between atoms: N_18  and  C_26 
REMARK    4  A    between atoms: C_26  and  C_27 
REMARK    5  A    between atoms: C_27  and  C_28 
REMARK    6  A    between atoms: C_28  and  O_29 
ROOT
ATOM      1  C   UNK d   1      53.496  88.067  19.720  0.00  0.00     0.079 A 
ATOM      2  C   UNK d   1      54.259  88.312  20.828  0.00  0.00     0.110 A 
ATOM      3  N   UNK d   1      55.196  89.305  20.912  0.00  0.00    -0.364 N 
ATOM      4  C   UNK d   1      55.368  90.074  19.841  0.00  0.00     0.110 A 
ATOM      5  C   UNK d   1      54.651  89.906  18.686  0.00  0.00     0.080 A 
ATOM      6  C   UNK d   1      53.660  88.848  18.614  0.00  0.00     0.111 A 
ATOM      7  N   UNK d   1      53.124  88.923  17.381  0.00  0.00    -0.170 NA
ATOM      8  N   UNK d   1      53.686  89.911  16.704  0.00  0.00    -0.242 N 
ATOM      9  C   UNK d   1      54.610  90.529  17.451  0.00  0.00     0.275 A 
ATOM     10  O   UNK d   1      55.355  91.513  17.158  0.00  0.00    -0.266 OA
ATOM     11  H   UNK d   1      53.477  90.218  15.713  0.00  0.00     0.192 HD
ENDROOT
BRANCH   1  12
ATOM     12  C   UNK d   1      52.519  86.989  19.715  0.00  0.00     0.257 C 
ATOM     13  N   UNK d   1      52.849  85.673  20.105  0.00  0.00    -0.345 N 
ATOM     14  C   UNK d   1      51.907  84.586  20.112  0.00  0.00     0.146 C 
ATOM     15  C   UNK d   1      54.198  85.389  20.523  0.00  0.00     0.146 C 
ATOM     16  C   UNK d   1      52.585  83.372  19.528  0.00  0.00     0.143 C 
ATOM     17  N   UNK d   1      53.798  83.684  18.819  0.00  0.00    -0.376 N 
ATOM     18  C   UNK d   1      54.827  84.565  19.390  0.00  0.00     0.143 C 
ATOM     19  O   UNK d   1      51.348  87.289  19.340  0.00  0.00    -0.267 OA
BRANCH  17  20
ATOM     20  C   UNK d   1      54.058  83.157  17.539  0.00  0.00     0.052 A 
ATOM     21  C   UNK d   1      54.582  81.895  17.362  0.00  0.00     0.060 A 
ATOM     22 Cl   UNK d   1      54.943  80.900  18.776  0.00  0.00    -0.082 Cl
ATOM     23  C   UNK d   1      54.833  81.392  16.104  0.00  0.00     0.026 A 
ATOM     24  C   UNK d   1      54.554  82.161  15.002  0.00  0.00     0.002 A 
ATOM     25  C   UNK d   1      54.021  83.448  15.139  0.00  0.00     0.002 A 
ATOM     26  C   UNK d   1      53.788  83.906  16.426  0.00  0.00     0.031 A 
ENDBRANCH  17  20
ENDBRANCH   1  12
BRANCH   3  27
ATOM     27  C   UNK d   1      55.980  89.454  22.129  0.00  0.00     0.130 C 
BRANCH  27  28
ATOM     28  C   UNK d   1      55.530  88.676  23.284  0.00  0.00     0.046 C 
BRANCH  28  29
ATOM     29  C   UNK d   1      55.989  88.894  24.657  0.00  0.00     0.168 C 
BRANCH  29  30
ATOM     30  O   UNK d   1      56.771  88.010  25.298  0.00  0.00    -0.396 OA
ATOM     31  C   UNK d   1      57.982  87.644  24.873  0.00  0.00     0.201 C 
ENDBRANCH  29  30
ENDBRANCH  28  29
ENDBRANCH  27  28
ENDBRANCH   3  27
TORSDOF 6
ENDMDL
