/Users/jonathanwahrer/Desktop/Msc/3_Semester/Drug_Design_Praktikum/waehrer_HTS_screening/HTS_experiment/out/docking_results/vina_output/3npc/1477_docked.pdbqt
 OpenBabel03192220293D

 35 39  0  0  1  0  0  0  0  0999 V2000
   53.0320   85.6570   20.4440 C   0  0  2  0  0  3  0  0  0  0  0  0
   53.4300   86.9730   20.1970 N   0  0  0  0  0  0  0  0  0  0  0  0
   54.5250   87.2680   21.1170 C   0  0  0  0  0  0  0  0  0  0  0  0
   55.2570   88.2890   21.1360 O   0  0  0  0  0  0  0  0  0  0  0  0
   54.6730   86.1760   22.0670 C   0  0  0  0  0  0  0  0  0  0  0  0
   55.5350   86.1000   23.0050 O   0  0  0  0  0  0  0  0  0  0  0  0
   53.6620   85.2100   21.7280 C   0  0  2  0  0  3  0  0  0  0  0  0
   53.3910   84.1160   22.4100 C   0  0  2  0  0  3  0  0  0  0  0  0
   53.9550   82.9280   21.8890 O   0  0  0  0  0  1  0  0  0  0  0  0
   52.5810   84.0300   23.6110 C   0  0  0  0  0  0  0  0  0  0  0  0
   52.8460   84.2610   24.9060 N   0  0  0  0  0  0  0  0  0  0  0  0
   51.7970   84.0070   25.7020 C   0  0  0  0  0  0  0  0  0  0  0  0
   54.0030   84.7190   25.4580 C   0  0  0  0  0  3  0  0  0  0  0  0
   50.8050   83.5910   24.8830 N   0  0  0  0  0  0  0  0  0  0  0  0
   51.8430   84.1920   27.0700 C   0  0  0  0  0  3  0  0  0  0  0  0
   51.2390   83.5920   23.6200 C   0  0  0  0  0  0  0  0  0  0  0  0
   50.4760   83.2090   22.4240 C   0  0  0  0  0  1  0  0  0  0  0  0
   53.0020   84.6510   27.6370 C   0  0  0  0  0  3  0  0  0  0  0  0
   54.0830   84.9140   26.8170 C   0  0  0  0  0  3  0  0  0  0  0  0
   53.0580   84.6170   19.4350 C   0  0  0  0  0  0  0  0  0  0  0  0
   54.2170   84.3860   18.6820 C   0  0  0  0  0  3  0  0  0  0  0  0
   54.2700   83.3650   17.7590 C   0  0  0  0  0  0  0  0  0  0  0  0
   55.8440   83.0550   16.7460 Br  0  0  0  0  0  0  0  0  0  0  0  0
   53.1840   82.5390   17.5440 C   0  0  0  0  0  3  0  0  0  0  0  0
   52.0210   82.7370   18.2670 C   0  0  0  0  0  3  0  0  0  0  0  0
   52.0130   83.7580   19.1730 C   0  0  0  0  0  3  0  0  0  0  0  0
   52.8660   87.9380   19.3250 C   0  0  0  0  0  3  0  0  0  0  0  0
   53.6060   88.4560   18.1770 C   0  0  0  0  0  3  0  0  0  0  0  0
   53.1060   89.5680   17.4240 N   0  0  0  0  0  4  0  0  0  0  0  0
   52.6020   90.5390   18.3950 C   0  0  0  0  0  2  0  0  0  0  0  0
   53.6500   91.5040   18.8490 C   0  0  0  0  0  2  0  0  0  0  0  0
   54.9280   91.0810   18.4530 O   0  0  0  0  0  0  0  0  0  0  0  0
   54.9250   91.1460   17.0780 C   0  0  0  0  0  2  0  0  0  0  0  0
   54.0450   90.1030   16.4960 C   0  0  0  0  0  2  0  0  0  0  0  0
   52.2290   89.3120   16.8800 H   0  0  0  0  0  0  0  0  0  0  0  0
  1 20  1  6  0  0  0
  1  7  1  0  0  0  0
  2  1  1  0  0  0  0
  2  3  1  0  0  0  0
  3  4  2  0  0  0  0
  3  5  1  0  0  0  0
  5  6  2  0  0  0  0
  7  5  1  0  0  0  0
  7  8  1  6  0  0  0
  8  9  1  6  0  0  0
  8 10  1  0  0  0  0
 10 16  2  0  0  0  0
 10 11  1  0  0  0  0
 11 13  1  0  0  0  0
 11 12  1  0  0  0  0
 12 15  1  0  0  0  0
 13 19  2  0  0  0  0
 14 12  2  0  0  0  0
 15 18  2  0  0  0  0
 16 14  1  0  0  0  0
 17 16  1  0  0  0  0
 19 18  1  0  0  0  0
 21 20  2  0  0  0  0
 22 21  1  0  0  0  0
 23 22  1  0  0  0  0
 24 22  2  0  0  0  0
 24 25  1  0  0  0  0
 25 26  2  0  0  0  0
 26 20  1  0  0  0  0
 27  2  1  0  0  0  0
 28 27  2  0  0  0  0
 29 28  1  0  0  0  0
 29 30  1  0  0  0  0
 30 31  1  0  0  0  0
 32 31  1  0  0  0  0
 33 32  1  0  0  0  0
 34 33  1  0  0  0  0
 34 29  1  0  0  0  0
 35 29  1  0  0  0  0
M  END
>  <Pose>
1

>  <Score>
-7.838

$$$$
