MODEL 1
REMARK VINA RESULT:    -9.649      0.000      0.000
REMARK INTER + INTRA:         -14.577
REMARK INTER:                 -13.597
REMARK INTRA:                  -0.980
REMARK UNBOUND:                -0.980
REMARK  7 active torsions:
REMARK  status: ('A' for Active; 'I' for Inactive)
REMARK    1  A    between atoms: C_5  and  C_8 
REMARK    2  A    between atoms: C_8  and  C_10 
REMARK    3  A    between atoms: C_10  and  N_11 
REMARK    4  A    between atoms: C_13  and  C_21 
REMARK    5  A    between atoms: C_21  and  N_22 
REMARK    6  A    between atoms: N_22  and  C_23 
REMARK    7  A    between atoms: C_26  and  O_29 
ROOT
ATOM      1  N   UNK d   1      55.616  89.756  20.951  0.00  0.00    -0.249 N 
ATOM      2  N   UNK d   1      55.715  90.772  21.777  0.00  0.00    -0.155 NA
ATOM      3  C   UNK d   1      54.813  91.718  21.471  0.00  0.00     0.145 A 
ATOM      4  N   UNK d   1      54.125  91.271  20.411  0.00  0.00    -0.321 N 
ATOM      5  C   UNK d   1      54.634  90.045  20.091  0.00  0.00     0.104 A 
ATOM      6  C   UNK d   1      54.184  89.185  18.998  0.00  0.00     0.078 C 
ATOM      7  C   UNK d   1      54.286  89.848  17.645  0.00  0.00     0.008 C 
ATOM      8  C   UNK d   1      53.236  90.921  17.460  0.00  0.00     0.002 C 
ATOM      9  C   UNK d   1      53.489  92.143  18.288  0.00  0.00     0.020 C 
ATOM     10  C   UNK d   1      53.046  91.963  19.733  0.00  0.00     0.132 C 
ENDROOT
BRANCH   3  11
ATOM     11  C   UNK d   1      54.593  93.005  22.145  0.00  0.00     0.200 C 
BRANCH  11  12
ATOM     12  N   UNK d   1      54.969  92.976  23.525  0.00  0.00    -0.383 N 
ATOM     13  H   UNK d   1      55.125  92.074  23.999  0.00  0.00     0.160 HD
BRANCH  12  14
ATOM     14  C   UNK d   1      55.144  94.154  24.306  0.00  0.00     0.028 A 
ATOM     15  C   UNK d   1      56.387  94.689  24.561  0.00  0.00     0.032 A 
ATOM     16  C   UNK d   1      56.543  95.826  25.310  0.00  0.00     0.039 A 
ATOM     17  C   UNK d   1      55.448  96.450  25.820  0.00  0.00     0.068 A 
ATOM     18  C   UNK d   1      54.203  95.917  25.568  0.00  0.00     0.039 A 
ATOM     19  C   UNK d   1      54.033  94.774  24.814  0.00  0.00     0.032 A 
BRANCH  17  20
ATOM     20  O   UNK d   1      55.574  97.591  26.576  0.00  0.00    -0.356 OA
ATOM     21  C   UNK d   1      56.800  98.252  26.765  0.00  0.00     0.210 C 
ENDBRANCH  17  20
ENDBRANCH  12  14
ENDBRANCH  11  12
ENDBRANCH   3  11
BRANCH   1  22
ATOM     22  C   UNK d   1      56.407  88.561  20.961  0.00  0.00     0.236 C 
BRANCH  22  23
ATOM     23  C   UNK d   1      56.213  87.779  22.211  0.00  0.00     0.179 C 
ATOM     24  O   UNK d   1      56.941  88.068  23.197  0.00  0.00    -0.290 OA
BRANCH  23  25
ATOM     25  C   UNK d   1      55.237  86.719  22.335  0.00  0.00     0.011 A 
ATOM     26  C   UNK d   1      54.790  86.280  23.560  0.00  0.00     0.016 A 
ATOM     27  C   UNK d   1      53.851  85.258  23.665  0.00  0.00     0.020 A 
ATOM     28  C   UNK d   1      53.344  84.661  22.523  0.00  0.00     0.011 A 
ATOM     29 Br   UNK d   1      52.045  83.249  22.678  0.00  0.00    -0.051 Br
ATOM     30  C   UNK d   1      53.784  85.093  21.295  0.00  0.00     0.020 A 
ATOM     31  C   UNK d   1      54.712  86.103  21.221  0.00  0.00     0.016 A 
ENDBRANCH  23  25
ENDBRANCH  22  23
ENDBRANCH   1  22
TORSDOF 7
ENDMDL
