MODEL 1
REMARK VINA RESULT:    -8.373      0.000      0.000
REMARK INTER + INTRA:         -10.699
REMARK INTER:                 -10.087
REMARK INTRA:                  -0.613
REMARK UNBOUND:                -0.613
REMARK  4 active torsions:
REMARK  status: ('A' for Active; 'I' for Inactive)
REMARK    1  A    between atoms: C_4  and  N_8 
REMARK    2  A    between atoms: C_10  and  O_18 
REMARK    3  A    between atoms: C_10  and  C_19 
REMARK    4  A    between atoms: C_21  and  N_25 
ROOT
ATOM      1  N   UNK d   1      52.358  83.986  18.337  0.00  0.00     0.009 N 
ATOM      2  C   UNK d   1      52.536  85.416  18.371  0.00  0.00     0.316 C 
ATOM      3  C   UNK d   1      52.388  85.947  19.735  0.00  0.00     0.189 C 
ATOM      4  N   UNK d   1      52.074  84.784  20.515  0.00  0.00    -0.324 N 
ATOM      5  C   UNK d   1      51.414  84.616  21.789  0.00  0.00     0.128 C 
ATOM      6  C   UNK d   1      52.242  83.966  22.850  0.00  0.00     0.020 C 
ATOM      7  C   UNK d   1      53.525  83.374  22.381  0.00  0.00     0.005 C 
ATOM      8  C   UNK d   1      53.200  82.061  21.634  0.00  0.00     0.031 C 
ATOM      9  C   UNK d   1      52.998  82.500  20.194  0.00  0.00     0.030 C 
ATOM     10  C   UNK d   1      52.522  83.638  19.742  0.00  0.00     0.208 C 
ATOM     11  H   UNK d   1      51.450  83.632  18.059  0.00  0.00     0.295 HD
ENDROOT
BRANCH   3  12
ATOM     12  O   UNK d   1      51.243  86.789  19.793  0.00  0.00    -0.365 OA
ATOM     13  H   UNK d   1      51.402  87.402  20.584  0.00  0.00     0.213 HD
ENDBRANCH   3  12
BRANCH   3  14
ATOM     14  C   UNK d   1      53.470  86.745  20.259  0.00  0.00     0.001 A 
ATOM     15  C   UNK d   1      54.510  86.219  21.026  0.00  0.00     0.048 A 
ATOM     16  C   UNK d   1      55.562  86.986  21.507  0.00  0.00     0.103 A 
ATOM     17  C   UNK d   1      55.584  88.349  21.209  0.00  0.00     0.036 A 
ATOM     18  C   UNK d   1      54.586  88.904  20.462  0.00  0.00     0.003 A 
ATOM     19  C   UNK d   1      53.539  88.094  19.993  0.00  0.00     0.012 A 
BRANCH  16  20
ATOM     20  N   UNK d   1      56.581  86.386  22.280  0.00  0.00    -0.116 N 
ATOM     21  O   UNK d   1      56.305  85.918  23.429  0.00  0.00    -0.532 OA
ATOM     22  O   UNK d   1      57.858  86.279  21.870  0.00  0.00    -0.532 OA
ENDBRANCH  16  20
ENDBRANCH   3  14
BRANCH   1  23
ATOM     23  C   UNK d   1      53.374  83.261  17.660  0.00  0.00     0.143 A 
ATOM     24  C   UNK d   1      53.151  82.041  17.070  0.00  0.00     0.061 A 
ATOM     25  C   UNK d   1      54.174  81.285  16.504  0.00  0.00     0.036 A 
ATOM     26 Cl   UNK d   1      53.826  79.745  15.733  0.00  0.00    -0.084 Cl
ATOM     27  C   UNK d   1      55.471  81.756  16.523  0.00  0.00     0.024 A 
ATOM     28  C   UNK d   1      55.737  82.966  17.105  0.00  0.00     0.004 A 
ATOM     29  C   UNK d   1      54.701  83.706  17.665  0.00  0.00     0.038 A 
ENDBRANCH   1  23
TORSDOF 4
ENDMDL
