/Users/jonathanwahrer/Desktop/Msc/3_Semester/Drug_Design_Praktikum/waehrer_HTS_screening/HTS_experiment/out/docking_results/vina_output/3npc/1491_docked.pdbqt
 OpenBabel03192220303D

 34 38  0  0  0  0  0  0  0  0999 V2000
   55.6630   86.4160   25.0350 F   0  0  0  0  0  0  0  0  0  0  0  0
   54.5720   85.6520   25.2220 C   0  0  0  0  0  0  0  0  0  0  0  0
   54.2260   85.4730   26.5580 C   0  0  0  0  0  3  0  0  0  0  0  0
   53.1250   84.7190   26.9000 C   0  0  0  0  0  0  0  0  0  0  0  0
   52.3850   84.1580   25.8860 C   0  0  0  0  0  0  0  0  0  0  0  0
   52.7470   84.3500   24.5570 C   0  0  0  0  0  3  0  0  0  0  0  0
   53.8400   85.0960   24.2040 C   0  0  0  0  0  0  0  0  0  0  0  0
   51.3120   83.4260   26.2450 N   0  0  0  0  0  0  0  0  0  0  0  0
   50.9570   83.2370   27.5280 C   0  0  0  0  0  3  0  0  0  0  0  0
   51.6770   83.7850   28.5670 C   0  0  0  0  0  0  0  0  0  0  0  0
   52.7810   84.5400   28.2470 C   0  0  0  0  0  0  0  0  0  0  0  0
   53.4800   85.0690   29.1440 O   0  0  0  0  0  0  0  0  0  0  0  0
   54.1750   85.2580   22.8600 N   0  0  0  0  0  4  0  0  0  0  0  0
   54.5470   86.5920   22.4660 C   0  0  0  0  0  2  0  0  0  0  0  0
   55.0330   86.5890   20.9980 C   0  0  0  0  0  2  0  0  0  0  0  0
   53.9160   86.2000   20.2310 N   0  0  0  0  0  0  0  0  0  0  0  0
   53.5810   84.7480   20.4990 C   0  0  0  0  0  2  0  0  0  0  0  0
   53.0930   86.8590   19.3820 C   0  0  0  0  0  0  0  0  0  0  0  0
   53.1990   84.7590   21.9470 C   0  0  0  0  0  2  0  0  0  0  0  0
   52.1890   86.1180   18.7890 O   0  0  0  0  0  0  0  0  0  0  0  0
   55.0490   84.6680   22.7000 H   0  0  0  0  0  0  0  0  0  0  0  0
   53.0290   88.2440   19.0060 C   0  0  0  0  0  0  0  0  0  0  0  0
   53.7590   88.8010   18.0060 C   0  0  0  0  0  3  0  0  0  0  0  0
   53.6240   90.1340   17.6400 C   0  0  0  0  0  0  0  0  0  0  0  0
   52.7260   90.9240   18.3100 C   0  0  0  0  0  3  0  0  0  0  0  0
   54.5930   90.8130   16.3300 Cl  0  0  0  0  0  0  0  0  0  0  0  0
   51.9680   90.4140   19.3270 C   0  0  0  0  0  3  0  0  0  0  0  0
   52.1220   89.1030   19.6610 C   0  0  0  0  0  3  0  0  0  0  0  0
   50.5350   82.8340   25.1490 C   0  0  0  0  0  3  0  0  0  0  0  0
   49.4780   81.8530   25.4150 C   0  0  0  0  0  2  0  0  0  0  0  0
   50.7610   81.2940   24.9850 C   0  0  0  0  0  2  0  0  0  0  0  0
   51.2760   83.5680   29.9700 C   0  0  0  0  0  0  0  0  0  0  0  0
   51.7430   82.6510   30.6630 O   0  0  0  0  0  1  0  0  0  0  0  0
   50.3480   84.4260   30.5160 O   0  0  0  0  0  0  0  0  0  0  0  0
  1  2  1  0  0  0  0
  2  3  1  0  0  0  0
  3  4  2  0  0  0  0
  4 11  1  0  0  0  0
  5  8  1  0  0  0  0
  5  4  1  0  0  0  0
  6  5  2  0  0  0  0
  7  6  1  0  0  0  0
  7  2  2  0  0  0  0
  8  9  1  0  0  0  0
  9 10  2  0  0  0  0
 10 32  1  0  0  0  0
 11 10  1  0  0  0  0
 11 12  2  0  0  0  0
 13  7  1  0  0  0  0
 14 13  1  0  0  0  0
 15 14  1  0  0  0  0
 16 17  1  0  0  0  0
 16 15  1  0  0  0  0
 17 19  1  0  0  0  0
 18 16  1  0  0  0  0
 19 13  1  0  0  0  0
 20 18  2  0  0  0  0
 21 13  1  0  0  0  0
 22 18  1  0  0  0  0
 22 28  1  0  0  0  0
 23 22  2  0  0  0  0
 24 23  1  0  0  0  0
 24 25  2  0  0  0  0
 25 27  1  0  0  0  0
 26 24  1  0  0  0  0
 27 28  2  0  0  0  0
 29 30  1  0  0  0  0
 29  8  1  0  0  0  0
 31 29  1  0  0  0  0
 31 30  1  0  0  0  0
 32 34  2  0  0  0  0
 32 33  1  0  0  0  0
M  END
>  <Pose>
1

>  <Score>
-8.507

$$$$
