MODEL 1
REMARK VINA RESULT:    -8.507      0.000      0.000
REMARK INTER + INTRA:         -10.891
REMARK INTER:                 -10.496
REMARK INTRA:                  -0.396
REMARK UNBOUND:                -0.396
REMARK  4 active torsions:
REMARK  status: ('A' for Active; 'I' for Inactive)
REMARK    1  A    between atoms: C_7  and  N_8 
REMARK    2  A    between atoms: C_14  and  C_16 
REMARK    3  A    between atoms: N_23  and  C_31 
REMARK    4  A    between atoms: C_25  and  C_28 
ROOT
ATOM      1  F   UNK d   1      55.663  86.416  25.035  0.00  0.00    -0.204 F 
ATOM      2  C   UNK d   1      54.572  85.652  25.222  0.00  0.00     0.151 A 
ATOM      3  C   UNK d   1      54.226  85.473  26.558  0.00  0.00     0.062 A 
ATOM      4  C   UNK d   1      53.125  84.719  26.900  0.00  0.00     0.045 A 
ATOM      5  C   UNK d   1      52.385  84.158  25.886  0.00  0.00     0.051 A 
ATOM      6  C   UNK d   1      52.747  84.350  24.557  0.00  0.00     0.071 A 
ATOM      7  C   UNK d   1      53.840  85.096  24.204  0.00  0.00     0.175 A 
ATOM      8  N   UNK d   1      51.312  83.426  26.245  0.00  0.00    -0.350 N 
ATOM      9  C   UNK d   1      50.957  83.237  27.528  0.00  0.00     0.114 A 
ATOM     10  C   UNK d   1      51.677  83.785  28.567  0.00  0.00     0.107 A 
ATOM     11  C   UNK d   1      52.781  84.540  28.247  0.00  0.00     0.202 A 
ATOM     12  O   UNK d   1      53.480  85.069  29.144  0.00  0.00    -0.286 OA
ENDROOT
BRANCH   7  13
ATOM     13  N   UNK d   1      54.175  85.258  22.860  0.00  0.00    -0.035 N 
ATOM     14  C   UNK d   1      54.547  86.592  22.466  0.00  0.00     0.261 C 
ATOM     15  C   UNK d   1      55.033  86.589  20.998  0.00  0.00     0.153 C 
ATOM     16  N   UNK d   1      53.916  86.200  20.231  0.00  0.00    -0.356 N 
ATOM     17  C   UNK d   1      53.581  84.748  20.499  0.00  0.00     0.153 C 
ATOM     18  C   UNK d   1      53.093  86.859  19.382  0.00  0.00     0.187 C 
ATOM     19  C   UNK d   1      53.199  84.759  21.947  0.00  0.00     0.261 C 
ATOM     20  O   UNK d   1      52.189  86.118  18.789  0.00  0.00    -0.171 OA
ATOM     21  H   UNK d   1      55.049  84.668  22.700  0.00  0.00     0.287 HD
BRANCH  18  22
ATOM     22  C   UNK d   1      53.029  88.244  19.006  0.00  0.00     0.019 A 
ATOM     23  C   UNK d   1      53.759  88.801  18.006  0.00  0.00     0.039 A 
ATOM     24  C   UNK d   1      53.624  90.134  17.640  0.00  0.00     0.035 A 
ATOM     25  C   UNK d   1      52.726  90.924  18.310  0.00  0.00     0.024 A 
ATOM     26 Cl   UNK d   1      54.593  90.813  16.330  0.00  0.00    -0.084 Cl
ATOM     27  C   UNK d   1      51.968  90.414  19.327  0.00  0.00     0.003 A 
ATOM     28  C   UNK d   1      52.122  89.103  19.661  0.00  0.00     0.016 A 
ENDBRANCH  18  22
ENDBRANCH   7  13
BRANCH   8  29
ATOM     29  C   UNK d   1      50.535  82.834  25.149  0.00  0.00     0.090 A 
ATOM     30  C   UNK d   1      49.478  81.853  25.415  0.00  0.00     0.028 A 
ATOM     31  C   UNK d   1      50.761  81.294  24.985  0.00  0.00     0.028 A 
ENDBRANCH   8  29
BRANCH  10  32
ATOM     32  C   UNK d   1      51.276  83.568  29.970  0.00  0.00     0.214 C 
ATOM     33  O   UNK d   1      51.743  82.651  30.663  0.00  0.00    -0.644 OA
ATOM     34  O   UNK d   1      50.348  84.426  30.516  0.00  0.00    -0.644 OA
ENDBRANCH  10  32
TORSDOF 4
ENDMDL
