MODEL 1
REMARK VINA RESULT:    -9.654      0.000      0.000
REMARK INTER + INTRA:         -13.756
REMARK INTER:                 -13.040
REMARK INTRA:                  -0.716
REMARK UNBOUND:                -0.716
REMARK  6 active torsions:
REMARK  status: ('A' for Active; 'I' for Inactive)
REMARK    1  A    between atoms: C_5  and  C_8 
REMARK       I    between atoms: C_8  and  N_10 
REMARK    2  A    between atoms: N_10  and  C_11 
REMARK    3  A    between atoms: C_11  and  C_12 
REMARK    4  A    between atoms: C_12  and  N_13 
REMARK       I    between atoms: N_13  and  C_14 
REMARK    5  A    between atoms: C_14  and  C_16 
REMARK    6  A    between atoms: N_19  and  C_22 
ROOT
ATOM      1  N   UNK d   1      49.621  99.871  27.629  0.00  0.00    -0.359 N 
ATOM      2  C   UNK d   1      50.512  99.615  28.733  0.00  0.00     0.222 C 
ATOM      3  O   UNK d   1      50.913 100.567  29.420  0.00  0.00    -0.273 OA
ATOM      4  H   UNK d   1      49.310  99.042  27.130  0.00  0.00     0.162 HD
ENDROOT
BRANCH   2   5
ATOM      5  C   UNK d   1      50.959  98.241  29.066  0.00  0.00     0.081 C 
ATOM      6  C   UNK d   1      52.408  98.312  29.493  0.00  0.00     0.034 C 
ATOM      7  C   UNK d   1      53.226  98.602  28.255  0.00  0.00     0.125 C 
ATOM      8  N   UNK d   1      53.170  97.383  27.453  0.00  0.00    -0.364 N 
ATOM      9  C   UNK d   1      51.982  96.598  27.434  0.00  0.00     0.125 C 
ATOM     10  C   UNK d   1      50.766  97.266  27.964  0.00  0.00     0.034 C 
BRANCH   8  11
ATOM     11  C   UNK d   1      54.324  97.033  26.715  0.00  0.00     0.148 A 
ATOM     12  N   UNK d   1      55.354  97.879  26.522  0.00  0.00    -0.129 NA
ATOM     13  N   UNK d   1      56.437  97.569  25.834  0.00  0.00    -0.108 N 
ATOM     14  N   UNK d   1      57.533  98.261  25.545  0.00  0.00    -0.021 NA
ATOM     15  C   UNK d   1      56.605  96.370  25.265  0.00  0.00     0.196 A 
ATOM     16  N   UNK d   1      58.355  97.542  24.829  0.00  0.00    -0.021 NA
ATOM     17  N   UNK d   1      57.802  96.362  24.642  0.00  0.00    -0.107 NA
ATOM     18  C   UNK d   1      55.581  95.455  25.427  0.00  0.00     0.060 A 
ATOM     19  C   UNK d   1      54.447  95.777  26.146  0.00  0.00     0.056 A 
ENDBRANCH   8  11
ENDBRANCH   2   5
BRANCH   1  20
ATOM     20  C   UNK d   1      49.253 101.212  27.396  0.00  0.00     0.142 C 
BRANCH  20  21
ATOM     21  C   UNK d   1      48.379 101.954  28.318  0.00  0.00     0.142 C 
BRANCH  21  22
ATOM     22  N   UNK d   1      48.972 102.721  29.346  0.00  0.00    -0.355 N 
ATOM     23  C   UNK d   1      48.464 103.198  30.546  0.00  0.00     0.251 C 
ATOM     24  O   UNK d   1      47.290 102.968  30.905  0.00  0.00    -0.268 OA
ATOM     25  H   UNK d   1      50.032 103.020  29.199  0.00  0.00     0.162 HD
BRANCH  23  26
ATOM     26  C   UNK d   1      49.272 104.011  31.485  0.00  0.00     0.032 A 
ATOM     27  C   UNK d   1      50.392 103.464  32.072  0.00  0.00     0.018 A 
ATOM     28  C   UNK d   1      51.177 104.183  32.943  0.00  0.00     0.025 A 
ATOM     29  C   UNK d   1      50.836 105.491  33.241  0.00  0.00     0.034 A 
ATOM     30 Cl   UNK d   1      51.831 106.418  34.353  0.00  0.00    -0.084 Cl
ATOM     31  C   UNK d   1      49.730 106.066  32.675  0.00  0.00     0.025 A 
ATOM     32  C   UNK d   1      48.955 105.307  31.794  0.00  0.00     0.018 A 
ENDBRANCH  23  26
ENDBRANCH  21  22
ENDBRANCH  20  21
ENDBRANCH   1  20
TORSDOF 6
ENDMDL
