/Users/jonathanwahrer/Desktop/Msc/3_Semester/Drug_Design_Praktikum/waehrer_HTS_screening/HTS_experiment/out/docking_results/vina_output/3npc/1507_docked.pdbqt
 OpenBabel03192220313D

 32 35  0  0  1  0  0  0  0  0999 V2000
   53.5980   83.9810   17.9470 C   0  0  0  0  0  0  0  0  0  0  0  0
   53.8040   83.7350   19.2240 C   0  0  0  0  0  0  0  0  0  0  0  0
   53.6870   84.6500   20.4050 C   0  0  2  0  0  3  0  0  0  0  0  0
   53.0660   83.8140   21.3670 N   0  0  0  0  0  0  0  0  0  0  0  0
   53.7810   82.5480   21.2350 C   0  0  0  0  0  0  0  0  0  0  0  0
   53.9620   81.6710   22.1190 O   0  0  0  0  0  0  0  0  0  0  0  0
   54.2560   82.4960   19.8570 C   0  0  0  0  0  0  0  0  0  0  0  0
   54.9290   81.5950   19.2530 O   0  0  0  0  0  0  0  0  0  0  0  0
   53.2190   85.2310   17.4910 O   0  0  0  0  0  1  0  0  0  0  0  0
   53.7640   82.9390   16.9400 C   0  0  0  0  0  0  0  0  0  0  0  0
   54.9150   82.8350   16.1810 C   0  0  0  0  0  3  0  0  0  0  0  0
   54.9830   81.8480   15.2380 C   0  0  0  0  0  3  0  0  0  0  0  0
   53.9730   80.9460   14.9930 C   0  0  0  0  0  0  0  0  0  0  0  0
   54.1460   79.5850   13.6460 Br  0  0  0  0  0  0  0  0  0  0  0  0
   52.8220   81.0450   15.7460 C   0  0  0  0  0  3  0  0  0  0  0  0
   52.7380   82.0490   16.7150 C   0  0  0  0  0  3  0  0  0  0  0  0
   53.2220   85.9600   20.0940 C   0  0  0  0  0  0  0  0  0  0  0  0
   54.0800   87.0250   20.2250 C   0  0  0  0  0  3  0  0  0  0  0  0
   53.7100   88.3150   19.9290 C   0  0  0  0  0  3  0  0  0  0  0  0
   52.4290   88.5930   19.4760 C   0  0  0  0  0  0  0  0  0  0  0  0
   51.5810   87.5100   19.3520 C   0  0  0  0  0  3  0  0  0  0  0  0
   51.9460   90.2270   19.0960 Cl  0  0  0  0  0  0  0  0  0  0  0  0
   51.9600   86.2200   19.6510 C   0  0  0  0  0  3  0  0  0  0  0  0
   52.0260   84.0040   22.3600 C   0  0  0  0  0  2  0  0  0  0  0  0
   52.4210   83.9370   23.7830 C   0  0  0  0  0  2  0  0  0  0  0  0
   52.7900   85.2320   24.3650 N   0  0  0  0  0  4  0  0  0  0  0  0
   54.1360   85.5550   24.0370 C   0  0  0  0  0  2  0  0  0  0  0  0
   55.1000   85.6350   25.1690 C   0  0  0  0  0  2  0  0  0  0  0  0
   54.5570   85.9760   26.3930 O   0  0  0  0  0  0  0  0  0  0  0  0
   53.6290   84.9490   26.6790 C   0  0  0  0  0  2  0  0  0  0  0  0
   52.4780   85.1730   25.7630 C   0  0  0  0  0  2  0  0  0  0  0  0
   52.1210   85.9260   23.9090 H   0  0  0  0  0  0  0  0  0  0  0  0
  1  2  2  0  0  0  0
  2  7  1  0  0  0  0
  2  3  1  0  0  0  0
  3 17  1  6  0  0  0
  3  4  1  0  0  0  0
  4 24  1  0  0  0  0
  5  4  1  0  0  0  0
  5  6  2  0  0  0  0
  7  5  1  0  0  0  0
  8  7  2  0  0  0  0
  9  1  1  0  0  0  0
 10  1  1  0  0  0  0
 11 10  2  0  0  0  0
 12 11  1  0  0  0  0
 13 12  2  0  0  0  0
 13 15  1  0  0  0  0
 14 13  1  0  0  0  0
 15 16  2  0  0  0  0
 16 10  1  0  0  0  0
 17 18  1  0  0  0  0
 19 18  2  0  0  0  0
 20 19  1  0  0  0  0
 21 20  2  0  0  0  0
 21 23  1  0  0  0  0
 22 20  1  0  0  0  0
 23 17  2  0  0  0  0
 24 25  1  0  0  0  0
 25 26  1  0  0  0  0
 26 31  1  0  0  0  0
 27 26  1  0  0  0  0
 27 28  1  0  0  0  0
 28 29  1  0  0  0  0
 29 30  1  0  0  0  0
 31 30  1  0  0  0  0
 32 26  1  0  0  0  0
M  END
>  <Pose>
1

>  <Score>
-8.290

$$$$
