MODEL 1
REMARK VINA RESULT:    -8.223      0.000      0.000
REMARK INTER + INTRA:         -12.155
REMARK INTER:                 -11.107
REMARK INTRA:                  -1.048
REMARK UNBOUND:                -1.048
REMARK  6 active torsions:
REMARK  status: ('A' for Active; 'I' for Inactive)
REMARK    1  A    between atoms: C_5  and  N_8 
REMARK    2  A    between atoms: N_15  and  C_16 
REMARK    3  A    between atoms: C_16  and  C_17 
REMARK       I    between atoms: C_17  and  N_19 
REMARK    4  A    between atoms: N_19  and  C_20 
REMARK    5  A    between atoms: C_22  and  O_28 
REMARK    6  A    between atoms: C_23  and  O_26 
ROOT
ATOM      1  N   UNK d   1      52.629  84.456  27.023  0.00  0.00    -0.241 N 
ATOM      2  C   UNK d   1      53.649  85.101  26.434  0.00  0.00     0.286 A 
ATOM      3  O   UNK d   1      54.573  85.645  27.092  0.00  0.00    -0.265 OA
ATOM      4  C   UNK d   1      53.529  85.075  25.055  0.00  0.00     0.155 A 
ATOM      5  C   UNK d   1      52.414  84.400  24.802  0.00  0.00     0.152 A 
ATOM      6  N   UNK d   1      52.298  84.376  23.465  0.00  0.00    -0.279 N 
ATOM      7  N   UNK d   1      53.314  85.018  22.917  0.00  0.00    -0.239 N 
ATOM      8  N   UNK d   1      54.083  85.455  23.878  0.00  0.00    -0.261 N 
ATOM      9  C   UNK d   1      51.856  84.018  26.004  0.00  0.00     0.286 A 
ATOM     10  O   UNK d   1      50.777  83.352  26.137  0.00  0.00    -0.265 OA
ATOM     11  H   UNK d   1      51.540  83.931  22.911  0.00  0.00     0.189 HD
ATOM     12  H   UNK d   1      53.499  85.166  21.881  0.00  0.00     0.208 HD
ENDROOT
BRANCH   8  13
ATOM     13  C   UNK d   1      55.307  86.210  23.754  0.00  0.00     0.254 C 
BRANCH  13  14
ATOM     14  C   UNK d   1      55.381  86.808  22.369  0.00  0.00     0.242 C 
ATOM     15  O   UNK d   1      55.969  86.177  21.463  0.00  0.00    -0.271 OA
ATOM     16  N   UNK d   1      54.796  88.056  22.109  0.00  0.00    -0.326 N 
ATOM     17  H   UNK d   1      54.309  88.539  22.932  0.00  0.00     0.169 HD
BRANCH  16  18
ATOM     18  C   UNK d   1      54.787  88.721  20.866  0.00  0.00     0.037 A 
ATOM     19  C   UNK d   1      53.927  88.475  19.827  0.00  0.00     0.069 A 
ATOM     20  C   UNK d   1      53.982  89.152  18.626  0.00  0.00     0.103 A 
ATOM     21  C   UNK d   1      54.951  90.121  18.472  0.00  0.00     0.101 A 
ATOM     22  C   UNK d   1      55.839  90.400  19.498  0.00  0.00     0.042 A 
ATOM     23  C   UNK d   1      55.767  89.716  20.680  0.00  0.00     0.032 A 
BRANCH  20  24
ATOM     24  O   UNK d   1      53.094  88.880  17.587  0.00  0.00    -0.353 OA
ATOM     25  C   UNK d   1      51.729  89.283  17.760  0.00  0.00     0.210 C 
ENDBRANCH  20  24
BRANCH  21  26
ATOM     26  O   UNK d   1      55.023  90.816  17.267  0.00  0.00    -0.353 OA
ATOM     27  C   UNK d   1      54.222  91.966  17.086  0.00  0.00     0.210 C 
ENDBRANCH  21  26
ENDBRANCH  16  18
ENDBRANCH  13  14
ENDBRANCH   8  13
BRANCH   1  28
ATOM     28  C   UNK d   1      52.355  84.241  28.402  0.00  0.00     0.046 A 
ATOM     29  C   UNK d   1      51.506  85.045  29.133  0.00  0.00     0.031 A 
ATOM     30  C   UNK d   1      51.262  84.805  30.482  0.00  0.00     0.021 A 
ATOM     31  C   UNK d   1      51.864  83.751  31.139  0.00  0.00     0.011 A 
ATOM     32 Br   UNK d   1      51.533  83.415  32.995  0.00  0.00    -0.051 Br
ATOM     33  C   UNK d   1      52.713  82.951  30.400  0.00  0.00     0.021 A 
ATOM     34  C   UNK d   1      52.953  83.190  29.063  0.00  0.00     0.031 A 
ENDBRANCH   1  28
TORSDOF 6
ENDMDL
