/Users/jonathanwahrer/Desktop/Msc/3_Semester/Drug_Design_Praktikum/waehrer_HTS_screening/HTS_experiment/out/docking_results/vina_output/3npc/1516_docked.pdbqt
 OpenBabel03192220313D

 30 33  0  0  1  0  0  0  0  0999 V2000
   48.6510  101.7140   28.7650 C   0  0  0  0  0  0  0  0  0  0  0  0
   47.5070  101.9420   28.1620 O   0  0  0  0  0  0  0  0  0  0  0  0
   48.7040  102.1760   30.0720 N   0  0  0  0  0  0  0  0  0  0  0  0
   49.8230  102.0180   30.9410 C   0  0  0  0  0  2  0  0  0  0  0  0
   49.3630  102.3620   32.3770 C   0  0  0  0  0  2  0  0  0  0  0  0
   49.0860  103.8530   32.3910 C   0  0  2  0  0  0  0  0  0  0  0  0
   50.2660  104.5470   32.0730 N   0  0  0  0  0  0  0  0  0  0  0  0
   51.2040  104.8570   33.0630 C   0  0  0  0  0  2  0  0  0  0  0  0
   50.6940  105.2250   34.4050 C   0  0  0  0  0  2  0  0  0  0  0  0
   49.2860  104.8370   34.6330 C   0  0  0  0  0  0  0  0  0  0  0  0
   48.5390  105.0340   35.7370 N   0  0  0  0  0  0  0  0  0  0  0  0
   47.3240  104.5260   35.5120 C   0  0  0  0  0  3  0  0  0  0  0  0
   47.3070  104.0080   34.2630 N   0  0  0  0  0  0  0  0  0  0  0  0
   48.5180  104.1930   33.7040 C   0  0  0  0  0  0  0  0  0  0  0  0
   48.0650  104.1430   31.2770 C   0  0  0  0  0  2  0  0  0  0  0  0
   47.5460  102.8820   30.6450 C   0  0  0  0  0  2  0  0  0  0  0  0
   50.5190  104.6760   31.1000 H   0  0  0  0  0  0  0  0  0  0  0  0
   46.4940  103.5460   33.8190 H   0  0  0  0  0  0  0  0  0  0  0  0
   49.6330  101.0170   27.9360 C   0  0  0  0  0  2  0  0  0  0  0  0
   49.8310   99.6800   28.1590 N   0  0  0  0  0  0  0  0  0  0  0  0
   50.0260   98.3580   28.3800 C   0  0  0  0  0  0  0  0  0  0  0  0
   49.1860   97.5230   28.8050 O   0  0  0  0  0  0  0  0  0  0  0  0
   48.5410   99.5930   28.6330 H   0  0  0  0  0  0  0  0  0  0  0  0
   51.3860   97.7950   28.0960 C   0  0  0  0  0  0  0  0  0  0  0  0
   51.4900   96.7020   27.2880 C   0  0  0  0  0  3  0  0  0  0  0  0
   52.7520   96.1650   27.0140 C   0  0  0  0  0  3  0  0  0  0  0  0
   53.8510   96.7570   27.5710 C   0  0  0  0  0  0  0  0  0  0  0  0
   55.4360   96.0770   27.2290 Cl  0  0  0  0  0  0  0  0  0  0  0  0
   53.7480   97.8500   28.3810 C   0  0  0  0  0  3  0  0  0  0  0  0
   52.4720   98.3840   28.6500 C   0  0  0  0  0  3  0  0  0  0  0  0
  1  3  1  0  0  0  0
  2  1  2  0  0  0  0
  3 16  1  0  0  0  0
  3  4  1  0  0  0  0
  4  5  1  0  0  0  0
  5  6  1  0  0  0  0
  6 15  1  6  0  0  0
  6 14  1  0  0  0  0
  7  6  1  0  0  0  0
  7  8  1  0  0  0  0
  8  9  1  0  0  0  0
  9 10  1  0  0  0  0
 10 11  1  0  0  0  0
 12 11  2  0  0  0  0
 13 12  1  0  0  0  0
 14 13  1  0  0  0  0
 14 10  2  0  0  0  0
 16 15  1  0  0  0  0
 17  7  1  0  0  0  0
 18 13  1  0  0  0  0
 19 20  1  0  0  0  0
 19  1  1  0  0  0  0
 20 21  1  0  0  0  0
 20 23  1  0  0  0  0
 21 22  2  0  0  0  0
 24 21  1  0  0  0  0
 24 30  1  0  0  0  0
 25 24  2  0  0  0  0
 26 25  1  0  0  0  0
 26 27  2  0  0  0  0
 27 29  1  0  0  0  0
 28 27  1  0  0  0  0
 29 30  2  0  0  0  0
M  END
>  <Pose>
1

>  <Score>
-9.151

$$$$
