MODEL 1
REMARK VINA RESULT:    -9.151      0.000      0.000
REMARK INTER + INTRA:         -11.142
REMARK INTER:                 -10.756
REMARK INTRA:                  -0.386
REMARK UNBOUND:                -0.386
REMARK  3 active torsions:
REMARK  status: ('A' for Active; 'I' for Inactive)
REMARK    1  A    between atoms: C_5  and  C_8 
REMARK       I    between atoms: C_8  and  N_10 
REMARK    2  A    between atoms: N_10  and  C_11 
REMARK    3  A    between atoms: C_11  and  C_12 
REMARK       I    between atoms: C_12  and  N_14 
ROOT
ATOM      1  C   UNK d   1      48.651 101.714  28.765  0.00  0.00     0.171 C 
ATOM      2  O   UNK d   1      47.507 101.942  28.162  0.00  0.00    -0.175 OA
ATOM      3  N   UNK d   1      48.704 102.176  30.072  0.00  0.00    -0.361 N 
ATOM      4  C   UNK d   1      49.823 102.018  30.941  0.00  0.00     0.127 C 
ATOM      5  C   UNK d   1      49.363 102.362  32.377  0.00  0.00     0.057 C 
ATOM      6  C   UNK d   1      49.086 103.853  32.391  0.00  0.00     0.073 C 
ATOM      7  N   UNK d   1      50.266 104.547  32.073  0.00  0.00    -0.407 N 
ATOM      8  C   UNK d   1      51.204 104.857  33.063  0.00  0.00     0.121 C 
ATOM      9  C   UNK d   1      50.694 105.225  34.405  0.00  0.00     0.080 C 
ATOM     10  C   UNK d   1      49.286 104.837  34.633  0.00  0.00     0.062 A 
ATOM     11  N   UNK d   1      48.539 105.034  35.737  0.00  0.00    -0.246 NA
ATOM     12  C   UNK d   1      47.324 104.526  35.512  0.00  0.00     0.207 A 
ATOM     13  N   UNK d   1      47.307 104.008  34.263  0.00  0.00    -0.350 N 
ATOM     14  C   UNK d   1      48.518 104.193  33.704  0.00  0.00     0.063 A 
ATOM     15  C   UNK d   1      48.065 104.143  31.277  0.00  0.00     0.057 C 
ATOM     16  C   UNK d   1      47.546 102.882  30.645  0.00  0.00     0.127 C 
ATOM     17  H   UNK d   1      50.519 104.676  31.100  0.00  0.00     0.154 HD
ATOM     18  H   UNK d   1      46.494 103.546  33.819  0.00  0.00     0.166 HD
ENDROOT
BRANCH   1  19
ATOM     19  C   UNK d   1      49.633 101.017  27.936  0.00  0.00     0.210 C 
BRANCH  19  20
ATOM     20  N   UNK d   1      49.831  99.680  28.159  0.00  0.00    -0.349 N 
ATOM     21  C   UNK d   1      50.026  98.358  28.380  0.00  0.00     0.252 C 
ATOM     22  O   UNK d   1      49.186  97.523  28.805  0.00  0.00    -0.268 OA
ATOM     23  H   UNK d   1      48.541  99.593  28.633  0.00  0.00     0.163 HD
BRANCH  21  24
ATOM     24  C   UNK d   1      51.386  97.795  28.096  0.00  0.00     0.032 A 
ATOM     25  C   UNK d   1      51.490  96.702  27.288  0.00  0.00     0.018 A 
ATOM     26  C   UNK d   1      52.752  96.165  27.014  0.00  0.00     0.025 A 
ATOM     27  C   UNK d   1      53.851  96.757  27.571  0.00  0.00     0.034 A 
ATOM     28 Cl   UNK d   1      55.436  96.077  27.229  0.00  0.00    -0.084 Cl
ATOM     29  C   UNK d   1      53.748  97.850  28.381  0.00  0.00     0.025 A 
ATOM     30  C   UNK d   1      52.472  98.384  28.650  0.00  0.00     0.018 A 
ENDBRANCH  21  24
ENDBRANCH  19  20
ENDBRANCH   1  19
TORSDOF 3
ENDMDL
