/Users/jonathanwahrer/Desktop/Msc/3_Semester/Drug_Design_Praktikum/waehrer_HTS_screening/HTS_experiment/out/docking_results/vina_output/3npc/1518_docked.pdbqt
 OpenBabel03192220313D

 31 34  0  0  1  0  0  0  0  0999 V2000
   48.9970  101.3900   28.5790 C   0  0  0  0  0  0  0  0  0  0  0  0
   47.9980  101.4490   27.8220 O   0  0  0  0  0  0  0  0  0  0  0  0
   48.9800  102.0360   29.8370 N   0  0  0  0  0  0  0  0  0  0  0  0
   50.1010  102.0060   30.7550 C   0  0  0  0  0  2  0  0  0  0  0  0
   49.5410  102.0300   32.1690 C   0  0  0  0  0  2  0  0  0  0  0  0
   48.7960  103.3400   32.4240 C   0  0  1  0  0  0  0  0  0  0  0  0
   47.7020  103.0300   33.2980 N   0  0  0  0  0  0  0  0  0  0  0  0
   47.2140  104.2010   33.9930 C   0  0  0  0  0  2  0  0  0  0  0  0
   48.2540  104.6180   35.0310 C   0  0  0  0  0  2  0  0  0  0  0  0
   49.4990  104.9270   34.2710 C   0  0  0  0  0  0  0  0  0  0  0  0
   50.5500  105.7570   34.5460 N   0  0  0  0  0  0  0  0  0  0  0  0
   51.4220  105.6700   33.5260 C   0  0  0  0  0  3  0  0  0  0  0  0
   50.9240  104.8000   32.6290 N   0  0  0  0  0  0  0  0  0  0  0  0
   49.7220  104.3140   33.0590 C   0  0  0  0  0  0  0  0  0  0  0  0
   48.2520  103.9070   31.1300 C   0  0  0  0  0  2  0  0  0  0  0  0
   47.8030  102.7690   30.2620 C   0  0  0  0  0  2  0  0  0  0  0  0
   46.9240  102.5630   32.7920 H   0  0  0  0  0  0  0  0  0  0  0  0
   50.5880  106.3250   35.4220 H   0  0  0  0  0  0  0  0  0  0  0  0
   50.1820  100.6340   28.1160 C   0  0  0  0  0  2  0  0  0  0  0  0
   50.0830   99.1690   28.4020 C   0  0  0  0  0  2  0  0  0  0  0  0
   51.0980   98.4560   27.6520 N   0  0  0  0  0  0  0  0  0  0  0  0
   52.3180   98.0440   28.1890 C   0  0  0  0  0  0  0  0  0  0  0  0
   52.5910   98.2840   29.3920 O   0  0  0  0  0  0  0  0  0  0  0  0
   50.8560   98.2610   26.6510 H   0  0  0  0  0  0  0  0  0  0  0  0
   53.3200   97.3290   27.4020 C   0  0  0  0  0  0  0  0  0  0  0  0
   54.5590   97.8650   27.1280 C   0  0  0  0  0  3  0  0  0  0  0  0
   55.4690   97.1380   26.3750 C   0  0  0  0  0  3  0  0  0  0  0  0
   55.1640   95.8760   25.8860 C   0  0  0  0  0  0  0  0  0  0  0  0
   56.3720   95.0270   24.9420 Cl  0  0  0  0  0  0  0  0  0  0  0  0
   53.9260   95.3290   26.1530 C   0  0  0  0  0  3  0  0  0  0  0  0
   53.0410   96.0590   26.8980 C   0  0  0  0  0  3  0  0  0  0  0  0
  1  3  1  0  0  0  0
  2  1  2  0  0  0  0
  3 16  1  0  0  0  0
  3  4  1  0  0  0  0
  4  5  1  0  0  0  0
  5  6  1  0  0  0  0
  6 15  1  6  0  0  0
  6 14  1  0  0  0  0
  6  7  1  0  0  0  0
  7  8  1  0  0  0  0
  8  9  1  0  0  0  0
 10 11  1  0  0  0  0
 10  9  1  0  0  0  0
 11 18  1  0  0  0  0
 12 11  1  0  0  0  0
 13 14  1  0  0  0  0
 13 12  2  0  0  0  0
 14 10  2  0  0  0  0
 16 15  1  0  0  0  0
 17  7  1  0  0  0  0
 19 20  1  0  0  0  0
 19  1  1  0  0  0  0
 21 22  1  0  0  0  0
 21 20  1  0  0  0  0
 22 23  2  0  0  0  0
 24 21  1  0  0  0  0
 25 22  1  0  0  0  0
 26 25  1  0  0  0  0
 27 26  2  0  0  0  0
 28 30  2  0  0  0  0
 28 27  1  0  0  0  0
 29 28  1  0  0  0  0
 30 31  1  0  0  0  0
 31 25  2  0  0  0  0
M  END
>  <Pose>
1

>  <Score>
-9.059

$$$$
