MODEL 1
REMARK VINA RESULT:    -8.635      0.000      0.000
REMARK INTER + INTRA:          -8.994
REMARK INTER:                  -9.897
REMARK INTRA:                   0.902
REMARK UNBOUND:                 0.902
REMARK  3 active torsions:
REMARK  status: ('A' for Active; 'I' for Inactive)
REMARK    1  A    between atoms: N_12  and  C_15 
REMARK    2  A    between atoms: C_15  and  C_16 
REMARK    3  A    between atoms: C_16  and  O_21 
ROOT
ATOM      1 Cl   UNK d   1      54.873  93.956  26.768  0.00  0.00    -0.082 Cl
ATOM      2  C   UNK d   1      54.861  95.705  26.869  0.00  0.00     0.061 A 
ATOM      3  C   UNK d   1      53.671  96.361  27.069  0.00  0.00     0.065 A 
ATOM      4  N   UNK d   1      52.394  95.973  27.220  0.00  0.00    -0.357 N 
ATOM      5  C   UNK d   1      51.574  97.028  27.392  0.00  0.00     0.020 A 
ATOM      6  C   UNK d   1      52.389  98.139  27.345  0.00  0.00    -0.006 A 
ATOM      7  C   UNK d   1      53.693  97.744  27.144  0.00  0.00     0.002 A 
ATOM      8  C   UNK d   1      54.896  98.409  27.019  0.00  0.00     0.014 A 
ATOM      9  C   UNK d   1      56.098  97.777  26.819  0.00  0.00     0.003 A 
ATOM     10  C   UNK d   1      56.071  96.388  26.743  0.00  0.00     0.026 A 
ATOM     11  C   UNK d   1      51.705  99.445  27.516  0.00  0.00     0.158 C 
ATOM     12  N   UNK d   1      50.912  99.292  28.714  0.00  0.00    -0.405 N 
ATOM     13  C   UNK d   1      49.845  98.375  28.607  0.00  0.00     0.123 C 
ATOM     14  C   UNK d   1      50.133  97.286  27.599  0.00  0.00     0.077 C 
ATOM     15  H   UNK d   1      52.030  94.979  27.212  0.00  0.00     0.166 HD
ENDROOT
BRANCH  12  16
ATOM     16  C   UNK d   1      50.726 100.466  29.455  0.00  0.00     0.156 C 
BRANCH  16  17
ATOM     17  C   UNK d   1      49.617 101.326  28.931  0.00  0.00     0.101 A 
ATOM     18  C   UNK d   1      48.332 100.596  28.749  0.00  0.00     0.308 A 
ATOM     19  N   UNK d   1      47.292 101.232  29.481  0.00  0.00     0.086 N 
ATOM     20  C   UNK d   1      47.833 102.335  30.206  0.00  0.00     0.272 A 
ATOM     21  H   UNK d   1      46.464 101.501  28.898  0.00  0.00     0.315 HD
ATOM     22  C   UNK d   1      49.303 102.381  29.957  0.00  0.00     0.071 A 
BRANCH  17  23
ATOM     23  O   UNK d   1      50.011 102.001  27.768  0.00  0.00    -0.386 OA
ATOM     24  H   UNK d   1      50.997 102.101  27.833  0.00  0.00     0.210 HD
ENDBRANCH  17  23
ENDBRANCH  16  17
ENDBRANCH  12  16
TORSDOF 3
ENDMDL
