MODEL 1
REMARK VINA RESULT:    -9.202      0.000      0.000
REMARK INTER + INTRA:         -11.301
REMARK INTER:                 -10.816
REMARK INTRA:                  -0.485
REMARK UNBOUND:                -0.485
REMARK  3 active torsions:
REMARK  status: ('A' for Active; 'I' for Inactive)
REMARK    1  A    between atoms: C_4  and  N_8 
REMARK    2  A    between atoms: C_11  and  C_13 
REMARK       I    between atoms: C_13  and  N_15 
REMARK       I    between atoms: N_18  and  C_21 
REMARK    3  A    between atoms: C_21  and  C_23 
ROOT
ATOM      1  C   UNK d   1      49.123  98.402  29.007  0.00  0.00     0.275 C 
ATOM      2  O   UNK d   1      48.458  97.380  29.400  0.00  0.00    -0.266 OA
ATOM      3  N   UNK d   1      48.476  99.609  28.739  0.00  0.00    -0.344 N 
ATOM      4  C   UNK d   1      47.051  99.704  28.899  0.00  0.00     0.146 C 
ATOM      5  C   UNK d   1      46.762 100.644  30.037  0.00  0.00     0.145 C 
ATOM      6  N   UNK d   1      47.591 101.810  29.915  0.00  0.00    -0.349 N 
ATOM      7  C   UNK d   1      48.218 102.009  28.594  0.00  0.00     0.145 C 
ATOM      8  C   UNK d   1      49.125 100.823  28.296  0.00  0.00     0.146 C 
ATOM      9  C   UNK d   1      47.875 102.763  30.893  0.00  0.00     0.224 C 
ATOM     10  O   UNK d   1      48.630 103.743  30.499  0.00  0.00    -0.273 OA
ENDROOT
BRANCH   1  11
ATOM     11  C   UNK d   1      50.582  98.187  28.871  0.00  0.00     0.166 A 
ATOM     12  N   UNK d   1      51.547  98.563  29.723  0.00  0.00    -0.125 NA
ATOM     13  N   UNK d   1      52.714  98.189  29.248  0.00  0.00    -0.060 NA
ATOM     14  N   UNK d   1      52.563  97.560  28.078  0.00  0.00    -0.224 N 
ATOM     15  C   UNK d   1      51.240  97.557  27.842  0.00  0.00     0.159 A 
BRANCH  14  16
ATOM     16  C   UNK d   1      53.602  97.019  27.280  0.00  0.00     0.060 A 
ATOM     17  C   UNK d   1      54.761  97.727  27.069  0.00  0.00     0.050 A 
ATOM     18  C   UNK d   1      55.778  97.175  26.278  0.00  0.00     0.013 A 
ATOM     19 Br   UNK d   1      57.392  98.144  25.974  0.00  0.00    -0.051 Br
ATOM     20  C   UNK d   1      55.633  95.937  25.711  0.00  0.00     0.019 A 
ATOM     21  C   UNK d   1      54.478  95.222  25.916  0.00  0.00     0.004 A 
ATOM     22  C   UNK d   1      53.468  95.781  26.709  0.00  0.00     0.032 A 
ENDBRANCH  14  16
ENDBRANCH   1  11
BRANCH   9  23
ATOM     23  C   UNK d   1      47.461 102.839  32.289  0.00  0.00     0.078 A 
ATOM     24  C   UNK d   1      48.365 102.687  33.429  0.00  0.00     0.015 A 
ATOM     25  C   UNK d   1      47.671 104.020  33.163  0.00  0.00     0.015 A 
ENDBRANCH   9  23
TORSDOF 3
ENDMDL
