/Users/jonathanwahrer/Desktop/Msc/3_Semester/Drug_Design_Praktikum/waehrer_HTS_screening/HTS_experiment/out/docking_results/vina_output/3npc/1523_docked.pdbqt
 OpenBabel03192220323D

 25 28  0  0  0  0  0  0  0  0999 V2000
   49.1230   98.4020   29.0070 C   0  0  0  0  0  0  0  0  0  0  0  0
   48.4580   97.3800   29.4000 O   0  0  0  0  0  0  0  0  0  0  0  0
   48.4760   99.6090   28.7390 N   0  0  0  0  0  0  0  0  0  0  0  0
   47.0510   99.7040   28.8990 C   0  0  0  0  0  2  0  0  0  0  0  0
   46.7620  100.6440   30.0370 C   0  0  0  0  0  2  0  0  0  0  0  0
   47.5910  101.8100   29.9150 N   0  0  0  0  0  0  0  0  0  0  0  0
   48.2180  102.0090   28.5940 C   0  0  0  0  0  2  0  0  0  0  0  0
   49.1250  100.8230   28.2960 C   0  0  0  0  0  2  0  0  0  0  0  0
   47.8750  102.7630   30.8930 C   0  0  0  0  0  0  0  0  0  0  0  0
   48.6300  103.7430   30.4990 O   0  0  0  0  0  0  0  0  0  0  0  0
   50.5820   98.1870   28.8710 C   0  0  0  0  0  0  0  0  0  0  0  0
   51.5470   98.5630   29.7230 N   0  0  0  0  0  0  0  0  0  0  0  0
   52.7140   98.1890   29.2480 N   0  0  0  0  0  0  0  0  0  0  0  0
   52.5630   97.5600   28.0780 N   0  0  0  0  0  0  0  0  0  0  0  0
   51.2400   97.5570   27.8420 C   0  0  0  0  0  3  0  0  0  0  0  0
   53.6020   97.0190   27.2800 C   0  0  0  0  0  0  0  0  0  0  0  0
   54.7610   97.7270   27.0690 C   0  0  0  0  0  3  0  0  0  0  0  0
   55.7780   97.1750   26.2780 C   0  0  0  0  0  0  0  0  0  0  0  0
   57.3920   98.1440   25.9740 Br  0  0  0  0  0  0  0  0  0  0  0  0
   55.6330   95.9370   25.7110 C   0  0  0  0  0  3  0  0  0  0  0  0
   54.4780   95.2220   25.9160 C   0  0  0  0  0  3  0  0  0  0  0  0
   53.4680   95.7810   26.7090 C   0  0  0  0  0  3  0  0  0  0  0  0
   47.4610  102.8390   32.2890 C   0  0  0  0  0  3  0  0  0  0  0  0
   48.3650  102.6870   33.4290 C   0  0  0  0  0  2  0  0  0  0  0  0
   47.6710  104.0200   33.1630 C   0  0  0  0  0  2  0  0  0  0  0  0
  1  2  2  0  0  0  0
  3  4  1  0  0  0  0
  3  1  1  0  0  0  0
  4  5  1  0  0  0  0
  6  5  1  0  0  0  0
  6  9  1  0  0  0  0
  7  6  1  0  0  0  0
  8  7  1  0  0  0  0
  8  3  1  0  0  0  0
  9 23  1  0  0  0  0
 10  9  2  0  0  0  0
 11  1  1  0  0  0  0
 11 12  1  0  0  0  0
 13 12  2  0  0  0  0
 14 13  1  0  0  0  0
 15 14  1  0  0  0  0
 15 11  2  0  0  0  0
 16 14  1  0  0  0  0
 17 16  1  0  0  0  0
 18 17  2  0  0  0  0
 19 18  1  0  0  0  0
 20 21  2  0  0  0  0
 20 18  1  0  0  0  0
 21 22  1  0  0  0  0
 22 16  2  0  0  0  0
 23 25  1  0  0  0  0
 23 24  1  0  0  0  0
 25 24  1  0  0  0  0
M  END
>  <Pose>
1

>  <Score>
-9.202

$$$$
