MODEL 1
REMARK VINA RESULT:    -8.546      0.000      0.000
REMARK INTER + INTRA:         -10.132
REMARK INTER:                 -10.045
REMARK INTRA:                  -0.087
REMARK UNBOUND:                -0.087
REMARK  3 active torsions:
REMARK  status: ('A' for Active; 'I' for Inactive)
REMARK    1  A    between atoms: C_4  and  N_8 
REMARK    2  A    between atoms: C_11  and  N_15 
REMARK    3  A    between atoms: N_18  and  C_21 
ROOT
ATOM      1  N   UNK d   1      50.694  97.781  28.456  0.00  0.00    -0.251 N 
ATOM      2  C   UNK d   1      50.507  98.688  29.536  0.00  0.00     0.254 C 
ATOM      3  O   UNK d   1      51.419  99.004  30.338  0.00  0.00    -0.270 OA
ATOM      4  C   UNK d   1      49.117  99.124  29.487  0.00  0.00     0.181 C 
ATOM      5  C   UNK d   1      48.406  97.932  28.881  0.00  0.00     0.138 C 
ATOM      6  C   UNK d   1      49.425  97.236  28.073  0.00  0.00     0.233 C 
ATOM      7  O   UNK d   1      49.240  96.336  27.212  0.00  0.00    -0.273 OA
ENDROOT
BRANCH   4   8
ATOM      8  N   UNK d   1      48.855 100.327  28.805  0.00  0.00    -0.397 N 
ATOM      9  C   UNK d   1      49.925 101.216  28.596  0.00  0.00     0.138 C 
ATOM     10  C   UNK d   1      49.893 102.287  29.696  0.00  0.00     0.161 C 
ATOM     11  N   UNK d   1      48.588 102.294  30.337  0.00  0.00    -0.211 N 
ATOM     12  C   UNK d   1      47.368 102.036  29.598  0.00  0.00     0.161 C 
ATOM     13  C   UNK d   1      47.558 100.830  28.709  0.00  0.00     0.138 C 
BRANCH  11  14
ATOM     14  C   UNK d   1      48.459 102.539  31.744  0.00  0.00     0.724 A 
ATOM     15  N   UNK d   1      49.497 102.335  32.583  0.00  0.00    -0.075 NA
ATOM     16  C   UNK d   1      49.374 102.583  33.902  0.00  0.00     0.138 A 
ATOM     17  C   UNK d   1      48.185 103.057  34.444  0.00  0.00     0.040 A 
ATOM     18  C   UNK d   1      47.126 103.265  33.578  0.00  0.00     0.138 A 
ATOM     19  N   UNK d   1      47.311 102.999  32.273  0.00  0.00    -0.075 NA
ENDBRANCH  11  14
ENDBRANCH   4   8
BRANCH   1  20
ATOM     20  C   UNK d   1      51.960  97.489  27.864  0.00  0.00     0.046 A 
ATOM     21  C   UNK d   1      52.238  96.300  27.223  0.00  0.00     0.049 A 
ATOM     22  C   UNK d   1      53.489  96.063  26.658  0.00  0.00     0.013 A 
ATOM     23 Br   UNK d   1      53.883  94.426  25.772  0.00  0.00    -0.051 Br
ATOM     24  C   UNK d   1      54.482  97.015  26.727  0.00  0.00     0.019 A 
ATOM     25  C   UNK d   1      54.226  98.206  27.362  0.00  0.00     0.004 A 
ATOM     26  C   UNK d   1      52.990  98.421  27.910  0.00  0.00     0.030 A 
ENDBRANCH   1  20
TORSDOF 3
ENDMDL
