MODEL 1
REMARK VINA RESULT:    -9.176      0.000      0.000
REMARK INTER + INTRA:         -11.832
REMARK INTER:                 -11.322
REMARK INTRA:                  -0.510
REMARK UNBOUND:                -0.510
REMARK  4 active torsions:
REMARK  status: ('A' for Active; 'I' for Inactive)
REMARK    1  A    between atoms: C_6  and  C_8 
REMARK    2  A    between atoms: N_11  and  C_13 
REMARK    3  A    between atoms: C_14  and  C_16 
REMARK    4  A    between atoms: C_18  and  N_22 
ROOT
ATOM      1  C   UNK d   1      54.141  86.012  20.857  0.00  0.00     0.061 A 
ATOM      2  N   UNK d   1      53.784  84.871  20.214  0.00  0.00    -0.335 N 
ATOM      3  C   UNK d   1      52.881  85.157  19.271  0.00  0.00     0.086 A 
ATOM      4  N   UNK d   1      52.622  86.500  19.266  0.00  0.00    -0.338 N 
ATOM      5  C   UNK d   1      53.397  87.007  20.239  0.00  0.00     0.123 A 
ATOM      6  C   UNK d   1      52.457  83.934  18.553  0.00  0.00     0.078 C 
ATOM      7  C   UNK d   1      53.611  83.009  18.823  0.00  0.00     0.028 C 
ATOM      8  C   UNK d   1      54.063  83.434  20.201  0.00  0.00     0.131 C 
ENDROOT
BRANCH   4   9
ATOM      9  C   UNK d   1      51.681  87.192  18.434  0.00  0.00     0.198 C 
ATOM     10  C   UNK d   1      51.947  88.491  17.878  0.00  0.00     0.113 C 
ATOM     11  O   UNK d   1      50.952  88.950  17.126  0.00  0.00    -0.194 OA
BRANCH  10  12
ATOM     12  C   UNK d   1      53.056  89.407  17.955  0.00  0.00     0.000 A 
ATOM     13  C   UNK d   1      53.364  90.033  19.185  0.00  0.00     0.050 A 
ATOM     14  C   UNK d   1      54.398  90.915  19.357  0.00  0.00     0.103 A 
ATOM     15  C   UNK d   1      55.167  91.191  18.245  0.00  0.00     0.036 A 
ATOM     16  C   UNK d   1      54.888  90.594  17.035  0.00  0.00     0.003 A 
ATOM     17  C   UNK d   1      53.833  89.696  16.866  0.00  0.00     0.014 A 
BRANCH  14  18
ATOM     18  N   UNK d   1      54.689  91.531  20.597  0.00  0.00    -0.116 N 
ATOM     19  O   UNK d   1      53.830  92.233  21.141  0.00  0.00    -0.532 OA
ATOM     20  O   UNK d   1      55.895  91.373  21.215  0.00  0.00    -0.532 OA
ENDBRANCH  14  18
ENDBRANCH  10  12
ENDBRANCH   4   9
BRANCH   1  21
ATOM     21  C   UNK d   1      55.085  86.225  21.954  0.00  0.00    -0.006 A 
ATOM     22  C   UNK d   1      56.384  86.566  21.648  0.00  0.00     0.015 A 
ATOM     23  C   UNK d   1      57.332  86.799  22.647  0.00  0.00     0.026 A 
ATOM     24  C   UNK d   1      56.957  86.685  23.965  0.00  0.00     0.055 A 
ATOM     25  C   UNK d   1      55.672  86.347  24.276  0.00  0.00     0.056 A 
ATOM     26 Cl   UNK d   1      58.170  86.984  25.211  0.00  0.00    -0.083 Cl
ATOM     27 Cl   UNK d   1      55.229  86.210  25.964  0.00  0.00    -0.083 Cl
ATOM     28  C   UNK d   1      54.739  86.118  23.270  0.00  0.00     0.039 A 
ENDBRANCH   1  21
TORSDOF 4
ENDMDL
