/Users/jonathanwahrer/Desktop/Msc/3_Semester/Drug_Design_Praktikum/waehrer_HTS_screening/HTS_experiment/out/docking_results/vina_output/3npc/1533_docked.pdbqt
 OpenBabel03192220323D

 28 31  0  0  1  0  0  0  0  0999 V2000
   54.1410   86.0120   20.8570 C   0  0  0  0  0  0  0  0  0  0  0  0
   53.7840   84.8710   20.2140 N   0  0  0  0  0  0  0  0  0  0  0  0
   52.8810   85.1570   19.2710 C   0  0  2  0  0  3  0  0  0  0  0  0
   52.6220   86.5000   19.2660 N   0  0  0  0  0  0  0  0  0  0  0  0
   53.3970   87.0070   20.2390 C   0  0  0  0  0  3  0  0  0  0  0  0
   52.4570   83.9340   18.5530 C   0  0  0  0  0  2  0  0  0  0  0  0
   53.6110   83.0090   18.8230 C   0  0  0  0  0  2  0  0  0  0  0  0
   54.0630   83.4340   20.2010 C   0  0  0  0  0  2  0  0  0  0  0  0
   51.6810   87.1920   18.4340 C   0  0  0  0  0  3  0  0  0  0  0  0
   51.9470   88.4910   17.8780 C   0  0  0  0  0  0  0  0  0  0  0  0
   50.9520   88.9500   17.1260 O   0  0  0  0  0  1  0  0  0  0  0  0
   53.0560   89.4070   17.9550 C   0  0  0  0  0  0  0  0  0  0  0  0
   53.3640   90.0330   19.1850 C   0  0  0  0  0  3  0  0  0  0  0  0
   54.3980   90.9150   19.3570 C   0  0  0  0  0  0  0  0  0  0  0  0
   55.1670   91.1910   18.2450 C   0  0  0  0  0  3  0  0  0  0  0  0
   54.8880   90.5940   17.0350 C   0  0  0  0  0  3  0  0  0  0  0  0
   53.8330   89.6960   16.8660 C   0  0  0  0  0  3  0  0  0  0  0  0
   54.6890   91.5310   20.5970 N   0  0  0  0  0  0  0  0  0  0  0  0
   53.8300   92.2330   21.1410 O   0  0  0  0  0  0  0  0  0  0  0  0
   55.8950   91.3730   21.2150 O   0  0  0  0  0  0  0  0  0  0  0  0
   55.0850   86.2250   21.9540 C   0  0  0  0  0  0  0  0  0  0  0  0
   56.3840   86.5660   21.6480 C   0  0  0  0  0  3  0  0  0  0  0  0
   57.3320   86.7990   22.6470 C   0  0  0  0  0  3  0  0  0  0  0  0
   56.9570   86.6850   23.9650 C   0  0  0  0  0  0  0  0  0  0  0  0
   55.6720   86.3470   24.2760 C   0  0  0  0  0  0  0  0  0  0  0  0
   58.1700   86.9840   25.2110 Cl  0  0  0  0  0  0  0  0  0  0  0  0
   55.2290   86.2100   25.9640 Cl  0  0  0  0  0  0  0  0  0  0  0  0
   54.7390   86.1180   23.2700 C   0  0  0  0  0  3  0  0  0  0  0  0
  1 21  1  0  0  0  0
  2  1  1  0  0  0  0
  3  6  1  1  0  0  0
  3  2  1  0  0  0  0
  4  3  1  0  0  0  0
  4  5  1  0  0  0  0
  5  1  2  0  0  0  0
  6  7  1  0  0  0  0
  7  8  1  0  0  0  0
  8  2  1  0  0  0  0
  9  4  1  0  0  0  0
 10 12  1  0  0  0  0
 10  9  2  0  0  0  0
 11 10  1  0  0  0  0
 12 13  1  0  0  0  0
 13 14  2  0  0  0  0
 14 18  1  0  0  0  0
 15 14  1  0  0  0  0
 16 15  2  0  0  0  0
 17 16  1  0  0  0  0
 17 12  2  0  0  0  0
 18 19  2  0  0  0  0
 18 20  2  0  0  0  0
 21 28  1  0  0  0  0
 22 21  2  0  0  0  0
 22 23  1  0  0  0  0
 23 24  2  0  0  0  0
 24 25  1  0  0  0  0
 24 26  1  0  0  0  0
 25 27  1  0  0  0  0
 28 25  2  0  0  0  0
M  END
>  <Pose>
1

>  <Score>
-9.176

$$$$
