/Users/jonathanwahrer/Desktop/Msc/3_Semester/Drug_Design_Praktikum/waehrer_HTS_screening/HTS_experiment/out/docking_results/vina_output/3npc/1535_docked.pdbqt
 OpenBabel03192220333D

 28 31  0  0  1  0  0  0  0  0999 V2000
   54.4760   95.8760   26.0880 C   0  0  0  0  0  0  0  0  0  0  0  0
   55.7450   96.1670   25.7610 N   0  0  0  0  0  0  0  0  0  0  0  0
   56.2160   95.2340   24.9070 C   0  0  2  0  0  3  0  0  0  0  0  0
   55.2360   94.3400   24.6870 N   0  0  0  0  0  0  0  0  0  0  0  0
   54.1320   94.7000   25.4020 C   0  0  0  0  0  3  0  0  0  0  0  0
   57.6210   95.5390   24.5480 C   0  0  0  0  0  2  0  0  0  0  0  0
   57.5960   97.0400   24.6790 C   0  0  0  0  0  2  0  0  0  0  0  0
   56.8050   97.1560   25.9930 C   0  0  0  0  0  2  0  0  0  0  0  0
   55.3310   93.1800   23.8810 C   0  0  0  0  0  2  0  0  0  0  0  0
   54.6800   93.0440   22.6100 C   0  0  2  0  0  3  0  0  0  0  0  0
   53.7410   93.9530   22.4410 O   0  0  0  0  0  1  0  0  0  0  0  0
   54.8530   92.1230   21.5110 C   0  0  0  0  0  0  0  0  0  0  0  0
   53.9660   91.9480   20.4840 C   0  0  0  0  0  3  0  0  0  0  0  0
   54.2020   91.0370   19.4500 C   0  0  0  0  0  0  0  0  0  0  0  0
   55.3370   90.2920   19.4430 C   0  0  0  0  0  3  0  0  0  0  0  0
   56.2480   90.4480   20.4650 C   0  0  0  0  0  3  0  0  0  0  0  0
   56.0270   91.3370   21.4820 C   0  0  0  0  0  3  0  0  0  0  0  0
   53.2350   90.9020   18.4070 N   0  0  0  0  0  0  0  0  0  0  0  0
   53.5830   91.0720   17.2250 O   0  0  0  0  0  0  0  0  0  0  0  0
   51.9380   90.5920   18.6640 O   0  0  0  0  0  0  0  0  0  0  0  0
   53.5350   96.5690   26.9690 C   0  0  0  0  0  0  0  0  0  0  0  0
   54.0020   97.4730   27.9280 C   0  0  0  0  0  3  0  0  0  0  0  0
   53.1660   98.1630   28.7660 C   0  0  0  0  0  3  0  0  0  0  0  0
   51.8050   97.9900   28.6940 C   0  0  0  0  0  0  0  0  0  0  0  0
   51.3130   97.1130   27.7650 C   0  0  0  0  0  0  0  0  0  0  0  0
   50.7460   98.8760   29.7690 Cl  0  0  0  0  0  0  0  0  0  0  0  0
   49.6050   96.8450   27.6150 Cl  0  0  0  0  0  0  0  0  0  0  0  0
   52.1900   96.4140   26.9120 C   0  0  0  0  0  3  0  0  0  0  0  0
  1 21  1  0  0  0  0
  2  8  1  0  0  0  0
  2  1  1  0  0  0  0
  3  6  1  1  0  0  0
  3  2  1  0  0  0  0
  4  3  1  0  0  0  0
  4  5  1  0  0  0  0
  5  1  2  0  0  0  0
  6  7  1  0  0  0  0
  7  8  1  0  0  0  0
  9  4  1  0  0  0  0
 10 11  1  1  0  0  0
 10  9  1  0  0  0  0
 12 10  1  0  0  0  0
 13 12  2  0  0  0  0
 14 13  1  0  0  0  0
 15 14  2  0  0  0  0
 15 16  1  0  0  0  0
 16 17  2  0  0  0  0
 17 12  1  0  0  0  0
 18 20  2  0  0  0  0
 18 14  1  0  0  0  0
 19 18  2  0  0  0  0
 21 22  1  0  0  0  0
 22 23  2  0  0  0  0
 24 23  1  0  0  0  0
 24 26  1  0  0  0  0
 25 24  2  0  0  0  0
 27 25  1  0  0  0  0
 28 21  2  0  0  0  0
 28 25  1  0  0  0  0
M  END
>  <Pose>
1

>  <Score>
-10.626

$$$$
