MODEL 1
REMARK VINA RESULT:    -9.272      0.000      0.000
REMARK INTER + INTRA:         -11.605
REMARK INTER:                 -10.898
REMARK INTRA:                  -0.707
REMARK UNBOUND:                -0.707
REMARK  3 active torsions:
REMARK  status: ('A' for Active; 'I' for Inactive)
REMARK    1  A    between atoms: S_1  and  N_4 
REMARK    2  A    between atoms: S_1  and  C_19 
REMARK    3  A    between atoms: C_7  and  C_10 
REMARK       I    between atoms: C_10  and  N_12 
ROOT
ATOM      1  S   UNK d   1      52.228  98.931  28.360  0.00  0.00     0.262 S 
ATOM      2  O   UNK d   1      52.118  98.279  29.742  0.00  0.00    -0.200 OA
ATOM      3  O   UNK d   1      52.887 100.279  28.664  0.00  0.00    -0.200 OA
ENDROOT
BRANCH   1   4
ATOM      4  N   UNK d   1      50.701  99.176  27.777  0.00  0.00    -0.307 N 
ATOM      5  C   UNK d   1      50.333 100.233  26.953  0.00  0.00     0.136 C 
ATOM      6  C   UNK d   1      49.810 101.461  27.626  0.00  0.00     0.034 C 
ATOM      7  C   UNK d   1      49.281 101.083  29.008  0.00  0.00     0.081 C 
ATOM      8  C   UNK d   1      48.539  99.760  28.759  0.00  0.00     0.034 C 
ATOM      9  C   UNK d   1      49.632  98.709  28.651  0.00  0.00     0.136 C 
BRANCH   7  10
ATOM     10  C   UNK d   1      48.405 102.102  29.561  0.00  0.00     0.224 C 
ATOM     11  O   UNK d   1      47.310 102.354  28.994  0.00  0.00    -0.273 OA
ATOM     12  N   UNK d   1      48.745 102.814  30.715  0.00  0.00    -0.348 N 
ATOM     13  C   UNK d   1      47.867 103.820  31.322  0.00  0.00     0.156 C 
ATOM     14  C   UNK d   1      50.007 102.611  31.371  0.00  0.00     0.156 C 
ATOM     15  C   UNK d   1      48.678 104.493  32.409  0.00  0.00     0.291 C 
ATOM     16  N   UNK d   1      49.050 103.532  33.429  0.00  0.00     0.087 N 
ATOM     17  C   UNK d   1      49.843 102.451  32.872  0.00  0.00     0.291 C 
ATOM     18  C   UNK d   1      49.754 104.175  34.518  0.00  0.00     0.310 C 
ENDBRANCH   7  10
ENDBRANCH   1   4
BRANCH   1  19
ATOM     19  C   UNK d   1      53.320  97.923  27.455  0.00  0.00     0.104 A 
ATOM     20  C   UNK d   1      54.625  98.380  27.204  0.00  0.00     0.066 A 
ATOM     21  C   UNK d   1      55.526  97.666  26.458  0.00  0.00     0.097 A 
ATOM     22  C   UNK d   1      55.161  96.465  25.931  0.00  0.00     0.070 A 
ATOM     23  O   UNK d   1      56.818  98.154  26.228  0.00  0.00    -0.340 OA
ATOM     24  C   UNK d   1      53.901  95.967  26.144  0.00  0.00     0.058 A 
ATOM     25  N   UNK d   1      56.118  95.732  25.146  0.00  0.00    -0.323 N 
ATOM     26  C   UNK d   1      53.003  96.714  26.909  0.00  0.00     0.059 A 
ATOM     27 Cl   UNK d   1      51.431  95.994  27.215  0.00  0.00    -0.083 Cl
ATOM     28  C   UNK d   1      57.411  96.272  24.939  0.00  0.00     0.246 C 
ATOM     29  H   UNK d   1      55.848  94.814  24.741  0.00  0.00     0.169 HD
ATOM     30  O   UNK d   1      58.378  95.553  24.610  0.00  0.00    -0.271 OA
ATOM     31  C   UNK d   1      57.580  97.737  25.127  0.00  0.00     0.278 C 
ENDBRANCH   1  19
TORSDOF 3
ENDMDL
