MODEL 1
REMARK VINA RESULT:    -7.902      0.000      0.000
REMARK INTER + INTRA:         -11.092
REMARK INTER:                 -10.673
REMARK INTRA:                  -0.419
REMARK UNBOUND:                -0.419
REMARK  6 active torsions:
REMARK  status: ('A' for Active; 'I' for Inactive)
REMARK    1  A    between atoms: C_5  and  C_8 
REMARK    2  A    between atoms: N_9  and  C_26 
REMARK    3  A    between atoms: C_15  and  C_17 
REMARK    4  A    between atoms: C_20  and  O_23 
REMARK    5  A    between atoms: C_26  and  C_27 
REMARK    6  A    between atoms: C_27  and  N_28 
ROOT
ATOM      1  C   UNK d   1      52.129  84.545  19.735  0.00  0.00     0.161 C 
ATOM      2  N   UNK d   1      52.453  85.971  19.598  0.00  0.00    -0.331 N 
ATOM      3  C   UNK d   1      53.602  86.165  20.409  0.00  0.00     0.295 C 
ATOM      4  O   UNK d   1      54.484  87.026  20.256  0.00  0.00    -0.264 OA
ATOM      5  C   UNK d   1      53.539  85.152  21.457  0.00  0.00     0.250 C 
ATOM      6  O   UNK d   1      54.329  84.912  22.418  0.00  0.00    -0.282 OA
ATOM      7  C   UNK d   1      52.311  84.382  21.207  0.00  0.00     0.062 C 
ATOM      8  C   UNK d   1      51.608  83.709  22.097  0.00  0.00     0.130 C 
ATOM      9  O   UNK d   1      50.487  83.000  21.658  0.00  0.00    -0.190 OA
ENDROOT
BRANCH   1  10
ATOM     10  C   UNK d   1      53.183  83.817  18.987  0.00  0.00    -0.030 A 
ATOM     11  C   UNK d   1      53.748  82.659  19.478  0.00  0.00     0.011 A 
ATOM     12  C   UNK d   1      54.729  81.963  18.803  0.00  0.00     0.024 A 
ATOM     13  C   UNK d   1      55.192  82.411  17.579  0.00  0.00     0.034 A 
ATOM     14 Cl   UNK d   1      56.444  81.535  16.701  0.00  0.00    -0.084 Cl
ATOM     15  C   UNK d   1      54.642  83.562  17.072  0.00  0.00     0.024 A 
ATOM     16  C   UNK d   1      53.664  84.254  17.747  0.00  0.00     0.011 A 
ENDBRANCH   1  10
BRANCH   8  17
ATOM     17  C   UNK d   1      51.943  83.678  23.513  0.00  0.00     0.002 A 
ATOM     18  C   UNK d   1      52.667  82.641  24.077  0.00  0.00     0.024 A 
ATOM     19  C   UNK d   1      52.960  82.602  25.425  0.00  0.00    -0.028 A 
ATOM     20  C   UNK d   1      52.532  83.614  26.273  0.00  0.00     0.074 A 
ATOM     21  C   UNK d   1      53.737  81.473  25.984  0.00  0.00     0.051 C 
ATOM     22  C   UNK d   1      51.811  84.649  25.724  0.00  0.00     0.038 A 
ATOM     23  C   UNK d   1      51.521  84.678  24.357  0.00  0.00     0.017 A 
BRANCH  20  24
ATOM     24  O   UNK d   1      52.820  83.589  27.635  0.00  0.00    -0.355 OA
ATOM     25  C   UNK d   1      53.588  84.622  28.186  0.00  0.00     0.210 C 
ENDBRANCH  20  24
ENDBRANCH   8  17
BRANCH   2  26
ATOM     26  C   UNK d   1      51.740  86.964  18.794  0.00  0.00     0.155 C 
BRANCH  26  27
ATOM     27  C   UNK d   1      52.024  88.309  19.421  0.00  0.00     0.255 C 
BRANCH  27  28
ATOM     28  N   UNK d   1      52.200  89.349  18.443  0.00  0.00    -0.066 N 
ATOM     29  C   UNK d   1      53.457  89.219  17.779  0.00  0.00     0.261 C 
ATOM     30  C   UNK d   1      54.571  90.055  18.314  0.00  0.00     0.195 C 
ATOM     31  O   UNK d   1      54.197  91.263  18.838  0.00  0.00    -0.388 OA
ATOM     32  C   UNK d   1      53.189  91.161  19.788  0.00  0.00     0.195 C 
ATOM     33  C   UNK d   1      51.977  90.617  19.079  0.00  0.00     0.261 C 
ATOM     34  H   UNK d   1      51.443  89.187  17.720  0.00  0.00     0.280 HD
ENDBRANCH  27  28
ENDBRANCH  26  27
ENDBRANCH   2  26
TORSDOF 6
ENDMDL
