/Users/jonathanwahrer/Desktop/Msc/3_Semester/Drug_Design_Praktikum/waehrer_HTS_screening/HTS_experiment/out/docking_results/vina_output/3npc/1548_docked.pdbqt
 OpenBabel03192220333D

 24 27  0  0  1  0  0  0  0  0999 V2000
   55.7490   79.6700   14.9180 Cl  0  0  0  0  0  0  0  0  0  0  0  0
   55.0200   81.1540   15.5140 C   0  0  0  0  0  0  0  0  0  0  0  0
   55.0130   81.4820   16.8520 C   0  0  0  0  0  2  0  0  0  0  0  0
   54.4450   82.6350   17.3120 N   0  0  0  0  0  0  0  0  0  0  0  0
   53.8620   83.5120   16.4760 C   0  0  0  0  0  0  0  0  0  0  0  0
   53.2970   84.6580   16.9310 N   0  0  0  0  0  0  0  0  0  0  0  0
   53.2950   84.9730   18.2440 C   0  0  0  0  0  0  0  0  0  0  0  0
   53.8780   84.1060   19.1210 C   0  0  2  0  0  3  0  0  0  0  0  0
   53.9050   84.4060   20.5880 C   0  0  0  0  0  2  0  0  0  0  0  0
   53.8700   85.8770   20.6730 N   0  0  0  0  0  0  0  0  0  0  0  0
   52.6840   86.4640   20.1180 C   0  0  0  0  0  2  0  0  0  0  0  0
   52.6440   86.2580   18.6130 C   0  0  0  0  0  2  0  0  0  0  0  0
   54.9560   86.5180   21.2620 C   0  0  0  0  0  0  0  0  0  0  0  0
   55.9210   85.8050   21.7050 O   0  0  0  0  0  0  0  0  0  0  0  0
   54.4470   82.9420   18.6220 C   0  0  0  0  0  0  0  0  0  0  0  0
   54.9830   82.1430   19.4160 O   0  0  0  0  0  0  0  0  0  0  0  0
   53.8640   83.1900   15.1270 C   0  0  0  0  0  3  0  0  0  0  0  0
   54.4290   82.0340   14.6330 C   0  0  0  0  0  3  0  0  0  0  0  0
   55.1080   87.9680   21.4310 C   0  0  0  0  0  0  0  0  0  0  0  0
   54.9840   88.8240   20.4130 N   0  0  0  0  0  0  0  0  0  0  0  0
   55.1240   90.1430   20.5760 C   0  0  0  0  0  3  0  0  0  0  0  0
   55.4060   90.6980   21.8080 C   0  0  0  0  0  3  0  0  0  0  0  0
   55.5270   89.8210   22.8200 N   0  0  0  0  0  0  0  0  0  0  0  0
   55.3920   88.5020   22.6840 C   0  0  0  0  0  3  0  0  0  0  0  0
  1  2  1  0  0  0  0
  2  3  1  0  0  0  0
  3  4  1  0  0  0  0
  4 15  1  0  0  0  0
  5  6  1  0  0  0  0
  5  4  1  0  0  0  0
  6  7  2  0  0  0  0
  7 12  1  0  0  0  0
  7  8  1  0  0  0  0
  8  9  1  6  0  0  0
  9 10  1  0  0  0  0
 10 13  1  0  0  0  0
 11 10  1  0  0  0  0
 12 11  1  0  0  0  0
 13 19  1  0  0  0  0
 13 14  2  0  0  0  0
 15  8  1  0  0  0  0
 15 16  2  0  0  0  0
 17  5  2  0  0  0  0
 18 17  1  0  0  0  0
 18  2  2  0  0  0  0
 19 24  1  0  0  0  0
 20 21  1  0  0  0  0
 20 19  2  0  0  0  0
 21 22  2  0  0  0  0
 22 23  1  0  0  0  0
 24 23  2  0  0  0  0
M  END
>  <Pose>
1

>  <Score>
-8.184

$$$$
