MODEL 1
REMARK VINA RESULT:    -8.184      0.000      0.000
REMARK INTER + INTRA:          -8.771
REMARK INTER:                  -8.662
REMARK INTRA:                  -0.109
REMARK UNBOUND:                -0.109
REMARK  1 active torsions:
REMARK  status: ('A' for Active; 'I' for Inactive)
REMARK       I    between atoms: N_10  and  C_13 
REMARK    1  A    between atoms: C_13  and  C_15 
ROOT
ATOM      1 Cl   UNK d   1      55.749  79.670  14.918  0.00  0.00    -0.083 Cl
ATOM      2  C   UNK d   1      55.020  81.154  15.514  0.00  0.00     0.050 A 
ATOM      3  C   UNK d   1      55.013  81.482  16.852  0.00  0.00     0.125 A 
ATOM      4  N   UNK d   1      54.445  82.635  17.312  0.00  0.00    -0.271 N 
ATOM      5  C   UNK d   1      53.862  83.512  16.476  0.00  0.00     0.137 A 
ATOM      6  N   UNK d   1      53.297  84.658  16.931  0.00  0.00    -0.234 NA
ATOM      7  C   UNK d   1      53.295  84.973  18.244  0.00  0.00     0.051 A 
ATOM      8  C   UNK d   1      53.878  84.106  19.121  0.00  0.00     0.053 A 
ATOM      9  C   UNK d   1      53.905  84.406  20.588  0.00  0.00     0.172 C 
ATOM     10  N   UNK d   1      53.870  85.877  20.673  0.00  0.00    -0.342 N 
ATOM     11  C   UNK d   1      52.684  86.464  20.118  0.00  0.00     0.132 C 
ATOM     12  C   UNK d   1      52.644  86.258  18.613  0.00  0.00     0.080 C 
ATOM     13  C   UNK d   1      54.956  86.518  21.262  0.00  0.00     0.274 C 
ATOM     14  O   UNK d   1      55.921  85.805  21.705  0.00  0.00    -0.266 OA
ATOM     15  C   UNK d   1      54.447  82.942  18.622  0.00  0.00     0.263 A 
ATOM     16  O   UNK d   1      54.983  82.143  19.416  0.00  0.00    -0.267 OA
ATOM     17  C   UNK d   1      53.864  83.190  15.127  0.00  0.00     0.053 A 
ATOM     18  C   UNK d   1      54.429  82.034  14.633  0.00  0.00     0.029 A 
ENDROOT
BRANCH  13  19
ATOM     19  C   UNK d   1      55.108  87.968  21.431  0.00  0.00     0.141 A 
ATOM     20  N   UNK d   1      54.984  88.824  20.413  0.00  0.00    -0.253 NA
ATOM     21  C   UNK d   1      55.124  90.143  20.576  0.00  0.00     0.136 A 
ATOM     22  C   UNK d   1      55.406  90.698  21.808  0.00  0.00     0.135 A 
ATOM     23  N   UNK d   1      55.527  89.821  22.820  0.00  0.00    -0.269 NA
ATOM     24  C   UNK d   1      55.392  88.502  22.684  0.00  0.00     0.153 A 
ENDBRANCH  13  19
TORSDOF 1
ENDMDL
