MODEL 1
REMARK VINA RESULT:    -8.947      0.000      0.000
REMARK INTER + INTRA:         -10.590
REMARK INTER:                 -10.255
REMARK INTRA:                  -0.335
REMARK UNBOUND:                -0.335
REMARK  3 active torsions:
REMARK  status: ('A' for Active; 'I' for Inactive)
REMARK    1  A    between atoms: C_3  and  O_25 
REMARK    2  A    between atoms: C_4  and  C_9 
REMARK    3  A    between atoms: C_11  and  C_22 
ROOT
ATOM      1  C   UNK d   1      56.348  87.640  21.723  0.00  0.00     0.272 C 
ATOM      2  N   UNK d   1      57.070  88.014  22.879  0.00  0.00    -0.047 N 
ATOM      3  C   UNK d   1      56.898  87.197  24.045  0.00  0.00     0.291 C 
ATOM      4  C   UNK d   1      55.398  87.092  24.364  0.00  0.00     0.086 C 
ATOM      5  C   UNK d   1      54.841  86.370  23.204  0.00  0.00    -0.018 A 
ATOM      6  C   UNK d   1      53.869  85.386  23.114  0.00  0.00    -0.001 A 
ATOM      7  C   UNK d   1      53.758  85.069  21.779  0.00  0.00     0.043 A 
ATOM      8  N   UNK d   1      54.616  85.816  21.067  0.00  0.00    -0.356 N 
ATOM      9  C   UNK d   1      55.292  86.626  21.947  0.00  0.00     0.052 A 
ATOM     10  C   UNK d   1      52.842  84.096  21.421  0.00  0.00     0.030 A 
ATOM     11  C   UNK d   1      52.091  83.497  22.402  0.00  0.00     0.002 A 
ATOM     12  C   UNK d   1      52.205  83.815  23.736  0.00  0.00     0.001 A 
ATOM     13  C   UNK d   1      53.124  84.793  24.111  0.00  0.00     0.014 A 
ATOM     14  H   UNK d   1      58.111  87.984  22.632  0.00  0.00     0.279 HD
ATOM     15  H   UNK d   1      56.910  89.006  23.187  0.00  0.00     0.279 HD
ATOM     16  H   UNK d   1      54.784  85.825  20.028  0.00  0.00     0.166 HD
ENDROOT
BRANCH   1  17
ATOM     17  C   UNK d   1      55.662  88.857  21.153  0.00  0.00     0.014 A 
ATOM     18  C   UNK d   1      55.540  90.031  21.874  0.00  0.00     0.091 A 
ATOM     19  C   UNK d   1      54.907  91.147  21.320  0.00  0.00     0.046 A 
ATOM     20 Br   UNK d   1      54.743  92.761  22.333  0.00  0.00    -0.048 Br
ATOM     21  C   UNK d   1      54.391  91.109  20.053  0.00  0.00     0.041 A 
ATOM     22  C   UNK d   1      54.511  89.943  19.333  0.00  0.00     0.013 A 
ATOM     23  C   UNK d   1      55.139  88.830  19.876  0.00  0.00     0.031 A 
ATOM     24 Br   UNK d   1      53.796  89.848  17.548  0.00  0.00    -0.051 Br
BRANCH  18  25
ATOM     25  O   UNK d   1      56.019  90.179  23.150  0.00  0.00    -0.359 OA
ATOM     26  H   UNK d   1      56.962  90.225  23.424  0.00  0.00     0.217 HD
ENDBRANCH  18  25
ENDBRANCH   1  17
BRANCH   3  27
ATOM     27  C   UNK d   1      57.637  87.784  25.181  0.00  0.00     0.205 C 
ATOM     28  O   UNK d   1      57.213  88.850  25.699  0.00  0.00    -0.646 OA
ATOM     29  O   UNK d   1      58.777  87.155  25.653  0.00  0.00    -0.646 OA
ENDBRANCH   3  27
TORSDOF 3
ENDMDL
