/Users/jonathanwahrer/Desktop/Msc/3_Semester/Drug_Design_Praktikum/waehrer_HTS_screening/HTS_experiment/out/docking_results/vina_output/3npc/1571_docked.pdbqt
 OpenBabel03192220343D

 28 31  0  0  1  0  0  0  0  0999 V2000
   54.7820   85.1600   21.4320 O   0  0  0  0  0  0  0  0  0  0  0  0
   53.6070   84.8310   20.7450 C   0  0  0  0  0  2  0  0  0  0  0  0
   53.8460   83.9300   19.5930 C   0  0  0  0  0  0  0  0  0  0  0  0
   53.8390   84.3520   18.3140 N   0  0  0  0  0  0  0  0  0  0  0  0
   54.0570   83.5180   17.2940 C   0  0  0  0  0  0  0  0  0  0  0  0
   54.3030   82.1930   17.4580 N   0  0  0  0  0  0  0  0  0  0  0  0
   54.0330   84.0320   15.9990 C   0  0  0  0  0  3  0  0  0  0  0  0
   54.5180   81.3970   16.4010 C   0  0  0  0  0  3  0  0  0  0  0  0
   54.3180   81.7360   18.7370 C   0  0  0  0  0  0  0  0  0  0  0  0
   54.5000   81.8680   15.1090 C   0  0  0  0  0  0  0  0  0  0  0  0
   54.8150   80.6870   13.6190 Br  0  0  0  0  0  0  0  0  0  0  0  0
   54.2540   83.2030   14.9200 C   0  0  0  0  0  3  0  0  0  0  0  0
   54.0930   82.5880   19.8000 C   0  0  0  0  0  3  0  0  0  0  0  0
   54.5480   80.5030   18.8820 O   0  0  0  0  0  0  0  0  0  0  0  0
   55.3850   86.3970   21.4400 C   0  0  0  0  0  0  0  0  0  0  0  0
   56.6280   86.4060   21.2130 O   0  0  0  0  0  0  0  0  0  0  0  0
   54.6370   87.6560   21.6970 C   0  0  0  0  0  2  0  0  0  0  0  0
   54.5050   88.4600   20.4800 N   0  0  0  0  0  0  0  0  0  0  0  0
   53.4920   88.3580   19.4830 C   0  0  0  0  0  0  0  0  0  0  0  0
   52.4360   87.6820   19.5610 O   0  0  0  0  0  0  0  0  0  0  0  0
   53.9050   89.1930   18.3310 C   0  0  2  0  0  3  0  0  0  0  0  0
   54.6760   90.2800   19.0440 C   0  0  1  0  0  3  0  0  0  0  0  0
   52.7980   89.6680   17.4820 C   0  0  0  0  0  2  0  0  0  0  0  0
   53.7760   91.2850   19.7360 C   0  0  0  0  0  2  0  0  0  0  0  0
   55.3880   89.4910   20.0760 C   0  0  0  0  0  0  0  0  0  0  0  0
   52.3170   91.0910   19.4140 C   0  0  0  0  0  2  0  0  0  0  0  0
   52.1080   90.9040   17.9380 C   0  0  0  0  0  2  0  0  0  0  0  0
   56.5600   89.6810   20.5270 O   0  0  0  0  0  0  0  0  0  0  0  0
  1 15  1  0  0  0  0
  2  1  1  0  0  0  0
  3 13  2  0  0  0  0
  3  2  1  0  0  0  0
  4  3  1  0  0  0  0
  5  6  1  0  0  0  0
  5  4  2  0  0  0  0
  6  9  1  0  0  0  0
  7  5  1  0  0  0  0
  8  6  1  0  0  0  0
  9 14  2  0  0  0  0
  9 13  1  0  0  0  0
 10  8  2  0  0  0  0
 11 10  1  0  0  0  0
 12 10  1  0  0  0  0
 12  7  2  0  0  0  0
 15 17  1  0  0  0  0
 16 15  2  0  0  0  0
 18 17  1  0  0  0  0
 19 20  2  0  0  0  0
 19 18  1  0  0  0  0
 21 23  1  1  0  0  0
 21 22  1  0  0  0  0
 21 19  1  0  0  0  0
 22 24  1  1  0  0  0
 22 25  1  0  0  0  0
 23 27  1  0  0  0  0
 25 18  1  0  0  0  0
 25 28  2  0  0  0  0
 26 24  1  0  0  0  0
 27 26  1  0  0  0  0
M  END
>  <Pose>
1

>  <Score>
-9.228

$$$$
