MODEL 1
REMARK VINA RESULT:    -9.228      0.000      0.000
REMARK INTER + INTRA:         -12.803
REMARK INTER:                 -11.926
REMARK INTRA:                  -0.877
REMARK UNBOUND:                -0.877
REMARK  5 active torsions:
REMARK  status: ('A' for Active; 'I' for Inactive)
REMARK    1  A    between atoms: C_7  and  C_11 
REMARK    2  A    between atoms: C_11  and  O_12 
REMARK    3  A    between atoms: O_12  and  C_13 
REMARK    4  A    between atoms: C_13  and  C_15 
REMARK    5  A    between atoms: C_15  and  N_16 
ROOT
ATOM      1  O   UNK d   1      54.782  85.160  21.432  0.00  0.00    -0.314 OA
ENDROOT
BRANCH   1   2
ATOM      2  C   UNK d   1      53.607  84.831  20.745  0.00  0.00     0.238 C 
BRANCH   2   3
ATOM      3  C   UNK d   1      53.846  83.930  19.593  0.00  0.00     0.066 A 
ATOM      4  N   UNK d   1      53.839  84.352  18.314  0.00  0.00    -0.233 NA
ATOM      5  C   UNK d   1      54.057  83.518  17.294  0.00  0.00     0.137 A 
ATOM      6  N   UNK d   1      54.303  82.193  17.458  0.00  0.00    -0.272 N 
ATOM      7  C   UNK d   1      54.033  84.032  15.999  0.00  0.00     0.052 A 
ATOM      8  C   UNK d   1      54.518  81.397  16.401  0.00  0.00     0.121 A 
ATOM      9  C   UNK d   1      54.318  81.736  18.737  0.00  0.00     0.255 A 
ATOM     10  C   UNK d   1      54.500  81.868  15.109  0.00  0.00     0.027 A 
ATOM     11 Br   UNK d   1      54.815  80.687  13.619  0.00  0.00    -0.050 Br
ATOM     12  C   UNK d   1      54.254  83.203  14.920  0.00  0.00     0.024 A 
ATOM     13  C   UNK d   1      54.093  82.588  19.800  0.00  0.00     0.104 A 
ATOM     14  O   UNK d   1      54.548  80.503  18.882  0.00  0.00    -0.268 OA
ENDBRANCH   2   3
ENDBRANCH   1   2
BRANCH   1  15
ATOM     15  C   UNK d   1      55.385  86.397  21.440  0.00  0.00     0.277 C 
ATOM     16  O   UNK d   1      56.628  86.406  21.213  0.00  0.00    -0.263 OA
BRANCH  15  17
ATOM     17  C   UNK d   1      54.637  87.656  21.697  0.00  0.00     0.245 C 
BRANCH  17  18
ATOM     18  N   UNK d   1      54.505  88.460  20.480  0.00  0.00    -0.278 N 
ATOM     19  C   UNK d   1      53.492  88.358  19.483  0.00  0.00     0.232 C 
ATOM     20  O   UNK d   1      52.436  87.682  19.561  0.00  0.00    -0.273 OA
ATOM     21  C   UNK d   1      53.905  89.193  18.331  0.00  0.00     0.091 C 
ATOM     22  C   UNK d   1      54.676  90.280  19.044  0.00  0.00     0.091 C 
ATOM     23  C   UNK d   1      52.798  89.668  17.482  0.00  0.00     0.015 C 
ATOM     24  C   UNK d   1      53.776  91.285  19.736  0.00  0.00     0.015 C 
ATOM     25  C   UNK d   1      55.388  89.491  20.076  0.00  0.00     0.232 C 
ATOM     26  C   UNK d   1      52.317  91.091  19.414  0.00  0.00     0.001 C 
ATOM     27  C   UNK d   1      52.108  90.904  17.938  0.00  0.00     0.001 C 
ATOM     28  O   UNK d   1      56.560  89.681  20.527  0.00  0.00    -0.273 OA
ENDBRANCH  17  18
ENDBRANCH  15  17
ENDBRANCH   1  15
TORSDOF 5
ENDMDL
