MODEL 1
REMARK VINA RESULT:    -9.002      0.000      0.000
REMARK INTER + INTRA:         -11.915
REMARK INTER:                 -11.371
REMARK INTRA:                  -0.545
REMARK UNBOUND:                -0.545
REMARK  5 active torsions:
REMARK  status: ('A' for Active; 'I' for Inactive)
REMARK    1  A    between atoms: C_7  and  C_11 
REMARK    2  A    between atoms: C_11  and  N_12 
REMARK    3  A    between atoms: C_17  and  C_21 
REMARK    4  A    between atoms: C_21  and  O_22 
REMARK    5  A    between atoms: C_21  and  C_23 
ROOT
ATOM      1  N   UNK d   1      51.005  98.222  27.738  0.00  0.00    -0.400 N 
ATOM      2  C   UNK d   1      49.767  97.645  28.058  0.00  0.00     0.139 C 
ATOM      3  C   UNK d   1      48.951  98.372  29.075  0.00  0.00     0.170 C 
ATOM      4  N   UNK d   1      49.226  99.802  29.079  0.00  0.00    -0.270 N 
ATOM      5  N   UNK d   1      48.613 100.717  29.827  0.00  0.00    -0.174 NA
ATOM      6  C   UNK d   1      49.130 101.921  29.561  0.00  0.00     0.085 A 
ATOM      7  C   UNK d   1      50.102 101.739  28.610  0.00  0.00     0.060 A 
ATOM      8  C   UNK d   1      50.159 100.375  28.303  0.00  0.00     0.050 A 
ATOM      9  C   UNK d   1      51.000  99.592  27.364  0.00  0.00     0.176 C 
ENDROOT
BRANCH   1  10
ATOM     10  C   UNK d   1      52.159  97.730  28.366  0.00  0.00     0.177 C 
BRANCH  10  11
ATOM     11  C   UNK d   1      53.188  97.156  27.489  0.00  0.00     0.059 A 
ATOM     12  N   UNK d   1      54.373  97.738  27.231  0.00  0.00    -0.233 NA
ATOM     13  C   UNK d   1      55.292  97.183  26.420  0.00  0.00     0.137 A 
ATOM     14  N   UNK d   1      55.096  96.005  25.806  0.00  0.00    -0.272 N 
ATOM     15  C   UNK d   1      56.484  97.891  26.235  0.00  0.00     0.053 A 
ATOM     16  C   UNK d   1      56.028  95.451  24.990  0.00  0.00     0.125 A 
ATOM     17  C   UNK d   1      53.925  95.375  26.027  0.00  0.00     0.255 A 
ATOM     18  C   UNK d   1      57.203  96.144  24.804  0.00  0.00     0.050 A 
ATOM     19 Cl   UNK d   1      58.414  95.431  23.748  0.00  0.00    -0.083 Cl
ATOM     20  C   UNK d   1      57.447  97.357  25.415  0.00  0.00     0.029 A 
ATOM     21  C   UNK d   1      52.985  95.942  26.856  0.00  0.00     0.103 A 
ATOM     22  O   UNK d   1      53.696  94.258  25.467  0.00  0.00    -0.268 OA
ENDBRANCH  10  11
ENDBRANCH   1  10
BRANCH   6  23
ATOM     23  C   UNK d   1      48.719 103.215  30.189  0.00  0.00     0.171 C 
BRANCH  23  24
ATOM     24  O   UNK d   1      47.348 103.392  29.944  0.00  0.00    -0.389 OA
ATOM     25  H   UNK d   1      47.076 102.917  29.106  0.00  0.00     0.210 HD
ENDBRANCH  23  24
BRANCH  23  26
ATOM     26  C   UNK d   1      48.861 103.128  31.706  0.00  0.00     0.034 C 
ATOM     27  C   UNK d   1      50.335 103.267  32.057  0.00  0.00     0.008 C 
ENDBRANCH  23  26
ENDBRANCH   6  23
TORSDOF 5
ENDMDL
