MODEL 1
REMARK VINA RESULT:    -8.938      0.000      0.000
REMARK INTER + INTRA:         -11.271
REMARK INTER:                 -10.505
REMARK INTRA:                  -0.766
REMARK UNBOUND:                -0.766
REMARK  3 active torsions:
REMARK  status: ('A' for Active; 'I' for Inactive)
REMARK    1  A    between atoms: C_5  and  C_8 
REMARK       I    between atoms: C_8  and  N_10 
REMARK    2  A    between atoms: C_18  and  C_22 
REMARK    3  A    between atoms: C_22  and  C_23 
ROOT
ATOM      1  C   UNK d   1      55.606  89.417  20.202  0.00  0.00     0.187 C 
ATOM      2  O   UNK d   1      56.772  89.952  19.875  0.00  0.00    -0.171 OA
ATOM      3  N   UNK d   1      55.670  88.265  21.003  0.00  0.00    -0.355 N 
ATOM      4  C   UNK d   1      54.544  87.521  21.443  0.00  0.00     0.160 C 
ATOM      5  C   UNK d   1      55.035  86.219  22.099  0.00  0.00     0.197 C 
ATOM      6  N   UNK d   1      55.892  86.631  23.180  0.00  0.00    -0.334 N 
ATOM      7  C   UNK d   1      57.050  87.392  22.846  0.00  0.00     0.147 C 
ATOM      8  C   UNK d   1      57.013  87.843  21.401  0.00  0.00     0.145 C 
ATOM      9  C   UNK d   1      55.591  86.294  24.510  0.00  0.00     0.243 C 
ATOM     10  O   UNK d   1      56.503  86.314  25.357  0.00  0.00    -0.271 OA
ATOM     11  C   UNK d   1      54.203  85.927  24.857  0.00  0.00     0.182 C 
ATOM     12  N   UNK d   1      53.760  84.993  23.865  0.00  0.00    -0.346 N 
ATOM     13  C   UNK d   1      53.936  85.343  22.504  0.00  0.00     0.243 C 
ATOM     14  O   UNK d   1      53.155  84.912  21.599  0.00  0.00    -0.271 OA
ATOM     15  H   UNK d   1      53.315  84.074  24.112  0.00  0.00     0.163 HD
ENDROOT
BRANCH   1  16
ATOM     16  C   UNK d   1      54.496  90.145  19.652  0.00  0.00     0.018 A 
ATOM     17  C   UNK d   1      53.935  91.302  20.132  0.00  0.00     0.017 A 
ATOM     18  C   UNK d   1      52.830  91.934  19.559  0.00  0.00     0.025 A 
ATOM     19  C   UNK d   1      52.250  91.398  18.456  0.00  0.00     0.034 A 
ATOM     20 Cl   UNK d   1      50.847  92.168  17.699  0.00  0.00    -0.084 Cl
ATOM     21  C   UNK d   1      52.763  90.243  17.925  0.00  0.00     0.025 A 
ATOM     22  C   UNK d   1      53.856  89.637  18.509  0.00  0.00     0.017 A 
ENDBRANCH   1  16
BRANCH  11  23
ATOM     23  C   UNK d   1      54.025  85.489  26.261  0.00  0.00     0.095 C 
BRANCH  23  24
ATOM     24  C   UNK d   1      52.811  84.667  26.384  0.00  0.00     0.053 A 
ATOM     25  N   UNK d   1      52.647  83.372  26.102  0.00  0.00    -0.247 NA
ATOM     26  C   UNK d   1      51.355  83.015  26.364  0.00  0.00     0.207 A 
ATOM     27  N   UNK d   1      50.698  84.087  26.811  0.00  0.00    -0.359 N 
ATOM     28  C   UNK d   1      51.564  85.105  26.832  0.00  0.00     0.116 A 
ATOM     29  H   UNK d   1      49.714  84.127  27.088  0.00  0.00     0.166 HD
ENDBRANCH  23  24
ENDBRANCH  11  23
TORSDOF 3
ENDMDL
