MODEL 1
REMARK VINA RESULT:    -7.985      0.000      0.000
REMARK INTER + INTRA:          -9.998
REMARK INTER:                  -9.386
REMARK INTRA:                  -0.613
REMARK UNBOUND:                -0.613
REMARK  3 active torsions:
REMARK  status: ('A' for Active; 'I' for Inactive)
REMARK    1  A    between atoms: C_3  and  N_15 
REMARK    2  A    between atoms: N_6  and  C_9 
REMARK    3  A    between atoms: N_18  and  C_21 
ROOT
ATOM      1 Cl   UNK d   1      54.601  86.312  22.009  0.00  0.00    -0.076 Cl
ATOM      2  C   UNK d   1      53.695  86.664  20.554  0.00  0.00     0.131 A 
ATOM      3  C   UNK d   1      52.816  85.747  20.051  0.00  0.00     0.077 A 
ATOM      4  C   UNK d   1      52.161  86.131  18.878  0.00  0.00     0.170 A 
ATOM      5  N   UNK d   1      52.402  87.325  18.314  0.00  0.00    -0.174 NA
ATOM      6  N   UNK d   1      53.242  88.221  18.782  0.00  0.00    -0.197 N 
ATOM      7  C   UNK d   1      53.894  87.895  19.906  0.00  0.00     0.292 A 
ATOM      8  O   UNK d   1      54.718  88.686  20.431  0.00  0.00    -0.264 OA
ENDROOT
BRANCH   3   9
ATOM      9  N   UNK d   1      52.552  84.500  20.665  0.00  0.00    -0.375 N 
ATOM     10  C   UNK d   1      51.310  84.213  21.363  0.00  0.00     0.143 C 
ATOM     11  C   UNK d   1      51.544  83.942  22.826  0.00  0.00     0.146 C 
ATOM     12  N   UNK d   1      52.740  83.140  22.915  0.00  0.00    -0.341 N 
ATOM     13  C   UNK d   1      53.127  82.376  21.758  0.00  0.00     0.146 C 
ATOM     14  C   UNK d   1      53.514  83.404  20.673  0.00  0.00     0.143 C 
BRANCH  12  15
ATOM     15  C   UNK d   1      53.512  83.103  24.101  0.00  0.00     0.270 A 
ATOM     16  N   UNK d   1      54.401  84.039  24.540  0.00  0.00    -0.103 NA
ATOM     17  N   UNK d   1      54.919  83.645  25.686  0.00  0.00    -0.126 NA
ATOM     18  C   UNK d   1      54.380  82.472  25.992  0.00  0.00     0.167 A 
ATOM     19  O   UNK d   1      53.544  82.169  25.033  0.00  0.00    -0.260 OA
ATOM     20  C   UNK d   1      54.631  81.603  27.188  0.00  0.00     0.102 C 
ENDBRANCH  12  15
ENDBRANCH   3   9
BRANCH   6  21
ATOM     21  C   UNK d   1      53.439  89.466  18.120  0.00  0.00     0.062 A 
ATOM     22  C   UNK d   1      52.814  90.630  18.520  0.00  0.00     0.032 A 
ATOM     23  C   UNK d   1      53.013  91.831  17.873  0.00  0.00     0.002 A 
ATOM     24  C   UNK d   1      53.857  91.911  16.784  0.00  0.00     0.000 A 
ATOM     25  C   UNK d   1      54.485  90.751  16.379  0.00  0.00     0.002 A 
ATOM     26  C   UNK d   1      54.283  89.550  17.031  0.00  0.00     0.032 A 
ENDBRANCH   6  21
TORSDOF 3
ENDMDL
