MODEL 1
REMARK VINA RESULT:    -8.316      0.000      0.000
REMARK INTER + INTRA:         -10.619
REMARK INTER:                 -10.017
REMARK INTRA:                  -0.602
REMARK UNBOUND:                -0.602
REMARK  4 active torsions:
REMARK  status: ('A' for Active; 'I' for Inactive)
REMARK    1  A    between atoms: C_7  and  C_9 
REMARK       I    between atoms: C_9  and  N_11 
REMARK    2  A    between atoms: N_17  and  C_20 
REMARK    3  A    between atoms: C_20  and  C_21 
REMARK    4  A    between atoms: C_21  and  O_22 
ROOT
ATOM      1  C   UNK d   1      56.773  87.260  22.127  0.00  0.00     0.274 C 
ATOM      2  O   UNK d   1      57.566  86.412  21.574  0.00  0.00    -0.266 OA
ATOM      3  N   UNK d   1      56.714  87.242  23.507  0.00  0.00    -0.341 N 
ATOM      4  C   UNK d   1      55.886  88.127  24.290  0.00  0.00     0.131 C 
ATOM      5  C   UNK d   1      54.761  87.365  24.958  0.00  0.00     0.066 C 
ATOM      6  C   UNK d   1      55.261  86.017  25.392  0.00  0.00     0.039 A 
ATOM      7  C   UNK d   1      56.502  85.516  25.109  0.00  0.00     0.056 A 
ATOM      8  N   UNK d   1      56.536  84.286  25.683  0.00  0.00    -0.297 N 
ATOM      9  N   UNK d   1      55.401  84.020  26.289  0.00  0.00    -0.255 N 
ATOM     10  C   UNK d   1      54.566  85.057  26.144  0.00  0.00     0.270 A 
ATOM     11  O   UNK d   1      53.378  85.181  26.585  0.00  0.00    -0.266 OA
ATOM     12  C   UNK d   1      57.506  86.285  24.319  0.00  0.00     0.185 C 
ATOM     13  H   UNK d   1      57.382  83.669  25.622  0.00  0.00     0.187 HD
ENDROOT
BRANCH   1  14
ATOM     14  C   UNK d   1      56.028  88.137  21.241  0.00  0.00     0.142 A 
ATOM     15  N   UNK d   1      56.470  89.172  20.526  0.00  0.00    -0.224 NA
ATOM     16  C   UNK d   1      55.446  89.708  19.842  0.00  0.00     0.134 A 
ATOM     17  N   UNK d   1      54.335  89.015  20.119  0.00  0.00    -0.313 N 
ATOM     18  C   UNK d   1      55.452  90.807  18.966  0.00  0.00     0.052 A 
ATOM     19  C   UNK d   1      53.158  89.376  19.537  0.00  0.00     0.122 A 
ATOM     20  C   UNK d   1      54.652  88.038  20.978  0.00  0.00     0.135 A 
ATOM     21  C   UNK d   1      53.135  90.449  18.675  0.00  0.00     0.050 A 
ATOM     22 Cl   UNK d   1      51.642  90.949  17.903  0.00  0.00    -0.083 Cl
ATOM     23  C   UNK d   1      54.278  91.171  18.382  0.00  0.00     0.029 A 
ENDBRANCH   1  14
BRANCH   9  24
ATOM     24  C   UNK d   1      55.037  82.801  27.025  0.00  0.00     0.178 C 
BRANCH  24  25
ATOM     25  C   UNK d   1      54.949  81.616  26.091  0.00  0.00     0.186 C 
BRANCH  25  26
ATOM     26  O   UNK d   1      56.078  81.492  25.290  0.00  0.00    -0.399 OA
ATOM     27  H   UNK d   1      56.053  82.115  24.504  0.00  0.00     0.209 HD
ENDBRANCH  25  26
ENDBRANCH  24  25
ENDBRANCH   9  24
TORSDOF 4
ENDMDL
