/Users/jonathanwahrer/Desktop/Msc/3_Semester/Drug_Design_Praktikum/waehrer_HTS_screening/HTS_experiment/out/docking_results/vina_output/3npc/1599_docked.pdbqt
 OpenBabel03192220353D

 30 33  0  0  1  0  0  0  0  0999 V2000
   56.1030   89.2930   22.3780 C   0  0  0  0  0  0  0  0  0  0  0  0
   55.6240   89.5470   23.5380 O   0  0  0  0  0  0  0  0  0  0  0  0
   56.0460   90.2340   21.3410 N   0  0  0  0  0  0  0  0  0  0  0  0
   56.5660   89.9840   20.0350 C   0  0  0  0  0  2  0  0  0  0  0  0
   55.7390   90.6150   18.9500 C   0  0  0  0  0  2  0  0  0  0  0  0
   54.3110   90.9250   19.3400 C   0  0  1  0  0  0  0  0  0  0  0  0
   53.8330   91.7740   18.2570 N   0  0  0  0  0  0  0  0  0  0  0  0
   52.4480   92.0530   18.2470 C   0  0  0  0  0  2  0  0  0  0  0  0
   51.5570   91.1740   19.0460 C   0  0  0  0  0  2  0  0  0  0  0  0
   52.1270   89.8000   19.2010 C   0  0  0  0  0  0  0  0  0  0  0  0
   51.5530   88.5980   19.2300 N   0  0  0  0  0  0  0  0  0  0  0  0
   52.5600   87.7140   19.3920 C   0  0  0  0  0  3  0  0  0  0  0  0
   53.7440   88.3610   19.4630 N   0  0  0  0  0  0  0  0  0  0  0  0
   53.4870   89.6950   19.3430 C   0  0  0  0  0  0  0  0  0  0  0  0
   54.1780   91.6360   20.6620 C   0  0  0  0  0  2  0  0  0  0  0  0
   55.4220   91.5390   21.5270 C   0  0  0  0  0  2  0  0  0  0  0  0
   54.4110   92.6590   18.3560 H   0  0  0  0  0  0  0  0  0  0  0  0
   54.6690   87.9150   19.5870 H   0  0  0  0  0  0  0  0  0  0  0  0
   56.7160   87.9220   22.2410 C   0  0  0  0  0  2  0  0  0  0  0  0
   55.7570   86.9250   22.3240 N   0  0  0  0  0  0  0  0  0  0  0  0
   54.8420   85.9730   22.4020 C   0  0  0  0  0  0  0  0  0  0  0  0
   54.3620   85.2460   21.4630 O   0  0  0  0  0  0  0  0  0  0  0  0
   55.8580   86.7340   20.9570 H   0  0  0  0  0  0  0  0  0  0  0  0
   54.2520   85.6640   23.7530 C   0  0  0  0  0  0  0  0  0  0  0  0
   53.2400   84.7530   23.8990 C   0  0  0  0  0  3  0  0  0  0  0  0
   52.6820   84.5000   25.1430 C   0  0  0  0  0  0  0  0  0  0  0  0
   51.2940   83.2320   25.3000 Br  0  0  0  0  0  0  0  0  0  0  0  0
   53.1800   85.1970   26.2160 C   0  0  0  0  0  3  0  0  0  0  0  0
   54.2020   86.1150   26.0640 C   0  0  0  0  0  3  0  0  0  0  0  0
   54.7600   86.3630   24.8060 C   0  0  0  0  0  3  0  0  0  0  0  0
  1  2  2  0  0  0  0
  3 16  1  0  0  0  0
  3  1  1  0  0  0  0
  4  3  1  0  0  0  0
  5  4  1  0  0  0  0
  6  5  1  6  0  0  0
  6 14  1  0  0  0  0
  6 15  1  0  0  0  0
  7 17  1  0  0  0  0
  7  6  1  0  0  0  0
  8  7  1  0  0  0  0
  8  9  1  0  0  0  0
  9 10  1  0  0  0  0
 10 11  1  0  0  0  0
 10 14  2  0  0  0  0
 11 12  2  0  0  0  0
 12 13  1  0  0  0  0
 13 18  1  0  0  0  0
 14 13  1  0  0  0  0
 15 16  1  0  0  0  0
 19 20  1  0  0  0  0
 19  1  1  0  0  0  0
 20 21  1  0  0  0  0
 21 24  1  0  0  0  0
 22 21  2  0  0  0  0
 23 20  1  0  0  0  0
 24 25  2  0  0  0  0
 24 30  1  0  0  0  0
 25 26  1  0  0  0  0
 26 27  1  0  0  0  0
 26 28  2  0  0  0  0
 29 28  1  0  0  0  0
 30 29  2  0  0  0  0
M  END
>  <Pose>
1

>  <Score>
-9.329

$$$$
