/Users/jonathanwahrer/Desktop/Msc/3_Semester/Drug_Design_Praktikum/waehrer_HTS_screening/HTS_experiment/out/docking_results/vina_output/3npc/1622_docked.pdbqt
 OpenBabel03192220363D

 28 31  0  0  1  0  0  0  0  0999 V2000
   56.4570   87.2250   21.8200 C   0  0  0  0  0  0  0  0  0  0  0  0
   57.0470   86.4640   21.0110 O   0  0  0  0  0  0  0  0  0  0  0  0
   56.4220   88.6350   21.6480 N   0  0  0  0  0  0  0  0  0  0  0  0
   57.0890   89.2120   20.5020 C   0  0  0  0  0  2  0  0  0  0  0  0
   56.3810   90.5180   20.1910 C   0  0  0  0  0  2  0  0  0  0  0  0
   54.8950   90.4340   20.4610 C   0  0  1  0  0  0  0  0  0  0  0  0
   54.2960   91.6360   19.9270 N   0  0  0  0  0  0  0  0  0  0  0  0
   54.0060   91.4190   18.5550 C   0  0  0  0  0  0  0  0  0  0  0  0
   53.8070   92.2880   17.6490 O   0  0  0  0  0  0  0  0  0  0  0  0
   53.9770   89.9990   18.3810 N   0  0  0  0  0  0  0  0  0  0  0  0
   54.2490   89.3790   19.6380 C   0  0  0  0  0  0  0  0  0  0  0  0
   53.9810   88.1850   19.9430 O   0  0  0  0  0  0  0  0  0  0  0  0
   53.7190   89.2570   17.1450 C   0  0  0  0  0  1  0  0  0  0  0  0
   54.5910   90.2350   21.9160 C   0  0  0  0  0  2  0  0  0  0  0  0
   55.7560   89.5430   22.5540 C   0  0  0  0  0  2  0  0  0  0  0  0
   54.1210   92.5000   20.4750 H   0  0  0  0  0  0  0  0  0  0  0  0
   55.8030   86.5720   22.9580 C   0  0  0  0  0  0  0  0  0  0  0  0
   56.3750   86.6160   24.2110 C   0  0  0  0  0  0  0  0  0  0  0  0
   57.9090   87.4720   24.4140 Cl  0  0  0  0  0  0  0  0  0  0  0  0
   55.7830   86.0100   25.3010 C   0  0  0  0  0  3  0  0  0  0  0  0
   54.5920   85.3580   25.0880 C   0  0  0  0  0  3  0  0  0  0  0  0
   53.9800   85.2890   23.8470 C   0  0  0  0  0  0  0  0  0  0  0  0
   54.6090   85.9080   22.7870 C   0  0  0  0  0  3  0  0  0  0  0  0
   52.7430   84.5950   23.6940 N   0  0  0  0  0  0  0  0  0  0  0  0
   51.8170   84.3670   24.5930 N   0  0  0  0  0  0  0  0  0  0  0  0
   50.7910   83.6660   24.0270 C   0  0  0  0  0  3  0  0  0  0  0  0
   51.1030   83.4500   22.7030 C   0  0  0  0  0  3  0  0  0  0  0  0
   52.3510   84.0540   22.5270 C   0  0  0  0  0  3  0  0  0  0  0  0
  1 17  1  0  0  0  0
  2  1  2  0  0  0  0
  3  1  1  0  0  0  0
  3 15  1  0  0  0  0
  4  3  1  0  0  0  0
  5  4  1  0  0  0  0
  6  5  1  6  0  0  0
  6 14  1  0  0  0  0
  7  6  1  0  0  0  0
  7 16  1  0  0  0  0
  8  7  1  0  0  0  0
  9  8  2  0  0  0  0
 10  8  1  0  0  0  0
 10 11  1  0  0  0  0
 11 12  2  0  0  0  0
 11  6  1  0  0  0  0
 13 10  1  0  0  0  0
 14 15  1  0  0  0  0
 17 18  1  0  0  0  0
 18 19  1  0  0  0  0
 18 20  2  0  0  0  0
 21 20  1  0  0  0  0
 22 21  2  0  0  0  0
 23 17  2  0  0  0  0
 23 22  1  0  0  0  0
 24 22  1  0  0  0  0
 24 25  1  0  0  0  0
 26 25  2  0  0  0  0
 27 26  1  0  0  0  0
 28 27  2  0  0  0  0
 28 24  1  0  0  0  0
M  END
>  <Pose>
1

>  <Score>
-8.043

$$$$
