MODEL 1
REMARK VINA RESULT:    -8.043      0.000      0.000
REMARK INTER + INTRA:          -9.611
REMARK INTER:                  -8.983
REMARK INTRA:                  -0.628
REMARK UNBOUND:                -0.628
REMARK  2 active torsions:
REMARK  status: ('A' for Active; 'I' for Inactive)
REMARK    1  A    between atoms: C_3  and  C_13 
REMARK    2  A    between atoms: C_5  and  N_8 
REMARK       I    between atoms: C_13  and  N_15 
ROOT
ATOM      1  C   UNK d   1      56.457  87.225  21.820  0.00  0.00     0.255 C 
ATOM      2  O   UNK d   1      57.047  86.464  21.011  0.00  0.00    -0.267 OA
ATOM      3  N   UNK d   1      56.422  88.635  21.648  0.00  0.00    -0.348 N 
ATOM      4  C   UNK d   1      57.089  89.212  20.502  0.00  0.00     0.129 C 
ATOM      5  C   UNK d   1      56.381  90.518  20.191  0.00  0.00     0.061 C 
ATOM      6  C   UNK d   1      54.895  90.434  20.461  0.00  0.00     0.119 C 
ATOM      7  N   UNK d   1      54.296  91.636  19.927  0.00  0.00    -0.324 N 
ATOM      8  C   UNK d   1      54.006  91.419  18.555  0.00  0.00     0.325 C 
ATOM      9  O   UNK d   1      53.807  92.288  17.649  0.00  0.00    -0.247 OA
ATOM     10  N   UNK d   1      53.977  89.999  18.381  0.00  0.00    -0.272 N 
ATOM     11  C   UNK d   1      54.249  89.379  19.638  0.00  0.00     0.256 C 
ATOM     12  O   UNK d   1      53.981  88.185  19.943  0.00  0.00    -0.270 OA
ATOM     13  C   UNK d   1      53.719  89.257  17.145  0.00  0.00     0.164 C 
ATOM     14  C   UNK d   1      54.591  90.235  21.916  0.00  0.00     0.061 C 
ATOM     15  C   UNK d   1      55.756  89.543  22.554  0.00  0.00     0.129 C 
ATOM     16  H   UNK d   1      54.121  92.500  20.475  0.00  0.00     0.165 HD
ENDROOT
BRANCH   1  17
ATOM     17  C   UNK d   1      55.803  86.572  22.958  0.00  0.00     0.056 A 
ATOM     18  C   UNK d   1      56.375  86.616  24.211  0.00  0.00     0.050 A 
ATOM     19 Cl   UNK d   1      57.909  87.472  24.414  0.00  0.00    -0.083 Cl
ATOM     20  C   UNK d   1      55.783  86.010  25.301  0.00  0.00     0.027 A 
ATOM     21  C   UNK d   1      54.592  85.358  25.088  0.00  0.00     0.033 A 
ATOM     22  C   UNK d   1      53.980  85.289  23.847  0.00  0.00     0.059 A 
ATOM     23  C   UNK d   1      54.609  85.908  22.787  0.00  0.00     0.050 A 
BRANCH  22  24
ATOM     24  N   UNK d   1      52.743  84.595  23.694  0.00  0.00    -0.245 N 
ATOM     25  N   UNK d   1      51.817  84.367  24.593  0.00  0.00    -0.180 NA
ATOM     26  C   UNK d   1      50.791  83.666  24.027  0.00  0.00     0.140 A 
ATOM     27  C   UNK d   1      51.103  83.450  22.703  0.00  0.00     0.040 A 
ATOM     28  C   UNK d   1      52.351  84.054  22.527  0.00  0.00     0.120 A 
ENDBRANCH  22  24
ENDBRANCH   1  17
TORSDOF 2
ENDMDL
