MODEL 1
REMARK VINA RESULT:    -8.348      0.000      0.000
REMARK INTER + INTRA:         -11.625
REMARK INTER:                 -10.788
REMARK INTRA:                  -0.836
REMARK UNBOUND:                -0.836
REMARK  5 active torsions:
REMARK  status: ('A' for Active; 'I' for Inactive)
REMARK    1  A    between atoms: C_5  and  C_8 
REMARK    2  A    between atoms: N_9  and  C_24 
REMARK    3  A    between atoms: C_15  and  C_17 
REMARK    4  A    between atoms: C_24  and  C_25 
REMARK    5  A    between atoms: C_25  and  N_26 
ROOT
ATOM      1  C   UNK d   1      52.873  84.840  20.471  0.00  0.00     0.161 C 
ATOM      2  N   UNK d   1      53.346  84.845  21.868  0.00  0.00    -0.331 N 
ATOM      3  C   UNK d   1      54.423  85.768  21.968  0.00  0.00     0.295 C 
ATOM      4  O   UNK d   1      55.296  85.807  22.837  0.00  0.00    -0.264 OA
ATOM      5  C   UNK d   1      54.311  86.696  20.826  0.00  0.00     0.250 C 
ATOM      6  O   UNK d   1      55.075  87.672  20.534  0.00  0.00    -0.282 OA
ATOM      7  C   UNK d   1      53.137  86.265  20.085  0.00  0.00     0.062 C 
ATOM      8  C   UNK d   1      52.491  87.017  19.229  0.00  0.00     0.130 C 
ATOM      9  O   UNK d   1      51.408  86.457  18.557  0.00  0.00    -0.190 OA
ENDROOT
BRANCH   2  10
ATOM     10  C   UNK d   1      52.730  84.018  22.873  0.00  0.00     0.155 C 
BRANCH  10  11
ATOM     11  C   UNK d   1      51.330  84.355  23.220  0.00  0.00     0.255 C 
BRANCH  11  12
ATOM     12  N   UNK d   1      50.441  83.310  23.572  0.00  0.00    -0.066 N 
ATOM     13  C   UNK d   1      51.073  82.208  24.266  0.00  0.00     0.261 C 
ATOM     14  C   UNK d   1      50.854  80.869  23.603  0.00  0.00     0.195 C 
ATOM     15  O   UNK d   1      49.553  80.598  23.268  0.00  0.00    -0.388 OA
ATOM     16  C   UNK d   1      48.917  81.643  22.624  0.00  0.00     0.195 C 
ATOM     17  C   UNK d   1      49.913  82.721  22.324  0.00  0.00     0.261 C 
ATOM     18  H   UNK d   1      49.595  83.636  24.067  0.00  0.00     0.280 HD
ENDBRANCH  11  12
ENDBRANCH  10  11
ENDBRANCH   2  10
BRANCH   1  19
ATOM     19  C   UNK d   1      53.651  83.886  19.692  0.00  0.00    -0.030 A 
ATOM     20  C   UNK d   1      54.218  84.192  18.496  0.00  0.00     0.011 A 
ATOM     21  C   UNK d   1      54.966  83.289  17.754  0.00  0.00     0.024 A 
ATOM     22  C   UNK d   1      55.151  82.025  18.232  0.00  0.00     0.034 A 
ATOM     23 Cl   UNK d   1      56.079  80.843  17.351  0.00  0.00    -0.084 Cl
ATOM     24  C   UNK d   1      54.580  81.678  19.458  0.00  0.00     0.024 A 
ATOM     25  C   UNK d   1      53.842  82.592  20.176  0.00  0.00     0.011 A 
ENDBRANCH   1  19
BRANCH   8  26
ATOM     26  C   UNK d   1      52.797  88.407  18.907  0.00  0.00     0.001 A 
ATOM     27  C   UNK d   1      53.619  88.614  17.806  0.00  0.00     0.016 A 
ATOM     28  C   UNK d   1      53.928  89.892  17.431  0.00  0.00     0.024 A 
ATOM     29  C   UNK d   1      53.439  90.981  18.125  0.00  0.00     0.034 A 
ATOM     30  C   UNK d   1      52.624  90.769  19.217  0.00  0.00     0.024 A 
ATOM     31 Cl   UNK d   1      53.858  92.582  17.612  0.00  0.00    -0.084 Cl
ATOM     32  C   UNK d   1      52.319  89.475  19.586  0.00  0.00     0.016 A 
ENDBRANCH   8  26
TORSDOF 5
ENDMDL
