MODEL 1
REMARK VINA RESULT:    -7.279      0.000      0.000
REMARK INTER + INTRA:         -11.399
REMARK INTER:                  -9.832
REMARK INTRA:                  -1.568
REMARK UNBOUND:                -1.568
REMARK  6 active torsions:
REMARK  status: ('A' for Active; 'I' for Inactive)
REMARK    1  A    between atoms: C_10  and  C_27 
REMARK    2  A    between atoms: N_15  and  C_18 
REMARK    3  A    between atoms: C_18  and  C_19 
REMARK    4  A    between atoms: C_20  and  O_25 
REMARK    5  A    between atoms: C_27  and  C_28 
REMARK    6  A    between atoms: C_28  and  C_29 
REMARK       I    between atoms: C_29  and  N_31 
ROOT
ATOM      1 Cl   UNK d   1      50.928  85.470  32.394  0.00  0.00    -0.084 Cl
ATOM      2  C   UNK d   1      51.395  84.600  30.925  0.00  0.00     0.042 A 
ATOM      3  C   UNK d   1      52.037  83.389  31.017  0.00  0.00    -0.013 A 
ATOM      4  C   UNK d   1      52.403  82.704  29.866  0.00  0.00     0.051 A 
ATOM      5  C   UNK d   1      52.157  83.172  28.604  0.00  0.00     0.018 A 
ATOM      6  C   UNK d   1      51.499  84.410  28.540  0.00  0.00     0.014 A 
ATOM      7  C   UNK d   1      51.132  85.098  29.675  0.00  0.00     0.025 A 
ATOM      8  C   UNK d   1      52.666  82.224  27.627  0.00  0.00     0.279 A 
ATOM      9  N   UNK d   1      51.532  81.728  26.852  0.00  0.00     0.113 N 
ATOM     10  C   UNK d   1      51.655  82.433  25.606  0.00  0.00     0.237 C 
ATOM     11  C   UNK d   1      53.138  82.330  25.333  0.00  0.00     0.128 C 
ATOM     12  C   UNK d   1      53.691  82.742  26.680  0.00  0.00     0.147 C 
ATOM     13  C   UNK d   1      53.846  84.180  26.586  0.00  0.00     0.235 C 
ATOM     14  O   UNK d   1      54.009  84.979  27.534  0.00  0.00    -0.272 OA
ATOM     15  N   UNK d   1      53.786  84.566  25.220  0.00  0.00    -0.283 N 
ATOM     16  C   UNK d   1      53.600  83.401  24.414  0.00  0.00     0.234 C 
ATOM     17  O   UNK d   1      53.773  83.242  23.182  0.00  0.00    -0.272 OA
ATOM     18  C   UNK d   1      53.243  81.118  28.428  0.00  0.00     0.267 A 
ATOM     19  O   UNK d   1      53.797  80.060  28.006  0.00  0.00    -0.270 OA
ATOM     20  N   UNK d   1      53.067  81.449  29.787  0.00  0.00    -0.323 N 
ATOM     21  C   UNK d   1      52.328  82.837  32.369  0.00  0.00     0.052 C 
ATOM     22  H   UNK d   1      50.646  81.911  27.370  0.00  0.00     0.318 HD
ATOM     23  H   UNK d   1      53.382  80.850  30.598  0.00  0.00     0.169 HD
ENDROOT
BRANCH  10  24
ATOM     24  C   UNK d   1      50.829  81.784  24.518  0.00  0.00     0.045 C 
BRANCH  24  25
ATOM     25  C   UNK d   1      50.049  82.892  23.842  0.00  0.00     0.105 C 
BRANCH  25  26
ATOM     26  C   UNK d   1      50.486  83.096  22.439  0.00  0.00     0.215 C 
ATOM     27  O   UNK d   1      50.472  82.119  21.637  0.00  0.00    -0.274 OA
ATOM     28  N   UNK d   1      50.903  84.403  22.069  0.00  0.00    -0.370 N 
ATOM     29  H   UNK d   1      50.401  85.210  22.476  0.00  0.00     0.159 HD
ATOM     30  H   UNK d   1      51.706  84.474  21.394  0.00  0.00     0.159 HD
ENDBRANCH  25  26
ENDBRANCH  24  25
ENDBRANCH  10  24
BRANCH  15  31
ATOM     31  C   UNK d   1      53.889  85.894  24.645  0.00  0.00     0.176 C 
BRANCH  31  32
ATOM     32  C   UNK d   1      55.229  86.158  24.089  0.00  0.00    -0.006 A 
ATOM     33  C   UNK d   1      55.330  86.395  22.735  0.00  0.00     0.076 A 
ATOM     34  C   UNK d   1      56.594  86.642  22.218  0.00  0.00     0.037 A 
ATOM     35  C   UNK d   1      57.704  86.653  23.015  0.00  0.00     0.003 A 
ATOM     36  C   UNK d   1      57.561  86.413  24.361  0.00  0.00     0.001 A 
ATOM     37  C   UNK d   1      56.334  86.160  24.935  0.00  0.00     0.011 A 
BRANCH  33  38
ATOM     38  O   UNK d   1      54.196  86.379  21.950  0.00  0.00    -0.355 OA
ATOM     39  C   UNK d   1      54.084  85.731  20.722  0.00  0.00     0.210 C 
ENDBRANCH  33  38
ENDBRANCH  31  32
ENDBRANCH  15  31
TORSDOF 6
ENDMDL
