/Users/jonathanwahrer/Desktop/Msc/3_Semester/Drug_Design_Praktikum/waehrer_HTS_screening/HTS_experiment/out/docking_results/vina_output/3npc/1631_docked.pdbqt
 OpenBabel03192220373D

 29 32  0  0  1  0  0  0  0  0999 V2000
   52.7900   85.3600   19.9340 C   0  0  1  0  0  3  0  0  0  0  0  0
   53.2300   85.1520   21.2840 N   0  0  0  0  0  0  0  0  0  0  0  0
   54.2380   86.0940   21.6340 C   0  0  0  0  0  0  0  0  0  0  0  0
   55.0340   86.0390   22.6160 O   0  0  0  0  0  0  0  0  0  0  0  0
   54.2030   87.1790   20.6320 C   0  0  0  0  0  0  0  0  0  0  0  0
   54.9570   88.1790   20.6250 O   0  0  0  0  0  0  0  0  0  0  0  0
   53.1360   86.8070   19.7110 C   0  0  0  0  0  0  0  0  0  0  0  0
   52.6160   87.6250   18.8220 C   0  0  0  0  0  0  0  0  0  0  0  0
   51.6250   87.0970   17.9690 O   0  0  0  0  0  1  0  0  0  0  0  0
   53.4540   84.4760   18.9440 C   0  0  0  0  0  0  0  0  0  0  0  0
   54.0690   83.2890   19.3220 C   0  0  0  0  0  3  0  0  0  0  0  0
   54.6940   82.4420   18.4370 C   0  0  0  0  0  0  0  0  0  0  0  0
   55.4560   80.9530   18.9500 Cl  0  0  0  0  0  0  0  0  0  0  0  0
   54.7070   82.7980   17.1070 C   0  0  0  0  0  3  0  0  0  0  0  0
   54.1100   83.9670   16.6830 C   0  0  0  0  0  3  0  0  0  0  0  0
   53.4910   84.7970   17.5900 C   0  0  0  0  0  3  0  0  0  0  0  0
   52.9930   89.0240   18.6690 C   0  0  0  0  0  0  0  0  0  0  0  0
   53.9460   89.3820   17.7050 C   0  0  0  0  0  3  0  0  0  0  0  0
   54.3000   90.7000   17.5190 C   0  0  0  0  0  3  0  0  0  0  0  0
   53.7450   91.7240   18.2580 C   0  0  0  0  0  3  0  0  0  0  0  0
   52.8060   91.3940   19.2090 C   0  0  0  0  0  3  0  0  0  0  0  0
   52.4490   90.0580   19.3960 C   0  0  0  0  0  3  0  0  0  0  0  0
   52.7440   84.1540   22.1570 C   0  0  1  0  0  3  0  0  0  0  0  0
   51.4450   84.2770   22.5370 N   0  0  0  0  0  0  0  0  0  0  0  0
   50.8690   83.4000   23.3580 C   0  0  0  0  0  3  0  0  0  0  0  0
   50.8550   85.0800   22.1850 H   0  0  0  0  0  0  0  0  0  0  0  0
   51.6260   82.3480   23.8190 C   0  0  0  0  0  3  0  0  0  0  0  0
   52.9420   82.2430   23.4190 C   0  0  0  0  0  3  0  0  0  0  0  0
   53.5160   83.1340   22.5920 N   0  0  0  0  0  0  0  0  0  0  0  0
  1 10  1  6  0  0  0
  1  2  1  0  0  0  0
  2  3  1  0  0  0  0
  3  4  2  0  0  0  0
  5  3  1  0  0  0  0
  6  5  2  0  0  0  0
  7  1  1  0  0  0  0
  7  5  1  0  0  0  0
  8  7  2  0  0  0  0
  9  8  1  0  0  0  0
 10 11  1  0  0  0  0
 12 13  1  0  0  0  0
 12 11  2  0  0  0  0
 14 12  1  0  0  0  0
 15 14  2  0  0  0  0
 15 16  1  0  0  0  0
 16 10  2  0  0  0  0
 17  8  1  0  0  0  0
 17 22  1  0  0  0  0
 18 17  2  0  0  0  0
 19 18  1  0  0  0  0
 19 20  2  0  0  0  0
 20 21  1  0  0  0  0
 21 22  2  0  0  0  0
 23  2  1  6  0  0  0
 23 24  1  0  0  0  0
 23 29  1  0  0  0  0
 24 25  1  0  0  0  0
 25 27  2  0  0  0  0
 26 24  1  0  0  0  0
 28 27  1  0  0  0  0
 29 28  2  0  0  0  0
M  END
>  <Pose>
1

>  <Score>
-9.320

$$$$
