MODEL 1
REMARK VINA RESULT:    -9.320      0.000      0.000
REMARK INTER + INTRA:         -11.095
REMARK INTER:                 -10.955
REMARK INTRA:                  -0.140
REMARK UNBOUND:                -0.140
REMARK  3 active torsions:
REMARK  status: ('A' for Active; 'I' for Inactive)
REMARK    1  A    between atoms: C_4  and  C_8 
REMARK    2  A    between atoms: N_9  and  C_23 
REMARK    3  A    between atoms: C_15  and  C_17 
ROOT
ATOM      1  C   UNK d   1      52.790  85.360  19.934  0.00  0.00     0.185 C 
ATOM      2  N   UNK d   1      53.230  85.152  21.284  0.00  0.00    -0.128 N 
ATOM      3  C   UNK d   1      54.238  86.094  21.634  0.00  0.00     0.314 C 
ATOM      4  O   UNK d   1      55.034  86.039  22.616  0.00  0.00    -0.263 OA
ATOM      5  C   UNK d   1      54.203  87.179  20.632  0.00  0.00     0.251 C 
ATOM      6  O   UNK d   1      54.957  88.179  20.625  0.00  0.00    -0.282 OA
ATOM      7  C   UNK d   1      53.136  86.807  19.711  0.00  0.00     0.063 C 
ATOM      8  C   UNK d   1      52.616  87.625  18.822  0.00  0.00     0.130 C 
ATOM      9  O   UNK d   1      51.625  87.097  17.969  0.00  0.00    -0.190 OA
ENDROOT
BRANCH   1  10
ATOM     10  C   UNK d   1      53.454  84.476  18.944  0.00  0.00    -0.028 A 
ATOM     11  C   UNK d   1      54.069  83.289  19.322  0.00  0.00     0.033 A 
ATOM     12  C   UNK d   1      54.694  82.442  18.437  0.00  0.00     0.034 A 
ATOM     13 Cl   UNK d   1      55.456  80.953  18.950  0.00  0.00    -0.084 Cl
ATOM     14  C   UNK d   1      54.707  82.798  17.107  0.00  0.00     0.024 A 
ATOM     15  C   UNK d   1      54.110  83.967  16.683  0.00  0.00     0.002 A 
ATOM     16  C   UNK d   1      53.491  84.797  17.590  0.00  0.00     0.010 A 
ENDBRANCH   1  10
BRANCH   8  17
ATOM     17  C   UNK d   1      52.993  89.024  18.669  0.00  0.00     0.001 A 
ATOM     18  C   UNK d   1      53.946  89.382  17.705  0.00  0.00     0.014 A 
ATOM     19  C   UNK d   1      54.300  90.700  17.519  0.00  0.00     0.001 A 
ATOM     20  C   UNK d   1      53.745  91.724  18.258  0.00  0.00     0.000 A 
ATOM     21  C   UNK d   1      52.806  91.394  19.209  0.00  0.00     0.001 A 
ATOM     22  C   UNK d   1      52.449  90.058  19.396  0.00  0.00     0.014 A 
ENDBRANCH   8  17
BRANCH   2  23
ATOM     23  C   UNK d   1      52.744  84.154  22.157  0.00  0.00     0.710 A 
ATOM     24  N   UNK d   1      51.445  84.277  22.537  0.00  0.00    -0.200 N 
ATOM     25  C   UNK d   1      50.869  83.400  23.358  0.00  0.00     0.107 A 
ATOM     26  H   UNK d   1      50.855  85.080  22.185  0.00  0.00     0.183 HD
ATOM     27  C   UNK d   1      51.626  82.348  23.819  0.00  0.00     0.037 A 
ATOM     28  C   UNK d   1      52.942  82.243  23.419  0.00  0.00     0.138 A 
ATOM     29  N   UNK d   1      53.516  83.134  22.592  0.00  0.00    -0.077 NA
ENDBRANCH   2  23
TORSDOF 3
ENDMDL
