MODEL 1
REMARK VINA RESULT:    -8.255      0.000      0.000
REMARK INTER + INTRA:          -8.255
REMARK INTER:                  -8.255
REMARK INTRA:                   0.000
REMARK UNBOUND:                 0.000
REMARK  0 active torsions:
REMARK  status: ('A' for Active; 'I' for Inactive)
ROOT
ATOM      1 Cl   UNK d   1      57.153  86.435  22.171  0.00  0.00    -0.084 Cl
ATOM      2  C   UNK d   1      56.383  88.007  21.939  0.00  0.00     0.034 A 
ATOM      3  C   UNK d   1      55.819  88.365  20.739  0.00  0.00     0.034 A 
ATOM      4  C   UNK d   1      55.213  89.620  20.580  0.00  0.00    -0.006 A 
ATOM      5  C   UNK d   1      55.163  90.522  21.605  0.00  0.00     0.044 A 
ATOM      6  C   UNK d   1      55.738  90.163  22.837  0.00  0.00     0.032 A 
ATOM      7  C   UNK d   1      56.324  88.927  22.958  0.00  0.00     0.026 A 
ATOM      8  N   UNK d   1      54.507  91.723  21.231  0.00  0.00    -0.321 N 
ATOM      9  C   UNK d   1      54.120  91.563  19.877  0.00  0.00     0.242 A 
ATOM     10  O   UNK d   1      53.506  92.447  19.211  0.00  0.00    -0.271 OA
ATOM     11  C   UNK d   1      54.546  90.228  19.403  0.00  0.00     0.111 A 
ATOM     12  C   UNK d   1      55.523  90.459  18.269  0.00  0.00     0.132 C 
ATOM     13  C   UNK d   1      54.686  90.965  17.130  0.00  0.00     0.225 C 
ATOM     14  O   UNK d   1      54.928  92.026  16.524  0.00  0.00    -0.273 OA
ATOM     15  N   UNK d   1      53.566  90.153  16.760  0.00  0.00    -0.311 N 
ATOM     16  C   UNK d   1      52.928  89.352  17.745  0.00  0.00     0.133 A 
ATOM     17  N   UNK d   1      51.874  88.492  17.700  0.00  0.00    -0.262 N 
ATOM     18  N   UNK d   1      51.695  88.000  18.902  0.00  0.00    -0.185 NA
ATOM     19  C   UNK d   1      52.594  88.498  19.765  0.00  0.00     0.151 A 
ATOM     20  C   UNK d   1      53.401  89.377  19.032  0.00  0.00     0.030 A 
ATOM     21  C   UNK d   1      54.286  92.889  22.091  0.00  0.00     0.159 C 
ATOM     22  H   UNK d   1      53.210  90.140  15.778  0.00  0.00     0.170 HD
ATOM     23  H   UNK d   1      51.336  88.296  16.824  0.00  0.00     0.191 HD
ENDROOT
TORSDOF 0
ENDMDL
