/Users/jonathanwahrer/Desktop/Msc/3_Semester/Drug_Design_Praktikum/waehrer_HTS_screening/HTS_experiment/out/docking_results/vina_output/3npc/1651_docked.pdbqt
 OpenBabel03192220383D

 23 26  0  0  1  0  0  0  0  0999 V2000
   57.1530   86.4350   22.1710 Cl  0  0  0  0  0  0  0  0  0  0  0  0
   56.3830   88.0070   21.9390 C   0  0  0  0  0  0  0  0  0  0  0  0
   55.8190   88.3650   20.7390 C   0  0  0  0  0  3  0  0  0  0  0  0
   55.2130   89.6200   20.5800 C   0  0  0  0  0  0  0  0  0  0  0  0
   55.1630   90.5220   21.6050 C   0  0  0  0  0  0  0  0  0  0  0  0
   55.7380   90.1630   22.8370 C   0  0  0  0  0  3  0  0  0  0  0  0
   56.3240   88.9270   22.9580 C   0  0  0  0  0  3  0  0  0  0  0  0
   54.5070   91.7230   21.2310 N   0  0  0  0  0  0  0  0  0  0  0  0
   54.1200   91.5630   19.8770 C   0  0  0  0  0  0  0  0  0  0  0  0
   53.5060   92.4470   19.2110 O   0  0  0  0  0  0  0  0  0  0  0  0
   54.5460   90.2280   19.4030 C   0  0  1  0  0  0  0  0  0  0  0  0
   55.5230   90.4590   18.2690 C   0  0  0  0  0  2  0  0  0  0  0  0
   54.6860   90.9650   17.1300 C   0  0  0  0  0  0  0  0  0  0  0  0
   54.9280   92.0260   16.5240 O   0  0  0  0  0  0  0  0  0  0  0  0
   53.5660   90.1530   16.7600 N   0  0  0  0  0  0  0  0  0  0  0  0
   52.9280   89.3520   17.7450 C   0  0  0  0  0  0  0  0  0  0  0  0
   51.8740   88.4920   17.7000 N   0  0  0  0  0  0  0  0  0  0  0  0
   51.6950   88.0000   18.9020 N   0  0  0  0  0  0  0  0  0  0  0  0
   52.5940   88.4980   19.7650 C   0  0  0  0  0  3  0  0  0  0  0  0
   53.4010   89.3770   19.0320 C   0  0  0  0  0  0  0  0  0  0  0  0
   54.2860   92.8890   22.0910 C   0  0  0  0  0  1  0  0  0  0  0  0
   53.2100   90.1400   15.7780 H   0  0  0  0  0  0  0  0  0  0  0  0
   51.3360   88.2960   16.8240 H   0  0  0  0  0  0  0  0  0  0  0  0
  2  1  1  0  0  0  0
  2  7  1  0  0  0  0
  3  2  2  0  0  0  0
  4  3  1  0  0  0  0
  4  5  2  0  0  0  0
  5  6  1  0  0  0  0
  6  7  2  0  0  0  0
  8  5  1  0  0  0  0
  8 21  1  0  0  0  0
  9  8  1  0  0  0  0
 10  9  2  0  0  0  0
 11 12  1  6  0  0  0
 11  9  1  0  0  0  0
 11  4  1  0  0  0  0
 13 12  1  0  0  0  0
 14 13  2  0  0  0  0
 15 13  1  0  0  0  0
 15 16  1  0  0  0  0
 16 20  2  0  0  0  0
 17 16  1  0  0  0  0
 17 18  1  0  0  0  0
 18 19  2  0  0  0  0
 20 11  1  0  0  0  0
 20 19  1  0  0  0  0
 22 15  1  0  0  0  0
 23 17  1  0  0  0  0
M  END
>  <Pose>
1

>  <Score>
-8.255

$$$$
