MODEL 1
REMARK VINA RESULT:    -7.706      0.000      0.000
REMARK INTER + INTRA:          -8.820
REMARK INTER:                  -8.607
REMARK INTRA:                  -0.213
REMARK UNBOUND:                -0.213
REMARK  2 active torsions:
REMARK  status: ('A' for Active; 'I' for Inactive)
REMARK    1  A    between atoms: N_15  and  C_20 
REMARK       I    between atoms: C_21  and  N_23 
REMARK    2  A    between atoms: N_26  and  C_29 
ROOT
ATOM      1 Cl   UNK d   1      56.794  86.607  22.492  0.00  0.00    -0.084 Cl
ATOM      2  C   UNK d   1      55.496  86.286  23.648  0.00  0.00     0.035 A 
ATOM      3  C   UNK d   1      54.449  85.458  23.304  0.00  0.00     0.043 A 
ATOM      4  C   UNK d   1      53.455  85.212  24.195  0.00  0.00     0.060 A 
ATOM      5  C   UNK d   1      53.483  85.797  25.468  0.00  0.00     0.045 A 
ATOM      6  C   UNK d   1      54.536  86.619  25.790  0.00  0.00     0.032 A 
ATOM      7  C   UNK d   1      55.562  86.881  24.890  0.00  0.00     0.026 A 
ATOM      8  N   UNK d   1      52.445  85.543  26.408  0.00  0.00    -0.363 N 
ATOM      9  C   UNK d   1      51.696  84.299  26.311  0.00  0.00     0.108 C 
ATOM     10  N   UNK d   1      51.317  84.159  24.924  0.00  0.00    -0.330 N 
ATOM     11  C   UNK d   1      52.305  84.352  23.925  0.00  0.00     0.255 C 
ATOM     12  O   UNK d   1      52.250  83.812  22.790  0.00  0.00    -0.268 OA
ATOM     13  C   UNK d   1      50.481  84.410  27.170  0.00  0.00     0.074 C 
ATOM     14  C   UNK d   1      50.724  84.015  28.608  0.00  0.00     0.130 C 
ATOM     15  N   UNK d   1      51.916  84.635  29.148  0.00  0.00    -0.344 N 
ATOM     16  C   UNK d   1      53.240  84.407  28.603  0.00  0.00     0.220 C 
ATOM     17  O   UNK d   1      54.145  85.123  29.088  0.00  0.00    -0.273 OA
ATOM     18  C   UNK d   1      53.688  83.464  27.566  0.00  0.00     0.107 C 
ATOM     19  C   UNK d   1      52.571  83.104  26.633  0.00  0.00     0.063 C 
ATOM     20  H   UNK d   1      52.271  86.273  27.130  0.00  0.00     0.162 HD
ATOM     21  H   UNK d   1      50.353  83.923  24.618  0.00  0.00     0.165 HD
ENDROOT
BRANCH  15  22
ATOM     22  C   UNK d   1      51.844  85.524  30.234  0.00  0.00     0.212 C 
ATOM     23  C   UNK d   1      51.638  85.072  31.591  0.00  0.00     0.171 C 
ATOM     24  O   UNK d   1      51.640  86.097  32.444  0.00  0.00    -0.175 OA
ATOM     25  N   UNK d   1      51.446  83.809  32.105  0.00  0.00    -0.359 N 
ATOM     26  C   UNK d   1      51.261  83.662  33.572  0.00  0.00     0.144 C 
ATOM     27  C   UNK d   1      51.379  82.594  31.393  0.00  0.00     0.144 C 
ATOM     28  C   UNK d   1      50.074  82.694  33.702  0.00  0.00     0.137 C 
ATOM     29  N   UNK d   1      49.283  82.678  32.517  0.00  0.00    -0.406 N 
ATOM     30  C   UNK d   1      49.903  82.106  31.359  0.00  0.00     0.137 C 
BRANCH  29  31
ATOM     31  C   UNK d   1      47.909  82.346  32.684  0.00  0.00     0.071 C 
ATOM     32  C   UNK d   1      47.175  83.255  33.648  0.00  0.00     0.031 C 
ATOM     33  C   UNK d   1      47.145  82.280  31.390  0.00  0.00     0.031 C 
ENDBRANCH  29  31
ENDBRANCH  15  22
TORSDOF 2
ENDMDL
