/Users/jonathanwahrer/Desktop/Msc/3_Semester/Drug_Design_Praktikum/waehrer_HTS_screening/HTS_experiment/out/docking_results/vina_output/3npc/1660_docked.pdbqt
 OpenBabel03192220383D

 31 34  0  0  0  0  0  0  0  0999 V2000
   50.4130   97.8690   28.2780 N   0  0  0  0  0  0  0  0  0  0  0  0
   49.3590   97.0990   28.2510 N   0  0  0  0  0  0  0  0  0  0  0  0
   48.2380   97.7480   28.5840 C   0  0  0  0  0  3  0  0  0  0  0  0
   48.6020   99.0610   28.8520 C   0  0  0  0  0  0  0  0  0  0  0  0
   49.9780   99.0950   28.6480 C   0  0  0  0  0  0  0  0  0  0  0  0
   50.5770  100.2720   28.8520 N   0  0  0  0  0  0  0  0  0  0  0  0
   49.8810  101.3650   29.2330 C   0  0  0  0  0  3  0  0  0  0  0  0
   48.5540  101.3630   29.4370 N   0  0  0  0  0  0  0  0  0  0  0  0
   47.9100  100.1830   29.2410 C   0  0  0  0  0  0  0  0  0  0  0  0
   46.6680  100.1320   29.4210 O   0  0  0  0  0  0  0  0  0  0  0  0
   47.7930  102.5500   29.8370 C   0  0  0  0  0  2  0  0  0  0  0  0
   47.6730  102.6640   31.3010 C   0  0  0  0  0  0  0  0  0  0  0  0
   46.5180  102.3650   31.7670 O   0  0  0  0  0  0  0  0  0  0  0  0
   48.6660  103.0530   32.1970 N   0  0  0  0  0  0  0  0  0  0  0  0
   48.3820  103.1820   33.6350 C   0  0  0  0  0  2  0  0  0  0  0  0
   50.0300  103.3230   31.7990 C   0  0  0  0  0  2  0  0  0  0  0  0
   48.5620  104.6800   33.9190 C   0  0  0  0  0  2  0  0  0  0  0  0
   49.8390  105.1320   33.4350 N   0  0  0  0  0  0  0  0  0  0  0  0
   50.7260  104.1380   32.8590 C   0  0  0  0  0  2  0  0  0  0  0  0
   50.2100  106.4930   33.4950 C   0  0  0  0  0  0  0  0  0  0  0  0
   49.3460  107.3220   33.9670 O   0  0  0  0  0  0  0  0  0  0  0  0
   51.4140  107.0270   33.0960 O   0  0  0  0  0  0  0  0  0  0  0  0
   52.2480  107.7440   34.0270 C   0  0  0  0  0  2  0  0  0  0  0  0
   52.6470  106.7420   35.0950 C   0  0  0  0  0  1  0  0  0  0  0  0
   51.7500   97.5110   27.9650 C   0  0  0  0  0  0  0  0  0  0  0  0
   52.8660   98.2040   28.3560 C   0  0  0  0  0  3  0  0  0  0  0  0
   54.1220   97.7830   27.9670 C   0  0  0  0  0  3  0  0  0  0  0  0
   54.3330   96.6710   27.1830 C   0  0  0  0  0  0  0  0  0  0  0  0
   55.8990   96.1240   26.6770 Cl  0  0  0  0  0  0  0  0  0  0  0  0
   53.2200   95.9580   26.7790 C   0  0  0  0  0  3  0  0  0  0  0  0
   51.9750   96.3940   27.1780 C   0  0  0  0  0  3  0  0  0  0  0  0
  1  5  1  0  0  0  0
  2  1  1  0  0  0  0
  2  3  2  0  0  0  0
  3  4  1  0  0  0  0
  4  9  1  0  0  0  0
  5  4  2  0  0  0  0
  5  6  1  0  0  0  0
  6  7  2  0  0  0  0
  7  8  1  0  0  0  0
  8 11  1  0  0  0  0
  9 10  2  0  0  0  0
  9  8  1  0  0  0  0
 11 12  1  0  0  0  0
 12 13  2  0  0  0  0
 12 14  1  0  0  0  0
 14 15  1  0  0  0  0
 15 17  1  0  0  0  0
 16 14  1  0  0  0  0
 16 19  1  0  0  0  0
 18 20  1  0  0  0  0
 18 17  1  0  0  0  0
 19 18  1  0  0  0  0
 20 21  2  0  0  0  0
 22 20  1  0  0  0  0
 22 23  1  0  0  0  0
 23 24  1  0  0  0  0
 25  1  1  0  0  0  0
 25 26  1  0  0  0  0
 27 26  2  0  0  0  0
 28 27  1  0  0  0  0
 29 28  1  0  0  0  0
 30 31  1  0  0  0  0
 30 28  2  0  0  0  0
 31 25  2  0  0  0  0
M  END
>  <Pose>
1

>  <Score>
-9.143

$$$$
