MODEL 1
REMARK VINA RESULT:    -9.143      0.000      0.000
REMARK INTER + INTRA:         -12.056
REMARK INTER:                 -11.816
REMARK INTRA:                  -0.240
REMARK UNBOUND:                -0.240
REMARK  5 active torsions:
REMARK  status: ('A' for Active; 'I' for Inactive)
REMARK    1  A    between atoms: C_5  and  N_8 
REMARK    2  A    between atoms: N_15  and  C_18 
REMARK    3  A    between atoms: C_18  and  C_19 
REMARK       I    between atoms: C_19  and  N_21 
REMARK       I    between atoms: N_24  and  C_27 
REMARK    4  A    between atoms: C_27  and  O_29 
REMARK    5  A    between atoms: O_29  and  C_30 
ROOT
ATOM      1  N   UNK d   1      50.413  97.869  28.278  0.00  0.00    -0.215 N 
ATOM      2  N   UNK d   1      49.359  97.099  28.251  0.00  0.00    -0.177 NA
ATOM      3  C   UNK d   1      48.238  97.748  28.584  0.00  0.00     0.160 A 
ATOM      4  C   UNK d   1      48.602  99.061  28.852  0.00  0.00     0.099 A 
ATOM      5  C   UNK d   1      49.978  99.095  28.648  0.00  0.00     0.169 A 
ATOM      6  N   UNK d   1      50.577 100.272  28.852  0.00  0.00    -0.223 NA
ATOM      7  C   UNK d   1      49.881 101.365  29.233  0.00  0.00     0.215 A 
ATOM      8  N   UNK d   1      48.554 101.363  29.437  0.00  0.00    -0.299 N 
ATOM      9  C   UNK d   1      47.910 100.183  29.241  0.00  0.00     0.264 A 
ATOM     10  O   UNK d   1      46.668 100.132  29.421  0.00  0.00    -0.267 OA
ENDROOT
BRANCH   8  11
ATOM     11  C   UNK d   1      47.793 102.550  29.837  0.00  0.00     0.236 C 
BRANCH  11  12
ATOM     12  C   UNK d   1      47.673 102.664  31.301  0.00  0.00     0.238 C 
ATOM     13  O   UNK d   1      46.518 102.365  31.767  0.00  0.00    -0.272 OA
ATOM     14  N   UNK d   1      48.666 103.053  32.197  0.00  0.00    -0.348 N 
ATOM     15  C   UNK d   1      48.382 103.182  33.635  0.00  0.00     0.145 C 
ATOM     16  C   UNK d   1      50.030 103.323  31.799  0.00  0.00     0.145 C 
ATOM     17  C   UNK d   1      48.562 104.680  33.919  0.00  0.00     0.148 C 
ATOM     18  N   UNK d   1      49.839 105.132  33.435  0.00  0.00    -0.325 N 
ATOM     19  C   UNK d   1      50.726 104.138  32.859  0.00  0.00     0.148 C 
ATOM     20  C   UNK d   1      50.210 106.493  33.495  0.00  0.00     0.362 C 
ATOM     21  O   UNK d   1      49.346 107.322  33.967  0.00  0.00    -0.238 OA
BRANCH  20  22
ATOM     22  O   UNK d   1      51.414 107.027  33.096  0.00  0.00    -0.304 OA
BRANCH  22  23
ATOM     23  C   UNK d   1      52.248 107.744  34.027  0.00  0.00     0.176 C 
ATOM     24  C   UNK d   1      52.647 106.742  35.095  0.00  0.00     0.034 C 
ENDBRANCH  22  23
ENDBRANCH  20  22
ENDBRANCH  11  12
ENDBRANCH   8  11
BRANCH   1  25
ATOM     25  C   UNK d   1      51.750  97.511  27.965  0.00  0.00     0.060 A 
ATOM     26  C   UNK d   1      52.866  98.204  28.356  0.00  0.00     0.033 A 
ATOM     27  C   UNK d   1      54.122  97.783  27.967  0.00  0.00     0.026 A 
ATOM     28  C   UNK d   1      54.333  96.671  27.183  0.00  0.00     0.034 A 
ATOM     29 Cl   UNK d   1      55.899  96.124  26.677  0.00  0.00    -0.084 Cl
ATOM     30  C   UNK d   1      53.220  95.958  26.779  0.00  0.00     0.026 A 
ATOM     31  C   UNK d   1      51.975  96.394  27.178  0.00  0.00     0.033 A 
ENDBRANCH   1  25
TORSDOF 5
ENDMDL
