/Users/jonathanwahrer/Desktop/Msc/3_Semester/Drug_Design_Praktikum/waehrer_HTS_screening/HTS_experiment/out/docking_results/vina_output/3npc/1673_docked.pdbqt
 OpenBabel03192220393D

 35 38  0  0  1  0  0  0  0  0999 V2000
   52.7810   84.0620   19.8490 C   0  0  2  0  0  3  0  0  0  0  0  0
   52.6530   85.3260   20.6560 C   0  0  1  0  0  3  0  0  0  0  0  0
   53.2000   85.0670   21.9120 N   0  0  0  0  0  0  0  0  0  0  0  0
   52.7180   83.6890   22.1740 C   0  0  0  0  0  0  0  0  0  0  0  0
   52.4170   83.1880   23.2910 O   0  0  0  0  0  0  0  0  0  0  0  0
   52.6600   83.0140   20.8870 C   0  0  0  0  0  0  0  0  0  0  0  0
   52.5300   81.7690   20.7150 O   0  0  0  0  0  0  0  0  0  0  0  0
   52.7450   86.5580   19.9140 C   0  0  0  0  0  0  0  0  0  0  0  0
   53.8000   87.4150   19.9280 C   0  0  0  0  0  3  0  0  0  0  0  0
   53.7990   88.5700   19.1610 C   0  0  0  0  0  0  0  0  0  0  0  0
   52.6850   88.8560   18.3580 C   0  0  0  0  0  0  0  0  0  0  0  0
   51.6260   87.9940   18.3460 C   0  0  0  0  0  3  0  0  0  0  0  0
   51.6290   86.8610   19.0980 C   0  0  0  0  0  3  0  0  0  0  0  0
   52.6320   89.9920   17.5760 O   0  0  0  0  0  1  0  0  0  0  0  0
   54.0330   83.9290   19.1050 C   0  0  0  0  0  0  0  0  0  0  0  0
   55.1210   84.3620   19.6210 O   0  0  0  0  0  0  0  0  0  0  0  0
   54.1840   83.3300   17.7860 C   0  0  0  0  0  0  0  0  0  0  0  0
   54.1870   84.0880   16.6370 C   0  0  0  0  0  3  0  0  0  0  0  0
   54.3040   83.4340   15.4160 C   0  0  0  0  0  3  0  0  0  0  0  0
   54.4180   82.0730   15.2920 C   0  0  0  0  0  0  0  0  0  0  0  0
   54.5770   81.2350   13.5630 Br  0  0  0  0  0  0  0  0  0  0  0  0
   54.4150   81.3090   16.4400 C   0  0  0  0  0  3  0  0  0  0  0  0
   54.2990   81.9550   17.6480 C   0  0  0  0  0  3  0  0  0  0  0  0
   53.9030   85.6980   22.9850 C   0  0  0  0  0  2  0  0  0  0  0  0
   55.3560   85.9230   22.8050 C   0  0  0  0  0  2  0  0  0  0  0  0
   55.9080   87.2040   22.6760 N   0  0  0  0  0  4  0  0  0  0  0  0
   55.3000   88.1840   23.5860 C   0  0  0  0  0  2  0  0  0  0  0  0
   55.5310   87.8590   25.0230 C   0  0  0  0  0  2  0  0  0  0  0  0
   56.4220   86.8160   25.1270 O   0  0  0  0  0  0  0  0  0  0  0  0
   57.5880   87.1780   24.4320 C   0  0  0  0  0  2  0  0  0  0  0  0
   57.3580   87.1500   22.9350 C   0  0  0  0  0  2  0  0  0  0  0  0
   55.8090   87.5840   21.7380 H   0  0  0  0  0  0  0  0  0  0  0  0
   54.8380   89.4430   19.1520 O   0  0  0  0  0  0  0  0  0  0  0  0
   55.1030   90.3580   20.1650 C   0  0  0  0  0  2  0  0  0  0  0  0
   56.5400   90.3300   20.6550 C   0  0  0  0  0  1  0  0  0  0  0  0
  1 15  1  1  0  0  0
  1  2  1  0  0  0  0
  1  6  1  0  0  0  0
  2  8  1  6  0  0  0
  2  3  1  0  0  0  0
  3  4  1  0  0  0  0
  3 24  1  0  0  0  0
  4  5  2  0  0  0  0
  6  4  1  0  0  0  0
  7  6  2  0  0  0  0
  8  9  1  0  0  0  0
 10  9  2  0  0  0  0
 11 10  1  0  0  0  0
 12 11  2  0  0  0  0
 12 13  1  0  0  0  0
 13  8  2  0  0  0  0
 14 11  1  0  0  0  0
 15 16  2  0  0  0  0
 17 15  1  0  0  0  0
 18 17  2  0  0  0  0
 19 18  1  0  0  0  0
 20 19  2  0  0  0  0
 20 22  1  0  0  0  0
 21 20  1  0  0  0  0
 22 23  2  0  0  0  0
 23 17  1  0  0  0  0
 25 24  1  0  0  0  0
 26 25  1  0  0  0  0
 26 31  1  0  0  0  0
 26 27  1  0  0  0  0
 27 28  1  0  0  0  0
 28 29  1  0  0  0  0
 30 29  1  0  0  0  0
 31 30  1  0  0  0  0
 32 26  1  0  0  0  0
 33 10  1  0  0  0  0
 33 34  1  0  0  0  0
 34 35  1  0  0  0  0
M  END
>  <Pose>
1

>  <Score>
-8.425

$$$$
