MODEL 1
REMARK VINA RESULT:    -8.425      0.000      0.000
REMARK INTER + INTRA:         -13.392
REMARK INTER:                 -11.873
REMARK INTRA:                  -1.520
REMARK UNBOUND:                -1.520
REMARK  7 active torsions:
REMARK  status: ('A' for Active; 'I' for Inactive)
REMARK    1  A    between atoms: C_5  and  C_8 
REMARK    2  A    between atoms: C_8  and  C_10 
REMARK    3  A    between atoms: N_12  and  C_17 
REMARK    4  A    between atoms: C_17  and  C_18 
REMARK    5  A    between atoms: C_18  and  N_19 
REMARK    6  A    between atoms: C_27  and  O_32 
REMARK    7  A    between atoms: O_32  and  C_33 
ROOT
ATOM      1  C   UNK d   1      52.781  84.062  19.849  0.00  0.00     0.167 C 
ATOM      2  C   UNK d   1      52.653  85.326  20.656  0.00  0.00     0.140 C 
ATOM      3  N   UNK d   1      53.200  85.067  21.912  0.00  0.00    -0.334 N 
ATOM      4  C   UNK d   1      52.718  83.689  22.174  0.00  0.00     0.291 C 
ATOM      5  O   UNK d   1      52.417  83.188  23.291  0.00  0.00    -0.264 OA
ATOM      6  C   UNK d   1      52.660  83.014  20.887  0.00  0.00     0.230 C 
ATOM      7  O   UNK d   1      52.530  81.769  20.715  0.00  0.00    -0.286 OA
ATOM      8  C   UNK d   1      52.745  86.558  19.914  0.00  0.00    -0.031 A 
ATOM      9  C   UNK d   1      53.800  87.415  19.928  0.00  0.00     0.049 A 
ATOM     10  C   UNK d   1      53.799  88.570  19.161  0.00  0.00     0.105 A 
ATOM     11  C   UNK d   1      52.685  88.856  18.358  0.00  0.00     0.140 A 
ATOM     12  C   UNK d   1      51.626  87.994  18.346  0.00  0.00     0.043 A 
ATOM     13  C   UNK d   1      51.629  86.861  19.098  0.00  0.00     0.012 A 
ATOM     14  O   UNK d   1      52.632  89.992  17.576  0.00  0.00    -0.189 OA
ENDROOT
BRANCH   1  15
ATOM     15  C   UNK d   1      54.033  83.929  19.105  0.00  0.00     0.173 C 
ATOM     16  O   UNK d   1      55.121  84.362  19.621  0.00  0.00    -0.291 OA
BRANCH  15  17
ATOM     17  C   UNK d   1      54.184  83.330  17.786  0.00  0.00     0.011 A 
ATOM     18  C   UNK d   1      54.187  84.088  16.637  0.00  0.00     0.016 A 
ATOM     19  C   UNK d   1      54.304  83.434  15.416  0.00  0.00     0.020 A 
ATOM     20  C   UNK d   1      54.418  82.073  15.292  0.00  0.00     0.011 A 
ATOM     21 Br   UNK d   1      54.577  81.235  13.563  0.00  0.00    -0.051 Br
ATOM     22  C   UNK d   1      54.415  81.309  16.440  0.00  0.00     0.020 A 
ATOM     23  C   UNK d   1      54.299  81.955  17.648  0.00  0.00     0.016 A 
ENDBRANCH  15  17
ENDBRANCH   1  15
BRANCH   3  24
ATOM     24  C   UNK d   1      53.903  85.698  22.985  0.00  0.00     0.154 C 
BRANCH  24  25
ATOM     25  C   UNK d   1      55.356  85.923  22.805  0.00  0.00     0.255 C 
BRANCH  25  26
ATOM     26  N   UNK d   1      55.908  87.204  22.676  0.00  0.00    -0.066 N 
ATOM     27  C   UNK d   1      55.300  88.184  23.586  0.00  0.00     0.261 C 
ATOM     28  C   UNK d   1      55.531  87.859  25.023  0.00  0.00     0.195 C 
ATOM     29  O   UNK d   1      56.422  86.816  25.127  0.00  0.00    -0.388 OA
ATOM     30  C   UNK d   1      57.588  87.178  24.432  0.00  0.00     0.195 C 
ATOM     31  C   UNK d   1      57.358  87.150  22.935  0.00  0.00     0.261 C 
ATOM     32  H   UNK d   1      55.809  87.584  21.738  0.00  0.00     0.280 HD
ENDBRANCH  25  26
ENDBRANCH  24  25
ENDBRANCH   3  24
BRANCH  10  33
ATOM     33  O   UNK d   1      54.838  89.443  19.152  0.00  0.00    -0.349 OA
BRANCH  33  34
ATOM     34  C   UNK d   1      55.103  90.358  20.165  0.00  0.00     0.171 C 
ATOM     35  C   UNK d   1      56.540  90.330  20.655  0.00  0.00     0.034 C 
ENDBRANCH  33  34
ENDBRANCH  10  33
TORSDOF 7
ENDMDL
