MODEL 1
REMARK VINA RESULT:    -9.659      0.000      0.000
REMARK INTER + INTRA:         -11.406
REMARK INTER:                 -11.353
REMARK INTRA:                  -0.053
REMARK UNBOUND:                -0.053
REMARK  3 active torsions:
REMARK  status: ('A' for Active; 'I' for Inactive)
REMARK    1  A    between atoms: C_9  and  C_11 
REMARK       I    between atoms: C_11  and  N_13 
REMARK    2  A    between atoms: N_13  and  C_14 
REMARK    3  A    between atoms: C_14  and  C_15 
ROOT
ATOM      1  C   UNK d   1      54.717  92.706  22.695  0.00  0.00     0.254 C 
ATOM      2  O   UNK d   1      53.853  93.537  22.357  0.00  0.00    -0.268 OA
ATOM      3  N   UNK d   1      55.359  92.860  23.950  0.00  0.00    -0.350 N 
ATOM      4  H   UNK d   1      56.078  92.178  24.243  0.00  0.00     0.163 HD
ENDROOT
BRANCH   1   5
ATOM      5  C   UNK d   1      55.028  91.611  21.783  0.00  0.00     0.063 A 
ATOM      6  C   UNK d   1      55.499  90.425  22.319  0.00  0.00     0.098 A 
ATOM      7  C   UNK d   1      55.800  89.379  21.481  0.00  0.00     0.111 A 
ATOM      8  N   UNK d   1      55.755  90.021  23.592  0.00  0.00    -0.257 N 
ATOM      9  C   UNK d   1      55.627  89.530  20.124  0.00  0.00     0.055 A 
ATOM     10  N   UNK d   1      56.231  88.366  22.271  0.00  0.00    -0.130 NA
ATOM     11  C   UNK d   1      55.159  90.709  19.585  0.00  0.00     0.014 A 
ATOM     12 Br   UNK d   1      54.929  90.889  17.696  0.00  0.00    -0.051 Br
ATOM     13  C   UNK d   1      54.857  91.756  20.415  0.00  0.00     0.038 A 
ATOM     14  N   UNK d   1      56.188  88.793  23.520  0.00  0.00    -0.067 NA
ATOM     15  H   UNK d   1      55.600  90.654  24.403  0.00  0.00     0.191 HD
ENDBRANCH   1   5
BRANCH   3  16
ATOM     16  C   UNK d   1      55.031  93.954  24.831  0.00  0.00     0.203 C 
BRANCH  16  17
ATOM     17  C   UNK d   1      56.138  94.972  24.776  0.00  0.00     0.148 A 
ATOM     18  N   UNK d   1      56.106  96.227  25.252  0.00  0.00    -0.319 N 
ATOM     19  C   UNK d   1      57.282  96.852  25.026  0.00  0.00     0.130 A 
ATOM     20  C   UNK d   1      55.089  96.997  25.931  0.00  0.00     0.132 C 
ATOM     21  N   UNK d   1      58.057  95.961  24.396  0.00  0.00    -0.135 NA
ATOM     22  C   UNK d   1      57.385  98.258  25.505  0.00  0.00     0.081 C 
ATOM     23  N   UNK d   1      57.366  94.821  24.243  0.00  0.00    -0.133 NA
ATOM     24  C   UNK d   1      57.004  98.191  26.991  0.00  0.00     0.009 C 
ATOM     25  C   UNK d   1      55.679  97.539  27.215  0.00  0.00     0.021 C 
ENDBRANCH  16  17
ENDBRANCH   3  16
TORSDOF 3
ENDMDL
