/Users/jonathanwahrer/Desktop/Msc/3_Semester/Drug_Design_Praktikum/waehrer_HTS_screening/HTS_experiment/out/docking_results/vina_output/3npc/1687_docked.pdbqt
 OpenBabel03192220393D

 27 30  0  0  0  0  0  0  0  0999 V2000
   54.4920   97.0340   27.2420 N   0  0  0  0  0  0  0  0  0  0  0  0
   55.4820   97.8070   26.7440 C   0  0  0  0  0  2  0  0  0  0  0  0
   56.4530   97.3060   25.9050 C   0  0  0  0  0  0  0  0  0  0  0  0
   56.4230   95.8970   25.5320 C   0  0  0  0  0  0  0  0  0  0  0  0
   57.4730   95.7010   24.7220 N   0  0  0  0  0  2  0  0  0  0  0  0
   58.1510   96.8460   24.5520 N   0  0  0  0  0  0  0  0  0  0  0  0
   57.5540   97.8210   25.2540 C   0  0  0  0  0  0  0  0  0  0  0  0
   57.9570   99.0050   25.2950 O   0  0  0  0  0  0  0  0  0  0  0  0
   55.3960   95.1340   26.0610 C   0  0  0  0  0  0  0  0  0  0  0  0
   54.4880   95.7410   26.8840 C   0  0  0  0  0  3  0  0  0  0  0  0
   59.0110   96.9070   23.9500 H   0  0  0  0  0  0  0  0  0  0  0  0
   53.4800   97.5980   28.1280 C   0  0  0  0  0  2  0  0  0  0  0  0
   52.5730   98.4790   27.2970 C   0  0  0  0  0  2  0  0  0  0  0  0
   51.2060   98.4430   27.7730 N   0  0  0  0  0  0  0  0  0  0  0  0
   50.4340   97.3400   27.8680 C   0  0  0  0  0  3  0  0  0  0  0  0
   49.2210   97.6660   28.3480 N   0  0  0  0  0  0  0  0  0  0  0  0
   49.1820   99.0070   28.5780 C   0  0  0  0  0  0  0  0  0  0  0  0
   48.2040   99.8560   29.0590 C   0  0  0  0  0  3  0  0  0  0  0  0
   50.4340   99.4550   28.2080 C   0  0  0  0  0  0  0  0  0  0  0  0
   48.4730  101.2030   29.1810 C   0  0  0  0  0  0  0  0  0  0  0  0
   47.2740  102.3450   29.7870 Cl  0  0  0  0  0  0  0  0  0  0  0  0
   49.7300  101.6390   28.8080 C   0  0  0  0  0  3  0  0  0  0  0  0
   50.7110  100.7970   28.3260 C   0  0  0  0  0  3  0  0  0  0  0  0
   55.3330   93.7190   25.7110 C   0  0  0  0  0  0  0  0  0  0  0  0
   55.2770   92.8640   26.6310 O   0  0  0  0  0  0  0  0  0  0  0  0
   55.3350   93.2980   24.4080 O   0  0  0  0  0  0  0  0  0  0  0  0
   54.3410   93.7200   23.4880 C   0  0  0  0  0  1  0  0  0  0  0  0
  1 12  1  0  0  0  0
  2  1  1  0  0  0  0
  3  2  1  0  0  0  0
  4  3  2  0  0  0  0
  4  9  1  0  0  0  0
  5  4  1  0  0  0  0
  6  5  1  0  0  0  0
  6  7  1  0  0  0  0
  7  8  2  0  0  0  0
  7  3  1  0  0  0  0
  9 10  2  0  0  0  0
 10  1  1  0  0  0  0
 11  6  1  0  0  0  0
 13 14  1  0  0  0  0
 13 12  1  0  0  0  0
 14 15  1  0  0  0  0
 14 19  1  0  0  0  0
 15 16  2  0  0  0  0
 16 17  1  0  0  0  0
 17 18  1  0  0  0  0
 18 20  2  0  0  0  0
 19 23  1  0  0  0  0
 19 17  2  0  0  0  0
 20 21  1  0  0  0  0
 22 20  1  0  0  0  0
 23 22  2  0  0  0  0
 24  9  1  0  0  0  0
 24 25  2  0  0  0  0
 26 24  1  0  0  0  0
 27 26  1  0  0  0  0
M  END
>  <Pose>
1

>  <Score>
-9.024

$$$$
