/Users/jonathanwahrer/Desktop/Msc/3_Semester/Drug_Design_Praktikum/waehrer_HTS_screening/HTS_experiment/out/docking_results/vina_output/3npc/1689_docked.pdbqt
 OpenBabel03192220403D

 32 35  0  0  1  0  0  0  0  0999 V2000
   51.7850  100.1320   27.7920 C   0  0  0  0  0  0  0  0  0  0  0  0
   52.2080  100.4730   26.6600 O   0  0  0  0  0  0  0  0  0  0  0  0
   50.4000  100.2180   28.0440 N   0  0  0  0  0  0  0  0  0  0  0  0
   49.6350   99.9100   29.2350 C   0  0  0  0  0  2  0  0  0  0  0  0
   48.6400  100.9810   29.2870 C   0  0  2  0  0  3  0  0  0  0  0  0
   48.6910  101.7120   27.9430 C   0  0  1  0  0  3  0  0  0  0  0  0
   49.4180  100.6540   27.0860 C   0  0  0  0  0  2  0  0  0  0  0  0
   52.7650   99.6640   28.7940 C   0  0  0  0  0  2  0  0  0  0  0  0
   52.6020   98.1950   29.0390 C   0  0  0  0  0  2  0  0  0  0  0  0
   53.3390   97.3970   28.0410 C   0  0  0  0  0  0  0  0  0  0  0  0
   54.6270   97.6090   27.6520 N   0  0  0  0  0  0  0  0  0  0  0  0
   55.0060   96.7220   26.7200 C   0  0  0  0  0  0  0  0  0  0  0  0
   55.2830   98.3510   28.0010 H   0  0  0  0  0  0  0  0  0  0  0  0
   56.1720   96.4940   26.0080 C   0  0  0  0  0  3  0  0  0  0  0  0
   53.9200   95.9080   26.5010 C   0  0  0  0  0  0  0  0  0  0  0  0
   56.2490   95.4600   25.0850 C   0  0  0  0  0  0  0  0  0  0  0  0
   57.7290   95.1910   24.1950 Cl  0  0  0  0  0  0  0  0  0  0  0  0
   55.1630   94.6420   24.8620 C   0  0  0  0  0  3  0  0  0  0  0  0
   54.0030   94.8830   25.5830 C   0  0  0  0  0  3  0  0  0  0  0  0
   52.9330   96.3300   27.3020 N   0  0  0  0  0  0  0  0  0  0  0  0
   48.5830  101.8890   30.3660 N   0  0  0  0  0  0  0  0  0  0  0  0
   49.7630  102.3630   30.8490 C   0  0  0  0  0  3  0  0  0  0  0  0
   49.8140  103.2550   31.8970 C   0  0  0  0  0  0  0  0  0  0  0  0
   48.6530  103.6940   32.4900 C   0  0  0  0  0  0  0  0  0  0  0  0
   51.1220  103.7700   32.4180 C   0  0  0  0  0  1  0  0  0  0  0  0
   48.6710  104.5140   33.4560 O   0  0  0  0  0  0  0  0  0  0  0  0
   47.4890  103.2260   32.0130 N   0  0  0  0  0  0  0  0  0  0  0  0
   47.5030  102.3640   30.9940 C   0  0  0  0  0  0  0  0  0  0  0  0
   46.5740  103.5500   32.4560 H   0  0  0  0  0  0  0  0  0  0  0  0
   46.3920  101.9640   30.5900 O   0  0  0  0  0  0  0  0  0  0  0  0
   47.4480  101.9870   27.4310 O   0  0  0  0  0  0  0  0  0  0  0  0
   47.0270  102.6820   27.9960 H   0  0  0  0  0  0  0  0  0  0  0  0
  1  3  1  0  0  0  0
  1  8  1  0  0  0  0
  2  1  2  0  0  0  0
  3  4  1  0  0  0  0
  5  4  1  1  0  0  0
  5 21  1  0  0  0  0
  6 31  1  6  0  0  0
  6  5  1  0  0  0  0
  7  6  1  0  0  0  0
  7  3  1  0  0  0  0
  8  9  1  0  0  0  0
 10  9  1  0  0  0  0
 11 13  1  0  0  0  0
 11 10  1  0  0  0  0
 12 11  1  0  0  0  0
 14 12  2  0  0  0  0
 15 12  1  0  0  0  0
 15 20  1  0  0  0  0
 16 14  1  0  0  0  0
 17 16  1  0  0  0  0
 18 16  2  0  0  0  0
 18 19  1  0  0  0  0
 19 15  2  0  0  0  0
 20 10  2  0  0  0  0
 21 22  1  0  0  0  0
 21 28  1  0  0  0  0
 22 23  2  0  0  0  0
 23 25  1  0  0  0  0
 23 24  1  0  0  0  0
 24 26  2  0  0  0  0
 27 29  1  0  0  0  0
 27 24  1  0  0  0  0
 28 27  1  0  0  0  0
 30 28  2  0  0  0  0
 31 32  1  0  0  0  0
M  END
>  <Pose>
1

>  <Score>
-10.051

$$$$
