MODEL 1
REMARK VINA RESULT:    -9.001      0.000      0.000
REMARK INTER + INTRA:         -12.200
REMARK INTER:                 -11.369
REMARK INTRA:                  -0.831
REMARK UNBOUND:                -0.831
REMARK  5 active torsions:
REMARK  status: ('A' for Active; 'I' for Inactive)
REMARK    1  A    between atoms: C_6  and  C_11 
REMARK    2  A    between atoms: C_11  and  C_12 
REMARK    3  A    between atoms: C_12  and  C_13 
REMARK       I    between atoms: C_13  and  N_15 
REMARK    4  A    between atoms: C_17  and  O_30 
REMARK    5  A    between atoms: C_18  and  N_21 
ROOT
ATOM      1  C   UNK d   1      53.661  83.681  20.622  0.00  0.00     0.220 C 
ATOM      2  O   UNK d   1      54.570  82.918  20.206  0.00  0.00    -0.273 OA
ATOM      3  N   UNK d   1      52.782  83.269  21.668  0.00  0.00    -0.349 N 
ATOM      4  C   UNK d   1      51.715  84.090  22.197  0.00  0.00     0.165 C 
ATOM      5  C   UNK d   1      51.580  83.881  23.715  0.00  0.00     0.091 C 
ATOM      6  C   UNK d   1      52.922  83.452  24.201  0.00  0.00     0.131 C 
ATOM      7  C   UNK d   1      53.190  82.037  23.741  0.00  0.00     0.049 C 
ATOM      8  C   UNK d   1      52.953  81.954  22.247  0.00  0.00     0.128 C 
ATOM      9  C   UNK d   1      50.477  82.892  23.921  0.00  0.00     0.050 C 
ENDROOT
BRANCH   1  10
ATOM     10  C   UNK d   1      53.477  85.021  20.039  0.00  0.00     0.110 C 
BRANCH  10  11
ATOM     11  C   UNK d   1      54.263  86.025  20.833  0.00  0.00     0.087 C 
BRANCH  11  12
ATOM     12  C   UNK d   1      53.908  87.387  20.369  0.00  0.00     0.105 A 
ATOM     13  N   UNK d   1      52.757  87.709  19.717  0.00  0.00    -0.343 N 
ATOM     14  C   UNK d   1      52.734  89.015  19.420  0.00  0.00     0.064 A 
ATOM     15  H   UNK d   1      52.007  87.000  19.492  0.00  0.00     0.167 HD
ATOM     16  C   UNK d   1      51.823  89.823  18.783  0.00  0.00     0.055 A 
ATOM     17  C   UNK d   1      53.909  89.539  19.900  0.00  0.00     0.085 A 
ATOM     18  C   UNK d   1      52.046  91.176  18.599  0.00  0.00     0.036 A 
ATOM     19 Cl   UNK d   1      50.894  92.214  17.791  0.00  0.00    -0.084 Cl
ATOM     20  C   UNK d   1      53.231  91.698  19.086  0.00  0.00     0.026 A 
ATOM     21  C   UNK d   1      54.154  90.884  19.730  0.00  0.00     0.036 A 
ATOM     22  N   UNK d   1      54.578  88.527  20.459  0.00  0.00    -0.233 NA
ENDBRANCH  11  12
ENDBRANCH  10  11
ENDBRANCH   1  10
BRANCH   5  23
ATOM     23  O   UNK d   1      51.201  85.132  24.224  0.00  0.00    -0.386 OA
ATOM     24  H   UNK d   1      50.404  85.467  23.703  0.00  0.00     0.210 HD
ENDBRANCH   5  23
BRANCH   6  25
ATOM     25  N   UNK d   1      53.183  83.657  25.582  0.00  0.00    -0.301 N 
ATOM     26  C   UNK d   1      52.767  82.826  26.549  0.00  0.00     0.108 A 
ATOM     27  C   UNK d   1      53.040  83.059  27.891  0.00  0.00     0.022 A 
ATOM     28  C   UNK d   1      53.761  84.177  28.242  0.00  0.00     0.256 A 
ATOM     29  C   UNK d   1      52.549  82.090  28.930  0.00  0.00     0.056 C 
ATOM     30  O   UNK d   1      54.014  84.394  29.468  0.00  0.00    -0.267 OA
ATOM     31  N   UNK d   1      54.174  85.006  27.273  0.00  0.00    -0.275 N 
ATOM     32  C   UNK d   1      53.884  84.736  25.989  0.00  0.00     0.329 A 
ATOM     33  H   UNK d   1      54.721  85.856  27.525  0.00  0.00     0.173 HD
ATOM     34  O   UNK d   1      54.282  85.531  25.066  0.00  0.00    -0.246 OA
ENDBRANCH   6  25
TORSDOF 5
ENDMDL
