/Users/jonathanwahrer/Desktop/Msc/3_Semester/Drug_Design_Praktikum/waehrer_HTS_screening/HTS_experiment/out/docking_results/vina_output/3npc/1691_docked.pdbqt
 OpenBabel03192220403D

 35 39  0  0  1  0  0  0  0  0999 V2000
   50.9150   99.8490   28.0670 C   0  0  0  0  0  0  0  0  0  0  0  0
   51.7220  100.6930   27.6330 O   0  0  0  0  0  0  0  0  0  0  0  0
   49.5800  100.2090   28.3100 N   0  0  0  0  0  0  0  0  0  0  0  0
   48.8880  101.4500   28.1610 C   0  0  0  0  0  2  0  0  0  0  0  0
   47.9820  101.5390   29.4130 C   0  0  1  0  0  3  0  0  0  0  0  0
   47.6480  100.1000   29.5840 C   0  0  2  0  0  3  0  0  0  0  0  0
   48.5850   99.2650   28.7790 C   0  0  0  0  0  2  0  0  0  0  0  0
   51.3760   98.4760   28.3220 C   0  0  0  0  0  2  0  0  0  0  0  0
   52.8320   98.4730   28.7310 C   0  0  0  0  0  2  0  0  0  0  0  0
   53.6020   97.5990   27.7860 C   0  0  0  0  0  0  0  0  0  0  0  0
   54.8010   97.9100   27.2640 N   0  0  0  0  0  0  0  0  0  0  0  0
   55.2400   96.9330   26.4540 C   0  0  0  0  0  0  0  0  0  0  0  0
   55.3510   98.7920   27.4460 H   0  0  0  0  0  0  0  0  0  0  0  0
   56.3950   96.7690   25.6890 C   0  0  0  0  0  3  0  0  0  0  0  0
   54.2630   95.9600   26.4710 C   0  0  0  0  0  0  0  0  0  0  0  0
   56.5670   95.6280   24.9400 C   0  0  0  0  0  0  0  0  0  0  0  0
   58.0050   95.3740   23.9590 Cl  0  0  0  0  0  0  0  0  0  0  0  0
   55.5960   94.6660   24.9600 C   0  0  0  0  0  3  0  0  0  0  0  0
   54.4360   94.8160   25.7210 C   0  0  0  0  0  3  0  0  0  0  0  0
   53.2870   96.4020   27.2910 N   0  0  0  0  0  0  0  0  0  0  0  0
   48.7430  102.1060   30.4890 N   0  0  0  0  0  0  0  0  0  0  0  0
   48.2900  102.6120   31.6480 C   0  0  0  0  0  0  0  0  0  0  0  0
   49.3920  103.0550   32.4080 C   0  0  0  0  0  0  0  0  0  0  0  0
   47.0460  102.7460   32.1510 N   0  0  0  0  0  0  0  0  0  0  0  0
   50.4810  102.7970   31.6650 N   0  0  0  0  0  0  0  0  0  0  0  0
   49.2210  103.6230   33.6500 C   0  0  0  0  0  0  0  0  0  0  0  0
   50.1120  102.2310   30.5190 C   0  0  0  0  0  3  0  0  0  0  0  0
   50.2260  104.0100   34.3050 O   0  0  0  0  0  0  0  0  0  0  0  0
   47.9720  103.7380   34.1140 N   0  0  0  0  0  0  0  0  0  0  0  0
   46.9350  103.3160   33.3900 C   0  0  0  0  0  0  0  0  0  0  0  0
   47.7580  104.3380   35.4330 C   0  0  0  0  0  1  0  0  0  0  0  0
   45.7640  103.4320   33.8400 O   0  0  0  0  0  0  0  0  0  0  0  0
   45.8900  102.3170   31.4300 C   0  0  0  0  0  1  0  0  0  0  0  0
   46.3570   99.7790   29.1660 O   0  0  0  0  0  0  0  0  0  0  0  0
   46.3440   98.9430   28.6200 H   0  0  0  0  0  0  0  0  0  0  0  0
  1  3  1  0  0  0  0
  1  8  1  0  0  0  0
  2  1  2  0  0  0  0
  3  7  1  0  0  0  0
  4  3  1  0  0  0  0
  5  4  1  6  0  0  0
  5  6  1  0  0  0  0
  5 21  1  0  0  0  0
  6 34  1  6  0  0  0
  7  6  1  0  0  0  0
  8  9  1  0  0  0  0
 10  9  1  0  0  0  0
 11 13  1  0  0  0  0
 11 10  1  0  0  0  0
 12 15  1  0  0  0  0
 12 11  1  0  0  0  0
 14 12  2  0  0  0  0
 15 20  1  0  0  0  0
 16 18  2  0  0  0  0
 16 14  1  0  0  0  0
 17 16  1  0  0  0  0
 18 19  1  0  0  0  0
 19 15  2  0  0  0  0
 20 10  2  0  0  0  0
 21 27  1  0  0  0  0
 21 22  1  0  0  0  0
 22 24  1  0  0  0  0
 22 23  2  0  0  0  0
 23 26  1  0  0  0  0
 24 30  1  0  0  0  0
 25 23  1  0  0  0  0
 26 29  1  0  0  0  0
 26 28  2  0  0  0  0
 27 25  2  0  0  0  0
 29 31  1  0  0  0  0
 30 32  2  0  0  0  0
 30 29  1  0  0  0  0
 33 24  1  0  0  0  0
 35 34  1  0  0  0  0
M  END
>  <Pose>
1

>  <Score>
-9.568

$$$$
