/Users/jonathanwahrer/Desktop/Msc/3_Semester/Drug_Design_Praktikum/waehrer_HTS_screening/HTS_experiment/out/docking_results/vina_output/3npc/1706_docked.pdbqt
 OpenBabel03192220413D

 25 28  0  0  1  0  0  0  0  0999 V2000
   55.4750   85.8280   23.0050 F   0  0  0  0  0  0  0  0  0  0  0  0
   55.3110   87.0040   22.3120 C   0  0  0  0  0  0  0  0  0  0  0  0
   54.3990   87.0340   21.2490 C   0  0  0  0  0  0  0  0  0  0  0  0
   54.2220   88.1880   20.5500 C   0  0  0  0  0  0  0  0  0  0  0  0
   54.9460   89.3390   20.8910 C   0  0  0  0  0  3  0  0  0  0  0  0
   55.8300   89.2820   21.9330 C   0  0  0  0  0  3  0  0  0  0  0  0
   56.0250   88.1270   22.6520 C   0  0  0  0  0  0  0  0  0  0  0  0
   57.1690   88.0600   23.9990 Cl  0  0  0  0  0  0  0  0  0  0  0  0
   53.2090   87.9490   19.4880 C   0  0  2  0  0  0  0  0  0  0  0  0
   53.7910   88.2190   18.2110 N   0  0  0  0  0  0  0  0  0  0  0  0
   53.7840   89.5220   17.6680 C   0  0  0  0  0  0  0  0  0  0  0  0
   54.5970   89.8790   16.6410 N   0  0  0  0  0  0  0  0  0  0  0  0
   54.6310   91.0970   16.0910 C   0  0  0  0  0  3  0  0  0  0  0  0
   53.7850   92.0850   16.5830 C   0  0  0  0  0  3  0  0  0  0  0  0
   52.9340   91.8080   17.6160 C   0  0  0  0  0  3  0  0  0  0  0  0
   52.9530   90.5310   18.1350 C   0  0  0  0  0  0  0  0  0  0  0  0
   52.0800   90.1320   19.2430 C   0  0  0  0  0  0  0  0  0  0  0  0
   51.2980   91.0310   19.7060 O   0  0  0  0  0  0  0  0  0  0  0  0
   52.0930   88.8320   19.7780 N   0  0  0  0  0  0  0  0  0  0  0  0
   52.8310   86.5410   19.6520 C   0  0  0  0  0  0  0  0  0  0  0  0
   51.9790   85.8790   18.9530 O   0  0  0  0  0  0  0  0  0  0  0  0
   53.5580   85.9980   20.7240 N   0  0  0  0  0  0  0  0  0  0  0  0
   54.2370   87.4580   17.6430 H   0  0  0  0  0  0  0  0  0  0  0  0
   51.2820   88.5480   20.3760 H   0  0  0  0  0  0  0  0  0  0  0  0
   53.5360   85.0200   21.1170 H   0  0  0  0  0  0  0  0  0  0  0  0
  2  7  1  0  0  0  0
  2  1  1  0  0  0  0
  3  2  2  0  0  0  0
  4  5  2  0  0  0  0
  4  3  1  0  0  0  0
  5  6  1  0  0  0  0
  6  7  2  0  0  0  0
  7  8  1  0  0  0  0
  9 20  1  1  0  0  0
  9 19  1  0  0  0  0
  9  4  1  0  0  0  0
 10  9  1  0  0  0  0
 11 16  1  0  0  0  0
 11 10  1  0  0  0  0
 12 11  2  0  0  0  0
 13 14  2  0  0  0  0
 13 12  1  0  0  0  0
 14 15  1  0  0  0  0
 15 16  2  0  0  0  0
 16 17  1  0  0  0  0
 17 18  2  0  0  0  0
 17 19  1  0  0  0  0
 19 24  1  0  0  0  0
 20 22  1  0  0  0  0
 21 20  2  0  0  0  0
 22 25  1  0  0  0  0
 22  3  1  0  0  0  0
 23 10  1  0  0  0  0
M  END
>  <Pose>
1

>  <Score>
-9.230

$$$$
