MODEL 1
REMARK VINA RESULT:    -9.230      0.000      0.000
REMARK INTER + INTRA:          -9.230
REMARK INTER:                  -9.230
REMARK INTRA:                   0.000
REMARK UNBOUND:                 0.000
REMARK  0 active torsions:
REMARK  status: ('A' for Active; 'I' for Inactive)
ROOT
ATOM      1  F   UNK d   1      55.475  85.828  23.005  0.00  0.00    -0.202 F 
ATOM      2  C   UNK d   1      55.311  87.004  22.312  0.00  0.00     0.165 A 
ATOM      3  C   UNK d   1      54.399  87.034  21.249  0.00  0.00     0.086 A 
ATOM      4  C   UNK d   1      54.222  88.188  20.550  0.00  0.00     0.030 A 
ATOM      5  C   UNK d   1      54.946  89.339  20.891  0.00  0.00     0.016 A 
ATOM      6  C   UNK d   1      55.830  89.282  21.933  0.00  0.00     0.028 A 
ATOM      7  C   UNK d   1      56.025  88.127  22.652  0.00  0.00     0.074 A 
ATOM      8 Cl   UNK d   1      57.169  88.060  23.999  0.00  0.00    -0.081 Cl
ATOM      9  C   UNK d   1      53.209  87.949  19.488  0.00  0.00     0.222 A 
ATOM     10  N   UNK d   1      53.791  88.219  18.211  0.00  0.00    -0.336 N 
ATOM     11  C   UNK d   1      53.784  89.522  17.668  0.00  0.00     0.141 A 
ATOM     12  N   UNK d   1      54.597  89.879  16.641  0.00  0.00    -0.243 NA
ATOM     13  C   UNK d   1      54.631  91.097  16.091  0.00  0.00     0.119 A 
ATOM     14  C   UNK d   1      53.785  92.085  16.583  0.00  0.00     0.020 A 
ATOM     15  C   UNK d   1      52.934  91.808  17.616  0.00  0.00     0.022 A 
ATOM     16  C   UNK d   1      52.953  90.531  18.135  0.00  0.00     0.077 A 
ATOM     17  C   UNK d   1      52.080  90.132  19.243  0.00  0.00     0.258 C 
ATOM     18  O   UNK d   1      51.298  91.031  19.706  0.00  0.00    -0.267 OA
ATOM     19  N   UNK d   1      52.093  88.832  19.778  0.00  0.00    -0.318 N 
ATOM     20  C   UNK d   1      52.831  86.541  19.652  0.00  0.00     0.277 A 
ATOM     21  O   UNK d   1      51.979  85.879  18.953  0.00  0.00    -0.268 OA
ATOM     22  N   UNK d   1      53.558  85.998  20.724  0.00  0.00    -0.320 N 
ATOM     23  H   UNK d   1      54.237  87.458  17.643  0.00  0.00     0.164 HD
ATOM     24  H   UNK d   1      51.282  88.548  20.376  0.00  0.00     0.166 HD
ATOM     25  H   UNK d   1      53.536  85.020  21.117  0.00  0.00     0.169 HD
ENDROOT
TORSDOF 0
ENDMDL
