/Users/jonathanwahrer/Desktop/Msc/3_Semester/Drug_Design_Praktikum/waehrer_HTS_screening/HTS_experiment/out/docking_results/vina_output/3npc/1711_docked.pdbqt
 OpenBabel03192220413D

 30 33  0  0  0  0  0  0  0  0999 V2000
   56.7680   87.5510   23.4150 N   0  0  0  0  0  0  0  0  0  0  0  0
   55.7940   88.3630   24.0550 C   0  0  0  0  0  2  0  0  0  0  0  0
   55.3170   87.8000   25.3710 C   0  0  0  0  0  2  0  0  0  0  0  0
   55.3100   86.3600   25.3840 N   0  0  0  0  0  0  0  0  0  0  0  0
   56.4860   85.6430   24.9530 C   0  0  0  0  0  2  0  0  0  0  0  0
   57.4000   86.6010   24.2540 C   0  0  0  0  0  2  0  0  0  0  0  0
   54.1830   85.6140   25.8080 C   0  0  0  0  0  0  0  0  0  0  0  0
   53.1630   86.2240   26.1820 O   0  0  0  0  0  0  0  0  0  0  0  0
   54.1830   84.1340   25.8200 C   0  0  0  0  0  2  0  0  0  0  0  0
   52.9950   83.6090   25.2110 N   0  0  0  0  0  0  0  0  0  0  0  0
   51.8090   83.1110   25.8150 C   0  0  0  0  0  0  0  0  0  0  0  0
   51.6190   83.0560   27.0500 O   0  0  0  0  0  0  0  0  0  0  0  0
   50.8970   82.6970   24.7620 C   0  0  0  0  0  0  0  0  0  0  0  0
   51.4870   82.9260   23.5420 C   0  0  0  0  0  0  0  0  0  0  0  0
   49.6370   82.1550   24.7960 C   0  0  0  0  0  3  0  0  0  0  0  0
   50.7980   82.6050   22.3800 C   0  0  0  0  0  3  0  0  0  0  0  0
   52.8030   83.4980   23.7960 C   0  0  0  0  0  0  0  0  0  0  0  0
   49.5420   82.0650   22.4170 C   0  0  0  0  0  3  0  0  0  0  0  0
   48.9310   81.8270   23.6480 C   0  0  0  0  0  3  0  0  0  0  0  0
   53.5920   83.8190   22.8690 O   0  0  0  0  0  0  0  0  0  0  0  0
   56.4510   87.0990   21.8290 S   0  0  0  0  0  0  0  0  0  0  0  0
   57.7460   86.6040   21.1980 O   0  0  0  0  0  0  0  0  0  0  0  0
   55.5360   85.8890   21.8480 O   0  0  0  0  0  0  0  0  0  0  0  0
   55.7100   88.2980   20.8400 C   0  0  0  0  0  0  0  0  0  0  0  0
   56.4430   89.3960   20.4220 C   0  0  0  0  0  3  0  0  0  0  0  0
   55.8990   90.3850   19.6280 C   0  0  0  0  0  3  0  0  0  0  0  0
   54.5750   90.2550   19.2490 C   0  0  0  0  0  0  0  0  0  0  0  0
   53.8560   89.1570   19.6740 C   0  0  0  0  0  3  0  0  0  0  0  0
   53.7520   91.6000   18.1420 Br  0  0  0  0  0  0  0  0  0  0  0  0
   54.3880   88.1600   20.4670 C   0  0  0  0  0  3  0  0  0  0  0  0
  1  2  1  0  0  0  0
  1  6  1  0  0  0  0
  2  3  1  0  0  0  0
  3  4  1  0  0  0  0
  4  7  1  0  0  0  0
  5  4  1  0  0  0  0
  6  5  1  0  0  0  0
  7  9  1  0  0  0  0
  7  8  2  0  0  0  0
 10 11  1  0  0  0  0
 10  9  1  0  0  0  0
 11 12  2  0  0  0  0
 13 15  1  0  0  0  0
 13 11  1  0  0  0  0
 14 17  1  0  0  0  0
 14 13  2  0  0  0  0
 16 18  2  0  0  0  0
 16 14  1  0  0  0  0
 17 10  1  0  0  0  0
 18 19  1  0  0  0  0
 19 15  2  0  0  0  0
 20 17  2  0  0  0  0
 21 23  2  0  0  0  0
 21  1  1  0  0  0  0
 22 21  2  0  0  0  0
 24 21  1  0  0  0  0
 25 24  2  0  0  0  0
 26 25  1  0  0  0  0
 27 26  2  0  0  0  0
 27 28  1  0  0  0  0
 28 30  2  0  0  0  0
 29 27  1  0  0  0  0
 30 24  1  0  0  0  0
M  END
>  <Pose>
1

>  <Score>
-8.882

$$$$
