/Users/jonathanwahrer/Desktop/Msc/3_Semester/Drug_Design_Praktikum/waehrer_HTS_screening/HTS_experiment/out/docking_results/vina_output/3npc/1721_docked.pdbqt
 OpenBabel03192220413D

 28 31  0  0  1  0  0  0  0  0999 V2000
   52.6350   99.0710   27.6500 C   0  0  0  0  0  2  0  0  0  0  0  0
   53.5710   98.0900   28.0520 N   0  0  0  0  0  0  0  0  0  0  0  0
   53.6090   97.7610   29.0210 H   0  0  0  0  0  0  0  0  0  0  0  0
   54.4990   97.5530   27.0800 C   0  0  0  0  0  0  0  0  0  0  0  0
   54.1470   96.3680   26.4790 C   0  0  1  0  0  3  0  0  0  0  0  0
   55.0130   95.8170   25.5390 C   0  0  0  0  0  0  0  0  0  0  0  0
   53.1160   95.5140   26.5460 N   0  0  0  0  0  0  0  0  0  0  0  0
   56.1370   96.5000   25.2940 N   0  0  0  0  0  4  0  0  0  0  0  0
   54.4690   94.6740   25.0920 N   0  0  0  0  0  0  0  0  0  0  0  0
   56.4850   97.6440   25.8680 C   0  0  0  0  0  0  0  0  0  0  0  0
   57.9800   98.4500   25.4720 Cl  0  0  0  0  0  0  0  0  0  0  0  0
   55.6450   98.1800   26.7810 N   0  0  0  0  0  0  0  0  0  0  0  0
   53.2910   94.4750   25.7080 C   0  0  0  0  0  3  0  0  0  0  0  0
   52.2980   95.6850   27.1900 H   0  0  0  0  0  0  0  0  0  0  0  0
   51.2570   98.8530   28.0630 C   0  0  0  0  0  0  0  0  0  0  0  0
   51.1090   97.7120   28.7710 O   0  0  0  0  0  0  0  0  0  0  0  0
   50.1150   99.5780   27.8660 N   0  0  0  0  0  0  0  0  0  0  0  0
   49.9350  100.7490   27.0780 C   0  0  0  0  0  2  0  0  0  0  0  0
   48.8880   99.0830   28.5990 C   0  0  0  0  0  2  0  0  0  0  0  0
   49.5510  101.9550   27.9330 C   0  0  0  0  0  2  0  0  0  0  0  0
   48.8080  101.4190   29.0380 N   0  0  0  0  0  0  0  0  0  0  0  0
   47.9620  100.2890   28.7900 C   0  0  0  0  0  2  0  0  0  0  0  0
   48.8800  101.9600   30.3340 C   0  0  0  0  0  0  0  0  0  0  0  0
   47.7880  102.4970   30.9510 N   0  0  0  0  0  0  0  0  0  0  0  0
   47.7870  103.0210   32.1640 C   0  0  0  0  0  3  0  0  0  0  0  0
   48.9220  103.0700   32.9240 C   0  0  0  0  0  3  0  0  0  0  0  0
   50.0720  102.5400   32.3560 C   0  0  0  0  0  3  0  0  0  0  0  0
   50.0480  101.9950   31.0820 C   0  0  0  0  0  3  0  0  0  0  0  0
  1  2  1  0  0  0  0
  1 15  1  0  0  0  0
  2  3  1  0  0  0  0
  4  2  1  0  0  0  0
  5  6  1  1  0  0  0
  5  7  1  0  0  0  0
  5  4  1  0  0  0  0
  7 14  1  0  0  0  0
  8  6  2  0  0  0  0
  8 10  2  0  0  0  0
  9  6  1  0  0  0  0
  9 13  2  0  0  0  0
 10 12  1  0  0  0  0
 11 10  1  0  0  0  0
 12  4  2  0  0  0  0
 13  7  1  0  0  0  0
 15 16  2  0  0  0  0
 17 15  1  0  0  0  0
 17 19  1  0  0  0  0
 18 17  1  0  0  0  0
 18 20  1  0  0  0  0
 19 22  1  0  0  0  0
 20 21  1  0  0  0  0
 21 23  1  0  0  0  0
 22 21  1  0  0  0  0
 23 24  2  0  0  0  0
 23 28  1  0  0  0  0
 24 25  1  0  0  0  0
 25 26  2  0  0  0  0
 27 26  1  0  0  0  0
 28 27  2  0  0  0  0
M  END
>  <Pose>
1

>  <Score>
-8.551

$$$$
