MODEL 1
REMARK VINA RESULT:    -8.455      0.000      0.000
REMARK INTER + INTRA:         -11.515
REMARK INTER:                 -11.173
REMARK INTRA:                  -0.342
REMARK UNBOUND:                -0.342
REMARK  6 active torsions:
REMARK  status: ('A' for Active; 'I' for Inactive)
REMARK    1  A    between atoms: C_3  and  O_10 
REMARK    2  A    between atoms: O_10  and  C_11 
REMARK    3  A    between atoms: C_11  and  C_12 
REMARK    4  A    between atoms: C_12  and  O_13 
REMARK    5  A    between atoms: C_12  and  C_14 
REMARK    6  A    between atoms: C_14  and  N_15 
ROOT
ATOM      1  N   UNK d   1      53.946  84.683  17.926  0.00  0.00    -0.068 N 
ATOM      2  C   UNK d   1      54.544  83.658  18.713  0.00  0.00     0.241 C 
ATOM      3  C   UNK d   1      54.847  82.386  17.986  0.00  0.00     0.031 C 
ATOM      4  C   UNK d   1      53.652  81.566  17.652  0.00  0.00     0.138 C 
ATOM      5  N   UNK d   1      53.365  81.457  16.249  0.00  0.00    -0.317 N 
ATOM      6  C   UNK d   1      53.776  82.333  15.314  0.00  0.00     0.020 A 
ATOM      7  C   UNK d   1      53.502  82.230  13.980  0.00  0.00     0.026 A 
ATOM      8  C   UNK d   1      52.754  81.158  13.540  0.00  0.00     0.007 A 
ATOM      9  C   UNK d   1      52.330  80.258  14.488  0.00  0.00     0.074 A 
ATOM     10  C   UNK d   1      52.623  80.393  15.824  0.00  0.00     0.247 A 
ATOM     11  O   UNK d   1      52.217  79.549  16.664  0.00  0.00    -0.268 OA
ATOM     12  C   UNK d   1      54.590  83.484  15.862  0.00  0.00     0.062 C 
ATOM     13  C   UNK d   1      53.653  84.372  16.580  0.00  0.00     0.245 C 
ATOM     14  C   UNK d   1      55.623  82.815  16.735  0.00  0.00     0.020 C 
ATOM     15  H   UNK d   1      54.614  85.513  17.926  0.00  0.00     0.280 HD
ENDROOT
BRANCH   1  16
ATOM     16  C   UNK d   1      52.774  85.147  18.643  0.00  0.00     0.268 C 
BRANCH  16  17
ATOM     17  C   UNK d   1      53.090  85.979  19.844  0.00  0.00     0.168 C 
BRANCH  17  18
ATOM     18  C   UNK d   1      52.647  87.405  19.517  0.00  0.00     0.209 C 
BRANCH  18  19
ATOM     19  O   UNK d   1      53.814  88.159  19.358  0.00  0.00    -0.346 OA
BRANCH  19  20
ATOM     20  C   UNK d   1      54.157  89.305  19.994  0.00  0.00     0.103 A 
ATOM     21  C   UNK d   1      53.598  90.505  19.615  0.00  0.00     0.046 A 
ATOM     22 Br   UNK d   1      52.339  90.506  18.186  0.00  0.00    -0.048 Br
ATOM     23  C   UNK d   1      53.926  91.704  20.243  0.00  0.00     0.028 A 
ATOM     24  C   UNK d   1      54.828  91.703  21.266  0.00  0.00    -0.059 A 
ATOM     25  C   UNK d   1      55.407  90.515  21.670  0.00  0.00     0.028 A 
ATOM     26  C   UNK d   1      55.176  92.995  21.936  0.00  0.00     0.048 C 
ATOM     27  C   UNK d   1      55.066  89.320  21.029  0.00  0.00     0.046 A 
ATOM     28 Br   UNK d   1      55.857  87.679  21.577  0.00  0.00    -0.048 Br
ENDBRANCH  19  20
ENDBRANCH  18  19
ENDBRANCH  17  18
BRANCH  17  29
ATOM     29  O   UNK d   1      52.413  85.481  20.957  0.00  0.00    -0.392 OA
ATOM     30  H   UNK d   1      51.441  85.536  20.733  0.00  0.00     0.210 HD
ENDBRANCH  17  29
ENDBRANCH  16  17
ENDBRANCH   1  16
TORSDOF 6
ENDMDL
