MODEL 1
REMARK VINA RESULT:    -8.779      0.000      0.000
REMARK INTER + INTRA:         -12.296
REMARK INTER:                 -11.345
REMARK INTRA:                  -0.951
REMARK UNBOUND:                -0.951
REMARK  5 active torsions:
REMARK  status: ('A' for Active; 'I' for Inactive)
REMARK    1  A    between atoms: C_3  and  N_8 
REMARK       I    between atoms: N_8  and  C_9 
REMARK    2  A    between atoms: C_9  and  C_11 
REMARK    3  A    between atoms: C_11  and  N_12 
REMARK    4  A    between atoms: C_15  and  C_17 
REMARK    5  A    between atoms: C_18  and  N_23 
ROOT
ATOM      1  N   UNK d   1      53.881  84.015  21.310  0.00  0.00    -0.182 N 
ATOM      2  N   UNK d   1      53.796  84.472  22.549  0.00  0.00     0.025 NA
ATOM      3  N   UNK d   1      54.054  85.775  22.569  0.00  0.00    -0.136 NA
ATOM      4  C   UNK d   1      54.312  86.171  21.304  0.00  0.00     0.200 A 
ATOM      5  N   UNK d   1      54.195  85.058  20.561  0.00  0.00    -0.136 NA
ENDROOT
BRANCH   1   6
ATOM      6  C   UNK d   1      53.668  82.631  20.857  0.00  0.00     0.272 C 
BRANCH   6   7
ATOM      7  C   UNK d   1      53.451  82.589  19.386  0.00  0.00     0.243 C 
ATOM      8  N   UNK d   1      54.520  82.593  18.490  0.00  0.00    -0.324 N 
ATOM      9  H   UNK d   1      55.488  82.628  18.930  0.00  0.00     0.169 HD
ATOM     10  O   UNK d   1      52.270  82.550  18.996  0.00  0.00    -0.271 OA
BRANCH   8  11
ATOM     11  C   UNK d   1      54.492  82.558  17.080  0.00  0.00     0.052 A 
ATOM     12  C   UNK d   1      54.671  81.355  16.396  0.00  0.00     0.037 A 
ATOM     13 Br   UNK d   1      54.954  79.784  17.415  0.00  0.00    -0.049 Br
ATOM     14  C   UNK d   1      54.656  81.244  15.028  0.00  0.00     0.021 A 
ATOM     15  C   UNK d   1      54.453  82.371  14.263  0.00  0.00     0.002 A 
ATOM     16  C   UNK d   1      54.269  83.585  14.878  0.00  0.00     0.002 A 
ATOM     17  C   UNK d   1      54.290  83.662  16.273  0.00  0.00     0.031 A 
ENDBRANCH   8  11
ENDBRANCH   6   7
ENDBRANCH   1   6
BRANCH   4  18
ATOM     18  C   UNK d   1      54.644  87.515  20.857  0.00  0.00     0.044 A 
ATOM     19  C   UNK d   1      55.848  88.050  21.253  0.00  0.00     0.075 A 
ATOM     20  C   UNK d   1      56.163  89.330  20.828  0.00  0.00     0.032 A 
ATOM     21  C   UNK d   1      55.318  90.065  20.035  0.00  0.00     0.002 A 
ATOM     22  C   UNK d   1      54.109  89.531  19.637  0.00  0.00     0.001 A 
ATOM     23  C   UNK d   1      53.797  88.252  20.063  0.00  0.00     0.018 A 
BRANCH  19  24
ATOM     24  N   UNK d   1      56.778  87.347  22.076  0.00  0.00    -0.205 N 
ATOM     25  N   UNK d   1      57.600  86.405  21.631  0.00  0.00    -0.040 NA
ATOM     26  N   UNK d   1      58.320  85.962  22.637  0.00  0.00    -0.023 NA
ATOM     27  N   UNK d   1      57.954  86.627  23.730  0.00  0.00    -0.122 NA
ATOM     28  C   UNK d   1      56.985  87.497  23.376  0.00  0.00     0.262 A 
ENDBRANCH  19  24
ENDBRANCH   4  18
TORSDOF 5
ENDMDL
