/Users/jonathanwahrer/Desktop/Msc/3_Semester/Drug_Design_Praktikum/waehrer_HTS_screening/HTS_experiment/out/docking_results/vina_output/3npc/1736_docked.pdbqt
 OpenBabel03192220423D

 35 39  0  0  1  0  0  0  0  0999 V2000
   57.9760   86.2080   22.3920 Cl  0  0  0  0  0  0  0  0  0  0  0  0
   56.4600   86.8300   21.7190 C   0  0  0  0  0  0  0  0  0  0  0  0
   55.6130   86.0120   21.0150 C   0  0  0  0  0  3  0  0  0  0  0  0
   54.4430   86.5010   20.4980 C   0  0  0  0  0  0  0  0  0  0  0  0
   54.1230   87.8220   20.6900 C   0  0  0  0  0  0  0  0  0  0  0  0
   54.9640   88.6770   21.4020 C   0  0  0  0  0  3  0  0  0  0  0  0
   56.1330   88.1550   21.9080 C   0  0  0  0  0  3  0  0  0  0  0  0
   52.8850   88.1420   20.0840 N   0  0  0  0  0  0  0  0  0  0  0  0
   52.4100   86.9480   19.4800 C   0  0  0  0  0  0  0  0  0  0  0  0
   51.3420   86.8310   18.8410 O   0  0  0  0  0  0  0  0  0  0  0  0
   53.3670   85.8510   19.7160 C   0  0  1  0  0  0  0  0  0  0  0  0
   53.8550   85.2690   18.4890 N   0  0  0  0  0  0  0  0  0  0  0  0
   54.0090   83.8640   18.7050 C   0  0  1  0  0  3  0  0  0  0  0  0
   52.9370   83.4490   19.6850 C   0  0  2  0  0  3  0  0  0  0  0  0
   52.6960   84.7360   20.4330 C   0  0  1  0  0  3  0  0  0  0  0  0
   53.1830   84.5150   21.8160 C   0  0  0  0  0  0  0  0  0  0  0  0
   53.5120   85.3620   22.6850 O   0  0  0  0  0  0  0  0  0  0  0  0
   53.2120   83.0840   21.9980 N   0  0  0  0  0  0  0  0  0  0  0  0
   53.4170   82.4810   20.7040 C   0  0  0  0  0  0  0  0  0  0  0  0
   53.9080   81.3490   20.4590 O   0  0  0  0  0  0  0  0  0  0  0  0
   52.3750   89.0730   20.0590 H   0  0  0  0  0  0  0  0  0  0  0  0
   54.7270   85.7220   18.2010 H   0  0  0  0  0  0  0  0  0  0  0  0
   53.9190   83.0820   17.4120 C   0  0  1  0  0  3  0  0  0  0  0  0
   54.5120   83.9720   16.3250 C   0  0  0  0  0  1  0  0  0  0  0  0
   54.7660   81.9840   17.5250 O   0  0  0  0  0  0  0  0  0  0  0  0
   55.6810   82.2460   17.2760 H   0  0  0  0  0  0  0  0  0  0  0  0
   53.0650   82.3630   23.2440 C   0  0  0  0  0  2  0  0  0  0  0  0
   51.6170   82.2170   23.5830 C   0  0  0  0  0  0  0  0  0  0  0  0
   51.1510   82.5360   24.8410 C   0  0  0  0  0  0  0  0  0  0  0  0
   49.8050   82.3930   25.1310 C   0  0  0  0  0  3  0  0  0  0  0  0
   48.8990   81.9370   24.1920 C   0  0  0  0  0  3  0  0  0  0  0  0
   49.3550   81.6150   22.9330 C   0  0  0  0  0  3  0  0  0  0  0  0
   50.6950   81.7620   22.6580 C   0  0  0  0  0  3  0  0  0  0  0  0
   52.0690   82.9980   25.7900 O   0  0  0  0  0  0  0  0  0  0  0  0
   52.0060   84.3740   26.1810 C   0  0  0  0  0  1  0  0  0  0  0  0
  2  7  1  0  0  0  0
  2  1  1  0  0  0  0
  3  2  2  0  0  0  0
  4  5  2  0  0  0  0
  4  3  1  0  0  0  0
  5  6  1  0  0  0  0
  6  7  2  0  0  0  0
  8  5  1  0  0  0  0
  9  8  1  0  0  0  0
 10  9  2  0  0  0  0
 11  9  1  6  0  0  0
 11 15  1  0  0  0  0
 11  4  1  0  0  0  0
 12 13  1  0  0  0  0
 12 11  1  0  0  0  0
 13 23  1  6  0  0  0
 13 14  1  0  0  0  0
 14 15  1  0  0  0  0
 14 19  1  1  0  0  0
 15 16  1  1  0  0  0
 16 18  1  0  0  0  0
 16 17  2  0  0  0  0
 18 27  1  0  0  0  0
 19 18  1  0  0  0  0
 20 19  2  0  0  0  0
 21  8  1  0  0  0  0
 22 12  1  0  0  0  0
 23 24  1  6  0  0  0
 23 25  1  0  0  0  0
 26 25  1  0  0  0  0
 27 28  1  0  0  0  0
 28 29  1  0  0  0  0
 29 30  2  0  0  0  0
 29 34  1  0  0  0  0
 31 30  1  0  0  0  0
 32 31  2  0  0  0  0
 33 32  1  0  0  0  0
 33 28  2  0  0  0  0
 34 35  1  0  0  0  0
M  END
>  <Pose>
1

>  <Score>
-7.301

$$$$
