MODEL 1
REMARK VINA RESULT:    -8.805      0.000      0.000
REMARK INTER + INTRA:         -12.367
REMARK INTER:                 -11.121
REMARK INTRA:                  -1.246
REMARK UNBOUND:                -1.246
REMARK  5 active torsions:
REMARK  status: ('A' for Active; 'I' for Inactive)
REMARK    1  A    between atoms: C_4  and  N_8 
REMARK    2  A    between atoms: C_14  and  C_17 
REMARK    3  A    between atoms: C_19  and  C_22 
REMARK    4  A    between atoms: C_24  and  O_30 
REMARK    5  A    between atoms: C_25  and  O_28 
ROOT
ATOM      1  N   UNK d   1      56.119  87.676  22.379  0.00  0.00    -0.233 N 
ATOM      2  C   UNK d   1      57.253  86.850  22.122  0.00  0.00     0.336 C 
ATOM      3  O   UNK d   1      57.623  86.516  20.970  0.00  0.00    -0.246 OA
ATOM      4  N   UNK d   1      58.011  86.379  23.234  0.00  0.00    -0.277 N 
ATOM      5  C   UNK d   1      57.612  86.747  24.564  0.00  0.00     0.244 C 
ATOM      6  O   UNK d   1      58.459  86.496  25.486  0.00  0.00    -0.272 OA
ATOM      7  C   UNK d   1      56.311  87.374  24.859  0.00  0.00     0.221 C 
ATOM      8  C   UNK d   1      55.711  88.056  23.687  0.00  0.00     0.251 C 
ATOM      9  O   UNK d   1      54.855  88.950  23.892  0.00  0.00    -0.271 OA
ATOM     10  H   UNK d   1      58.858  85.766  23.117  0.00  0.00     0.173 HD
ENDROOT
BRANCH   7  11
ATOM     11  C   UNK d   1      55.344  86.353  25.412  0.00  0.00     0.041 C 
ATOM     12  C   UNK d   1      55.539  85.048  25.366  0.00  0.00     0.026 C 
ATOM     13  C   UNK d   1      54.348  84.454  26.013  0.00  0.00     0.134 C 
ATOM     14  N   UNK d   1      53.953  85.504  26.934  0.00  0.00    -0.228 NA
ATOM     15  N   UNK d   1      54.112  86.623  26.079  0.00  0.00    -0.323 N 
ATOM     16  H   UNK d   1      53.013  85.410  27.329  0.00  0.00     0.147 HD
ATOM     17  H   UNK d   1      53.540  87.452  25.920  0.00  0.00     0.180 HD
BRANCH  13  18
ATOM     18  C   UNK d   1      53.275  84.200  25.012  0.00  0.00    -0.032 A 
ATOM     19  C   UNK d   1      53.415  84.334  23.660  0.00  0.00     0.048 A 
ATOM     20  C   UNK d   1      52.398  84.048  22.771  0.00  0.00     0.099 A 
ATOM     21  C   UNK d   1      51.172  83.605  23.232  0.00  0.00     0.101 A 
ATOM     22  C   UNK d   1      51.034  83.470  24.623  0.00  0.00     0.040 A 
ATOM     23  C   UNK d   1      52.057  83.760  25.494  0.00  0.00     0.012 A 
BRANCH  20  24
ATOM     24  O   UNK d   1      52.594  84.205  21.388  0.00  0.00    -0.358 OA
ATOM     25  H   UNK d   1      52.360  83.425  20.782  0.00  0.00     0.217 HD
ENDBRANCH  20  24
BRANCH  21  26
ATOM     26  O   UNK d   1      50.139  83.307  22.377  0.00  0.00    -0.353 OA
ATOM     27  C   UNK d   1      49.272  82.216  22.607  0.00  0.00     0.210 C 
ENDBRANCH  21  26
ENDBRANCH  13  18
ENDBRANCH   7  11
BRANCH   1  28
ATOM     28  C   UNK d   1      55.368  88.120  21.255  0.00  0.00     0.048 A 
ATOM     29  C   UNK d   1      54.243  87.439  20.826  0.00  0.00     0.054 A 
ATOM     30  C   UNK d   1      53.487  87.848  19.755  0.00  0.00     0.036 A 
ATOM     31 Cl   UNK d   1      52.080  86.952  19.248  0.00  0.00    -0.084 Cl
ATOM     32  C   UNK d   1      53.886  88.993  19.090  0.00  0.00     0.024 A 
ATOM     33  C   UNK d   1      55.003  89.701  19.486  0.00  0.00     0.004 A 
ATOM     34  C   UNK d   1      55.734  89.244  20.578  0.00  0.00     0.030 A 
ENDBRANCH   1  28
TORSDOF 5
ENDMDL
