/Users/jonathanwahrer/Desktop/Msc/3_Semester/Drug_Design_Praktikum/waehrer_HTS_screening/HTS_experiment/out/docking_results/vina_output/3npc/1745_docked.pdbqt
 OpenBabel03192220433D

 34 37  0  0  1  0  0  0  0  0999 V2000
   56.3980   87.8170   22.3950 N   0  0  0  0  0  0  0  0  0  0  0  0
   57.3790   86.7990   22.2830 C   0  0  0  0  0  0  0  0  0  0  0  0
   57.6470   86.2750   21.1930 O   0  0  0  0  0  0  0  0  0  0  0  0
   58.0850   86.3530   23.4500 N   0  0  0  0  0  0  0  0  0  0  0  0
   57.8190   86.9210   24.7310 C   0  0  0  0  0  0  0  0  0  0  0  0
   58.6500   86.8950   25.6550 O   0  0  0  0  0  0  0  0  0  0  0  0
   56.4790   87.5710   24.9560 C   0  0  1  0  0  3  0  0  0  0  0  0
   56.1830   88.3350   23.7260 C   0  0  0  0  0  0  0  0  0  0  0  0
   55.7070   89.5250   23.7860 O   0  0  0  0  0  0  0  0  0  0  0  0
   58.7920   85.6130   23.3470 H   0  0  0  0  0  0  0  0  0  0  0  0
   55.4650   86.5150   25.2520 C   0  0  2  0  0  3  0  0  0  0  0  0
   54.1510   86.6050   25.2580 C   0  0  0  0  0  2  0  0  0  0  0  0
   53.5860   85.2740   25.6130 C   0  0  2  0  0  3  0  0  0  0  0  0
   54.7290   84.6810   26.3520 N   0  0  0  0  0  0  0  0  0  0  0  0
   55.8140   85.1730   25.6170 N   0  0  0  0  0  0  0  0  0  0  0  0
   54.7240   85.0160   27.3360 H   0  0  0  0  0  0  0  0  0  0  0  0
   56.6800   84.7010   25.3780 H   0  0  0  0  0  0  0  0  0  0  0  0
   53.4470   84.4610   24.3750 C   0  0  0  0  0  0  0  0  0  0  0  0
   53.2900   83.0590   24.4280 C   0  0  0  0  0  3  0  0  0  0  0  0
   53.1250   82.2790   23.3250 C   0  0  0  0  0  0  0  0  0  0  0  0
   53.1060   82.8650   22.0740 C   0  0  0  0  0  0  0  0  0  0  0  0
   53.2570   84.2300   21.9840 C   0  0  0  0  0  3  0  0  0  0  0  0
   53.4230   85.0070   23.1090 C   0  0  0  0  0  3  0  0  0  0  0  0
   52.9770   80.8890   23.4350 O   0  0  0  0  0  0  0  0  0  0  0  0
   51.7240   80.3510   23.7970 C   0  0  0  0  0  1  0  0  0  0  0  0
   52.9370   82.0820   20.9360 O   0  0  0  0  0  0  0  0  0  0  0  0
   53.4250   81.1990   20.8720 H   0  0  0  0  0  0  0  0  0  0  0  0
   55.6660   88.3570   21.3030 C   0  0  0  0  0  0  0  0  0  0  0  0
   54.4680   87.7250   20.9480 C   0  0  0  0  0  3  0  0  0  0  0  0
   53.6940   88.1630   19.8960 C   0  0  0  0  0  0  0  0  0  0  0  0
   52.2200   87.3100   19.5240 Cl  0  0  0  0  0  0  0  0  0  0  0  0
   54.0630   89.2450   19.1430 C   0  0  0  0  0  3  0  0  0  0  0  0
   55.2570   89.8840   19.4910 C   0  0  0  0  0  3  0  0  0  0  0  0
   56.0270   89.4390   20.5450 C   0  0  0  0  0  3  0  0  0  0  0  0
  1  8  1  0  0  0  0
  2  1  1  0  0  0  0
  2  4  1  0  0  0  0
  3  2  2  0  0  0  0
  4  5  1  0  0  0  0
  5  7  1  0  0  0  0
  5  6  2  0  0  0  0
  7  8  1  6  0  0  0
  7 11  1  0  0  0  0
  8  9  2  0  0  0  0
 10  4  1  0  0  0  0
 11 12  1  1  0  0  0
 11 15  1  0  0  0  0
 12 13  1  0  0  0  0
 13 18  1  6  0  0  0
 13 14  1  0  0  0  0
 14 16  1  0  0  0  0
 15 14  1  0  0  0  0
 17 15  1  0  0  0  0
 18 19  1  0  0  0  0
 20 24  1  0  0  0  0
 20 19  2  0  0  0  0
 21 20  1  0  0  0  0
 22 21  2  0  0  0  0
 22 23  1  0  0  0  0
 23 18  2  0  0  0  0
 24 25  1  0  0  0  0
 26 21  1  0  0  0  0
 27 26  1  0  0  0  0
 28  1  1  0  0  0  0
 29 28  1  0  0  0  0
 30 29  2  0  0  0  0
 31 30  1  0  0  0  0
 32 33  2  0  0  0  0
 32 30  1  0  0  0  0
 33 34  1  0  0  0  0
 34 28  2  0  0  0  0
M  END
>  <Pose>
1

>  <Score>
-9.297

$$$$
