MODEL 1
REMARK VINA RESULT:    -9.297      0.000      0.000
REMARK INTER + INTRA:         -13.247
REMARK INTER:                 -11.742
REMARK INTRA:                  -1.505
REMARK UNBOUND:                -1.505
REMARK  5 active torsions:
REMARK  status: ('A' for Active; 'I' for Inactive)
REMARK    1  A    between atoms: C_4  and  N_8 
REMARK    2  A    between atoms: C_14  and  C_17 
REMARK    3  A    between atoms: C_19  and  C_22 
REMARK    4  A    between atoms: C_24  and  O_29 
REMARK    5  A    between atoms: C_25  and  O_28 
ROOT
ATOM      1  N   UNK d   1      56.398  87.817  22.395  0.00  0.00    -0.233 N 
ATOM      2  C   UNK d   1      57.379  86.799  22.283  0.00  0.00     0.336 C 
ATOM      3  O   UNK d   1      57.647  86.275  21.193  0.00  0.00    -0.246 OA
ATOM      4  N   UNK d   1      58.085  86.353  23.450  0.00  0.00    -0.277 N 
ATOM      5  C   UNK d   1      57.819  86.921  24.731  0.00  0.00     0.244 C 
ATOM      6  O   UNK d   1      58.650  86.895  25.655  0.00  0.00    -0.272 OA
ATOM      7  C   UNK d   1      56.479  87.571  24.956  0.00  0.00     0.221 C 
ATOM      8  C   UNK d   1      56.183  88.335  23.726  0.00  0.00     0.251 C 
ATOM      9  O   UNK d   1      55.707  89.525  23.786  0.00  0.00    -0.271 OA
ATOM     10  H   UNK d   1      58.792  85.613  23.347  0.00  0.00     0.173 HD
ENDROOT
BRANCH   7  11
ATOM     11  C   UNK d   1      55.465  86.515  25.252  0.00  0.00     0.041 C 
ATOM     12  C   UNK d   1      54.151  86.605  25.258  0.00  0.00     0.026 C 
ATOM     13  C   UNK d   1      53.586  85.274  25.613  0.00  0.00     0.134 C 
ATOM     14  N   UNK d   1      54.729  84.681  26.352  0.00  0.00    -0.228 NA
ATOM     15  N   UNK d   1      55.814  85.173  25.617  0.00  0.00    -0.323 N 
ATOM     16  H   UNK d   1      54.724  85.016  27.336  0.00  0.00     0.147 HD
ATOM     17  H   UNK d   1      56.680  84.701  25.378  0.00  0.00     0.180 HD
BRANCH  13  18
ATOM     18  C   UNK d   1      53.447  84.461  24.375  0.00  0.00    -0.032 A 
ATOM     19  C   UNK d   1      53.290  83.059  24.428  0.00  0.00     0.048 A 
ATOM     20  C   UNK d   1      53.125  82.279  23.325  0.00  0.00     0.101 A 
ATOM     21  C   UNK d   1      53.106  82.865  22.074  0.00  0.00     0.099 A 
ATOM     22  C   UNK d   1      53.257  84.230  21.984  0.00  0.00     0.040 A 
ATOM     23  C   UNK d   1      53.423  85.007  23.109  0.00  0.00     0.012 A 
BRANCH  20  24
ATOM     24  O   UNK d   1      52.977  80.889  23.435  0.00  0.00    -0.353 OA
ATOM     25  C   UNK d   1      51.724  80.351  23.797  0.00  0.00     0.210 C 
ENDBRANCH  20  24
BRANCH  21  26
ATOM     26  O   UNK d   1      52.937  82.082  20.936  0.00  0.00    -0.358 OA
ATOM     27  H   UNK d   1      53.425  81.199  20.872  0.00  0.00     0.217 HD
ENDBRANCH  21  26
ENDBRANCH  13  18
ENDBRANCH   7  11
BRANCH   1  28
ATOM     28  C   UNK d   1      55.666  88.357  21.303  0.00  0.00     0.048 A 
ATOM     29  C   UNK d   1      54.468  87.725  20.948  0.00  0.00     0.054 A 
ATOM     30  C   UNK d   1      53.694  88.163  19.896  0.00  0.00     0.036 A 
ATOM     31 Cl   UNK d   1      52.220  87.310  19.524  0.00  0.00    -0.084 Cl
ATOM     32  C   UNK d   1      54.063  89.245  19.143  0.00  0.00     0.024 A 
ATOM     33  C   UNK d   1      55.257  89.884  19.491  0.00  0.00     0.004 A 
ATOM     34  C   UNK d   1      56.027  89.439  20.545  0.00  0.00     0.030 A 
ENDBRANCH   1  28
TORSDOF 5
ENDMDL
