/Users/jonathanwahrer/Desktop/Msc/3_Semester/Drug_Design_Praktikum/waehrer_HTS_screening/HTS_experiment/out/docking_results/vina_output/3npc/1750_docked.pdbqt
 OpenBabel03192220443D

 27 30  0  0  0  0  0  0  0  0999 V2000
   54.8540   85.1600   25.8390 N   0  0  0  0  0  0  0  0  0  0  0  0
   54.6970   86.5810   25.7800 C   0  0  0  0  0  2  0  0  0  0  0  0
   55.0250   87.1480   24.4120 C   0  0  0  0  0  2  0  0  0  0  0  0
   56.2820   86.6060   23.9710 N   0  0  0  0  0  0  0  0  0  0  0  0
   57.0320   85.7790   24.8960 C   0  0  0  0  0  2  0  0  0  0  0  0
   56.1070   84.6780   25.3650 C   0  0  0  0  0  2  0  0  0  0  0  0
   56.8150   86.8470   22.6720 C   0  0  0  0  0  0  0  0  0  0  0  0
   57.9120   86.3620   22.3100 O   0  0  0  0  0  0  0  0  0  0  0  0
   56.0870   87.6790   21.7100 C   0  0  0  0  0  0  0  0  0  0  0  0
   56.5180   88.8510   21.1690 N   0  0  0  0  0  0  0  0  0  0  0  0
   55.5760   89.3170   20.3330 C   0  0  0  0  0  0  0  0  0  0  0  0
   54.5680   88.4470   20.3520 N   0  0  0  0  0  0  0  0  0  0  0  0
   55.4930   90.4470   19.5340 C   0  0  0  0  0  3  0  0  0  0  0  0
   54.8540   87.4370   21.1850 C   0  0  0  0  0  3  0  0  0  0  0  0
   53.4860   88.6910   19.5860 C   0  0  0  0  0  3  0  0  0  0  0  0
   53.3510   89.7870   18.7800 C   0  0  0  0  0  0  0  0  0  0  0  0
   54.3940   90.7070   18.7470 C   0  0  0  0  0  3  0  0  0  0  0  0
   51.9230   90.0750   17.7920 Cl  0  0  0  0  0  0  0  0  0  0  0  0
   53.5090   84.2560   25.3600 S   0  0  0  0  0  0  0  0  0  0  0  0
   53.2340   83.1800   26.3600 O   0  0  0  0  0  0  0  0  0  0  0  0
   52.3150   85.1670   25.3020 O   0  0  0  0  0  0  0  0  0  0  0  0
   53.6740   83.5290   23.8120 N   0  0  0  0  0  0  0  0  0  0  0  0
   53.3110   84.4330   22.7360 C   0  0  0  0  0  2  0  0  0  0  0  0
   52.9330   83.5830   21.5470 C   0  0  0  0  0  2  0  0  0  0  0  0
   53.6810   82.4110   21.4930 O   0  0  0  0  0  0  0  0  0  0  0  0
   53.3840   81.5360   22.5350 C   0  0  0  0  0  2  0  0  0  0  0  0
   52.8210   82.3630   23.6730 C   0  0  0  0  0  2  0  0  0  0  0  0
  2  1  1  0  0  0  0
  3  2  1  0  0  0  0
  4  3  1  0  0  0  0
  4  5  1  0  0  0  0
  5  6  1  0  0  0  0
  6  1  1  0  0  0  0
  7  4  1  0  0  0  0
  8  7  2  0  0  0  0
  9  7  1  0  0  0  0
 10  9  1  0  0  0  0
 11 12  1  0  0  0  0
 11 10  2  0  0  0  0
 12 14  1  0  0  0  0
 13 11  1  0  0  0  0
 14  9  2  0  0  0  0
 15 12  1  0  0  0  0
 16 15  2  0  0  0  0
 17 16  1  0  0  0  0
 17 13  2  0  0  0  0
 18 16  1  0  0  0  0
 19  1  1  0  0  0  0
 19 20  2  0  0  0  0
 21 19  2  0  0  0  0
 22 19  1  0  0  0  0
 23 22  1  0  0  0  0
 24 23  1  0  0  0  0
 25 24  1  0  0  0  0
 25 26  1  0  0  0  0
 26 27  1  0  0  0  0
 27 22  1  0  0  0  0
M  END
>  <Pose>
1

>  <Score>
-8.271

$$$$
