MODEL 1
REMARK VINA RESULT:    -9.525      0.000      0.000
REMARK INTER + INTRA:         -11.211
REMARK INTER:                 -10.639
REMARK INTRA:                  -0.573
REMARK UNBOUND:                -0.573
REMARK  2 active torsions:
REMARK  status: ('A' for Active; 'I' for Inactive)
REMARK    1  A    between atoms: C_5  and  C_8 
REMARK       I    between atoms: C_8  and  N_10 
REMARK    2  A    between atoms: N_13  and  C_16 
ROOT
ATOM      1  C   UNK d   1      49.347  98.660  28.794  0.00  0.00     0.187 C 
ATOM      2  O   UNK d   1      48.617  97.808  29.471  0.00  0.00    -0.171 OA
ATOM      3  N   UNK d   1      48.702  99.841  28.460  0.00  0.00    -0.356 N 
ATOM      4  C   UNK d   1      49.130 100.964  27.695  0.00  0.00     0.145 C 
ATOM      5  C   UNK d   1      49.521 102.030  28.739  0.00  0.00     0.144 C 
ATOM      6  N   UNK d   1      48.505 101.982  29.806  0.00  0.00    -0.361 N 
ATOM      7  C   UNK d   1      47.202 101.487  29.468  0.00  0.00     0.144 C 
ATOM      8  C   UNK d   1      47.326 100.040  29.027  0.00  0.00     0.145 C 
ENDROOT
BRANCH   1   9
ATOM      9  C   UNK d   1      50.679  98.195  28.532  0.00  0.00     0.018 A 
ATOM     10  C   UNK d   1      50.884  97.169  27.602  0.00  0.00     0.017 A 
ATOM     11  C   UNK d   1      52.121  96.637  27.321  0.00  0.00     0.025 A 
ATOM     12  C   UNK d   1      53.247  97.099  27.957  0.00  0.00     0.034 A 
ATOM     13 Cl   UNK d   1      54.840  96.419  27.597  0.00  0.00    -0.084 Cl
ATOM     14  C   UNK d   1      53.095  98.104  28.876  0.00  0.00     0.025 A 
ATOM     15  C   UNK d   1      51.824  98.639  29.154  0.00  0.00     0.017 A 
ENDBRANCH   1   9
BRANCH   6  16
ATOM     16  C   UNK d   1      48.845 102.426  31.117  0.00  0.00     0.146 A 
ATOM     17  N   UNK d   1      47.896 102.611  32.061  0.00  0.00    -0.147 NA
ATOM     18  N   UNK d   1      48.174 103.023  33.285  0.00  0.00    -0.204 N 
ATOM     19  C   UNK d   1      49.424 103.291  33.687  0.00  0.00     0.174 A 
ATOM     20  C   UNK d   1      47.390 103.272  34.372  0.00  0.00     0.261 A 
ATOM     21  N   UNK d   1      49.425 103.694  34.981  0.00  0.00    -0.129 NA
ATOM     22  C   UNK d   1      50.454 103.126  32.776  0.00  0.00     0.058 A 
ATOM     23  N   UNK d   1      48.170 103.677  35.390  0.00  0.00    -0.141 NA
ATOM     24  C   UNK d   1      50.138 102.696  31.509  0.00  0.00     0.056 A 
ENDBRANCH   6  16
TORSDOF 2
ENDMDL
