/Users/jonathanwahrer/Desktop/Msc/3_Semester/Drug_Design_Praktikum/waehrer_HTS_screening/HTS_experiment/out/docking_results/vina_output/3npc/1781_docked.pdbqt
 OpenBabel03192220443D

 24 27  0  0  0  0  0  0  0  0999 V2000
   49.3470   98.6600   28.7940 C   0  0  0  0  0  0  0  0  0  0  0  0
   48.6170   97.8080   29.4710 O   0  0  0  0  0  0  0  0  0  0  0  0
   48.7020   99.8410   28.4600 N   0  0  0  0  0  0  0  0  0  0  0  0
   49.1300  100.9640   27.6950 C   0  0  0  0  0  2  0  0  0  0  0  0
   49.5210  102.0300   28.7390 C   0  0  0  0  0  2  0  0  0  0  0  0
   48.5050  101.9820   29.8060 N   0  0  0  0  0  0  0  0  0  0  0  0
   47.2020  101.4870   29.4680 C   0  0  0  0  0  2  0  0  0  0  0  0
   47.3260  100.0400   29.0270 C   0  0  0  0  0  2  0  0  0  0  0  0
   50.6790   98.1950   28.5320 C   0  0  0  0  0  0  0  0  0  0  0  0
   50.8840   97.1690   27.6020 C   0  0  0  0  0  3  0  0  0  0  0  0
   52.1210   96.6370   27.3210 C   0  0  0  0  0  3  0  0  0  0  0  0
   53.2470   97.0990   27.9570 C   0  0  0  0  0  0  0  0  0  0  0  0
   54.8400   96.4190   27.5970 Cl  0  0  0  0  0  0  0  0  0  0  0  0
   53.0950   98.1040   28.8760 C   0  0  0  0  0  3  0  0  0  0  0  0
   51.8240   98.6390   29.1540 C   0  0  0  0  0  3  0  0  0  0  0  0
   48.8450  102.4260   31.1170 C   0  0  0  0  0  0  0  0  0  0  0  0
   47.8960  102.6110   32.0610 N   0  0  0  0  0  0  0  0  0  0  0  0
   48.1740  103.0230   33.2850 N   0  0  0  0  0  0  0  0  0  0  0  0
   49.4240  103.2910   33.6870 C   0  0  0  0  0  0  0  0  0  0  0  0
   47.3900  103.2720   34.3720 C   0  0  0  0  0  3  0  0  0  0  0  0
   49.4250  103.6940   34.9810 N   0  0  0  0  0  0  0  0  0  0  0  0
   50.4540  103.1260   32.7760 C   0  0  0  0  0  3  0  0  0  0  0  0
   48.1700  103.6770   35.3900 N   0  0  0  0  0  0  0  0  0  0  0  0
   50.1380  102.6960   31.5090 C   0  0  0  0  0  3  0  0  0  0  0  0
  1  2  2  0  0  0  0
  3  1  1  0  0  0  0
  3  8  1  0  0  0  0
  4  3  1  0  0  0  0
  4  5  1  0  0  0  0
  5  6  1  0  0  0  0
  6 16  1  0  0  0  0
  7  6  1  0  0  0  0
  8  7  1  0  0  0  0
  9  1  1  0  0  0  0
  9 15  1  0  0  0  0
 10  9  2  0  0  0  0
 11 10  1  0  0  0  0
 11 12  2  0  0  0  0
 12 14  1  0  0  0  0
 13 12  1  0  0  0  0
 14 15  2  0  0  0  0
 16 24  1  0  0  0  0
 16 17  2  0  0  0  0
 17 18  1  0  0  0  0
 18 19  1  0  0  0  0
 18 20  1  0  0  0  0
 19 21  2  0  0  0  0
 20 23  2  0  0  0  0
 21 23  1  0  0  0  0
 22 19  1  0  0  0  0
 24 22  2  0  0  0  0
M  END
>  <Pose>
1

>  <Score>
-9.525

$$$$
