MODEL 1
REMARK VINA RESULT:    -9.571      0.000      0.000
REMARK INTER + INTRA:         -12.222
REMARK INTER:                 -11.809
REMARK INTRA:                  -0.414
REMARK UNBOUND:                -0.414
REMARK  4 active torsions:
REMARK  status: ('A' for Active; 'I' for Inactive)
REMARK    1  A    between atoms: C_5  and  N_8 
REMARK    2  A    between atoms: C_10  and  C_24 
REMARK    3  A    between atoms: N_11  and  C_14 
REMARK    4  A    between atoms: C_14  and  C_15 
REMARK       I    between atoms: C_15  and  N_17 
ROOT
ATOM      1  N   UNK d   1      55.243  87.980  21.512  0.00  0.00    -0.181 N 
ATOM      2  N   UNK d   1      55.222  88.969  20.692  0.00  0.00    -0.144 NA
ATOM      3  C   UNK d   1      54.176  88.859  19.789  0.00  0.00     0.165 A 
ATOM      4  N   UNK d   1      53.548  87.740  20.095  0.00  0.00    -0.272 N 
ATOM      5  C   UNK d   1      54.215  87.199  21.170  0.00  0.00     0.352 A 
ATOM      6  O   UNK d   1      53.876  86.128  21.718  0.00  0.00    -0.244 OA
ENDROOT
BRANCH   4   7
ATOM      7  C   UNK d   1      52.462  87.095  19.426  0.00  0.00     0.222 C 
BRANCH   7   8
ATOM      8  C   UNK d   1      52.748  85.742  18.913  0.00  0.00     0.172 C 
ATOM      9  O   UNK d   1      53.341  85.749  17.755  0.00  0.00    -0.175 OA
ATOM     10  N   UNK d   1      52.499  84.496  19.444  0.00  0.00    -0.351 N 
ATOM     11  C   UNK d   1      51.819  84.234  20.684  0.00  0.00     0.145 C 
ATOM     12  C   UNK d   1      52.961  83.301  18.716  0.00  0.00     0.227 C 
ATOM     13  C   UNK d   1      51.660  82.727  20.955  0.00  0.00     0.142 C 
ATOM     14  N   UNK d   1      52.974  82.085  20.862  0.00  0.00    -0.358 N 
ATOM     15  C   UNK d   1      53.723  82.487  19.694  0.00  0.00     0.235 C 
ATOM     16  H   UNK d   1      53.330  81.417  21.551  0.00  0.00     0.162 HD
ATOM     17  O   UNK d   1      54.922  82.152  19.566  0.00  0.00    -0.272 OA
ENDBRANCH   7   8
ENDBRANCH   4   7
BRANCH   3  18
ATOM     18  C   UNK d   1      53.993  89.873  18.752  0.00  0.00     0.012 A 
ATOM     19  C   UNK d   1      54.228  89.503  17.422  0.00  0.00     0.015 A 
ATOM     20  C   UNK d   1      54.152  90.367  16.364  0.00  0.00     0.001 A 
ATOM     21  C   UNK d   1      53.826  91.701  16.566  0.00  0.00     0.000 A 
ATOM     22  C   UNK d   1      53.596  92.074  17.860  0.00  0.00     0.001 A 
ATOM     23  C   UNK d   1      53.676  91.187  18.937  0.00  0.00     0.015 A 
ENDBRANCH   3  18
BRANCH   1  24
ATOM     24  C   UNK d   1      56.188  87.789  22.560  0.00  0.00     0.063 A 
ATOM     25  C   UNK d   1      56.164  88.608  23.672  0.00  0.00     0.033 A 
ATOM     26  C   UNK d   1      57.075  88.439  24.701  0.00  0.00     0.026 A 
ATOM     27  C   UNK d   1      58.045  87.455  24.673  0.00  0.00     0.034 A 
ATOM     28 Cl   UNK d   1      59.205  87.232  25.969  0.00  0.00    -0.084 Cl
ATOM     29  C   UNK d   1      58.067  86.634  23.557  0.00  0.00     0.026 A 
ATOM     30  C   UNK d   1      57.151  86.804  22.521  0.00  0.00     0.033 A 
ENDBRANCH   1  24
TORSDOF 4
ENDMDL
