/Users/jonathanwahrer/Desktop/Msc/3_Semester/Drug_Design_Praktikum/waehrer_HTS_screening/HTS_experiment/out/docking_results/vina_output/3npc/1789_docked.pdbqt
 OpenBabel03192220453D

 29 32  0  0  0  0  0  0  0  0999 V2000
   49.0000  101.7580   29.2900 N   0  0  0  0  0  0  0  0  0  0  0  0
   48.2840  102.3110   28.3410 N   0  0  0  0  0  0  0  0  0  0  0  0
   48.6720  101.7540   27.1970 N   0  0  0  0  0  0  0  0  0  0  0  0
   49.6390  100.8410   27.4120 C   0  0  0  0  0  0  0  0  0  0  0  0
   49.8310  100.8580   28.7350 C   0  0  0  0  0  0  0  0  0  0  0  0
   50.8280   99.9190   28.9600 C   0  0  0  0  0  0  0  0  0  0  0  0
   51.2860   99.6460   30.0930 O   0  0  0  0  0  0  0  0  0  0  0  0
   51.2380   99.3410   27.8210 N   0  0  0  0  0  0  0  0  0  0  0  0
   50.4970   99.9150   26.8550 C   0  0  0  0  0  0  0  0  0  0  0  0
   50.5750   99.6470   25.6190 O   0  0  0  0  0  0  0  0  0  0  0  0
   47.5370  103.0590   28.4540 H   0  0  0  0  0  0  0  0  0  0  0  0
   48.2590  102.0130   26.2690 H   0  0  0  0  0  0  0  0  0  0  0  0
   52.2310   98.3380   27.6270 C   0  0  0  0  0  0  0  0  0  0  0  0
   53.5840   98.6140   27.6160 C   0  0  0  0  0  3  0  0  0  0  0  0
   54.5400   97.6370   27.4280 C   0  0  0  0  0  0  0  0  0  0  0  0
   54.1790   96.3190   27.2370 C   0  0  0  0  0  0  0  0  0  0  0  0
   52.8310   96.0290   27.2460 C   0  0  0  0  0  3  0  0  0  0  0  0
   51.8800   97.0160   27.4360 C   0  0  0  0  0  3  0  0  0  0  0  0
   55.9030   97.9150   27.4170 O   0  0  0  0  0  0  0  0  0  0  0  0
   56.4910   98.2330   26.1690 C   0  0  0  0  0  1  0  0  0  0  0  0
   55.1510   95.3400   27.0480 O   0  0  0  0  0  0  0  0  0  0  0  0
   54.9480   94.1840   26.2950 C   0  0  0  0  0  1  0  0  0  0  0  0
   48.9080  102.0610   30.6660 C   0  0  0  0  0  0  0  0  0  0  0  0
   47.6680  102.2990   31.2490 C   0  0  0  0  0  3  0  0  0  0  0  0
   47.6540  102.5890   32.5970 C   0  0  0  0  0  3  0  0  0  0  0  0
   48.7700  102.6560   33.3820 C   0  0  0  0  0  0  0  0  0  0  0  0
   48.7020  103.0310   35.1060 Cl  0  0  0  0  0  0  0  0  0  0  0  0
   49.9900  102.4190   32.7980 C   0  0  0  0  0  3  0  0  0  0  0  0
   50.0570  102.1270   31.4650 C   0  0  0  0  0  3  0  0  0  0  0  0
  1 23  1  0  0  0  0
  2 11  1  0  0  0  0
  2  1  1  0  0  0  0
  3  4  1  0  0  0  0
  3  2  1  0  0  0  0
  4  5  2  0  0  0  0
  5  6  1  0  0  0  0
  5  1  1  0  0  0  0
  6  7  2  0  0  0  0
  8  6  1  0  0  0  0
  9  4  1  0  0  0  0
  9  8  1  0  0  0  0
 10  9  2  0  0  0  0
 12  3  1  0  0  0  0
 13  8  1  0  0  0  0
 14 13  1  0  0  0  0
 15 14  2  0  0  0  0
 16 17  2  0  0  0  0
 16 15  1  0  0  0  0
 17 18  1  0  0  0  0
 18 13  2  0  0  0  0
 19 15  1  0  0  0  0
 20 19  1  0  0  0  0
 21 16  1  0  0  0  0
 22 21  1  0  0  0  0
 23 24  2  0  0  0  0
 23 29  1  0  0  0  0
 24 25  1  0  0  0  0
 25 26  2  0  0  0  0
 26 27  1  0  0  0  0
 28 26  1  0  0  0  0
 29 28  2  0  0  0  0
M  END
>  <Pose>
1

>  <Score>
-8.232

$$$$
