MODEL 1
REMARK VINA RESULT:    -8.232      0.000      0.000
REMARK INTER + INTRA:         -10.532
REMARK INTER:                 -10.157
REMARK INTRA:                  -0.376
REMARK UNBOUND:                -0.376
REMARK  4 active torsions:
REMARK  status: ('A' for Active; 'I' for Inactive)
REMARK    1  A    between atoms: C_5  and  N_8 
REMARK    2  A    between atoms: N_15  and  C_18 
REMARK    3  A    between atoms: C_20  and  O_26 
REMARK    4  A    between atoms: C_21  and  O_24 
ROOT
ATOM      1  N   UNK d   1      49.000 101.758  29.290  0.00  0.00    -0.234 N 
ATOM      2  N   UNK d   1      48.284 102.311  28.341  0.00  0.00    -0.234 N 
ATOM      3  N   UNK d   1      48.672 101.754  27.197  0.00  0.00    -0.278 N 
ATOM      4  C   UNK d   1      49.639 100.841  27.412  0.00  0.00     0.152 A 
ATOM      5  C   UNK d   1      49.831 100.858  28.735  0.00  0.00     0.160 A 
ATOM      6  C   UNK d   1      50.828  99.919  28.960  0.00  0.00     0.286 A 
ATOM      7  O   UNK d   1      51.286  99.646  30.093  0.00  0.00    -0.265 OA
ATOM      8  N   UNK d   1      51.238  99.341  27.821  0.00  0.00    -0.241 N 
ATOM      9  C   UNK d   1      50.497  99.915  26.855  0.00  0.00     0.286 A 
ATOM     10  O   UNK d   1      50.575  99.647  25.619  0.00  0.00    -0.265 OA
ATOM     11  H   UNK d   1      47.537 103.059  28.454  0.00  0.00     0.209 HD
ATOM     12  H   UNK d   1      48.259 102.013  26.269  0.00  0.00     0.189 HD
ENDROOT
BRANCH   8  13
ATOM     13  C   UNK d   1      52.231  98.338  27.627  0.00  0.00     0.049 A 
ATOM     14  C   UNK d   1      53.584  98.614  27.616  0.00  0.00     0.069 A 
ATOM     15  C   UNK d   1      54.540  97.637  27.428  0.00  0.00     0.103 A 
ATOM     16  C   UNK d   1      54.179  96.319  27.237  0.00  0.00     0.101 A 
ATOM     17  C   UNK d   1      52.831  96.029  27.246  0.00  0.00     0.042 A 
ATOM     18  C   UNK d   1      51.880  97.016  27.436  0.00  0.00     0.033 A 
BRANCH  15  19
ATOM     19  O   UNK d   1      55.903  97.915  27.417  0.00  0.00    -0.353 OA
ATOM     20  C   UNK d   1      56.491  98.233  26.169  0.00  0.00     0.210 C 
ENDBRANCH  15  19
BRANCH  16  21
ATOM     21  O   UNK d   1      55.151  95.340  27.048  0.00  0.00    -0.353 OA
ATOM     22  C   UNK d   1      54.948  94.184  26.295  0.00  0.00     0.210 C 
ENDBRANCH  16  21
ENDBRANCH   8  13
BRANCH   1  23
ATOM     23  C   UNK d   1      48.908 102.061  30.666  0.00  0.00     0.058 A 
ATOM     24  C   UNK d   1      47.668 102.299  31.249  0.00  0.00     0.033 A 
ATOM     25  C   UNK d   1      47.654 102.589  32.597  0.00  0.00     0.026 A 
ATOM     26  C   UNK d   1      48.770 102.656  33.382  0.00  0.00     0.034 A 
ATOM     27 Cl   UNK d   1      48.702 103.031  35.106  0.00  0.00    -0.084 Cl
ATOM     28  C   UNK d   1      49.990 102.419  32.798  0.00  0.00     0.026 A 
ATOM     29  C   UNK d   1      50.057 102.127  31.465  0.00  0.00     0.033 A 
ENDBRANCH   1  23
TORSDOF 4
ENDMDL
