/Users/jonathanwahrer/Desktop/Msc/3_Semester/Drug_Design_Praktikum/waehrer_HTS_screening/HTS_experiment/out/docking_results/vina_output/3npc/1790_docked.pdbqt
 OpenBabel03192220453D

 29 32  0  0  0  0  0  0  0  0999 V2000
   54.6890   89.5350   20.3180 N   0  0  0  0  0  0  0  0  0  0  0  0
   55.8460   90.0080   20.7350 N   0  0  0  0  0  0  0  0  0  0  0  0
   56.4550   88.9990   21.3450 N   0  0  0  0  0  0  0  0  0  0  0  0
   55.7030   87.8850   21.3240 C   0  0  0  0  0  0  0  0  0  0  0  0
   54.5840   88.2380   20.6700 C   0  0  0  0  0  0  0  0  0  0  0  0
   53.8120   87.0920   20.6510 C   0  0  0  0  0  0  0  0  0  0  0  0
   52.6690   87.0530   20.1060 O   0  0  0  0  0  0  0  0  0  0  0  0
   54.4220   86.0650   21.2660 N   0  0  0  0  0  0  0  0  0  0  0  0
   55.6000   86.5580   21.6860 C   0  0  0  0  0  0  0  0  0  0  0  0
   56.4680   85.8850   22.3180 O   0  0  0  0  0  0  0  0  0  0  0  0
   56.1930   90.9880   20.6000 H   0  0  0  0  0  0  0  0  0  0  0  0
   57.3980   89.0580   21.7860 H   0  0  0  0  0  0  0  0  0  0  0  0
   53.8870   84.7520   21.4120 C   0  0  0  0  0  0  0  0  0  0  0  0
   53.3080   84.3190   22.5880 C   0  0  0  0  0  3  0  0  0  0  0  0
   52.7820   83.0540   22.7520 C   0  0  0  0  0  0  0  0  0  0  0  0
   52.8400   82.1780   21.6880 C   0  0  0  0  0  3  0  0  0  0  0  0
   53.4080   82.5570   20.4900 C   0  0  0  0  0  0  0  0  0  0  0  0
   53.9250   83.8430   20.3720 C   0  0  0  0  0  3  0  0  0  0  0  0
   52.2020   82.6610   23.9740 O   0  0  0  0  0  0  0  0  0  0  0  0
   51.4980   83.6160   24.7340 C   0  0  0  0  0  1  0  0  0  0  0  0
   53.4480   81.6470   19.4410 O   0  0  0  0  0  0  0  0  0  0  0  0
   53.7330   82.0410   18.1270 C   0  0  0  0  0  1  0  0  0  0  0  0
   53.7010   90.2660   19.6110 C   0  0  0  0  0  0  0  0  0  0  0  0
   53.3350   91.5550   19.9660 C   0  0  0  0  0  3  0  0  0  0  0  0
   52.3760   92.2320   19.2590 C   0  0  0  0  0  3  0  0  0  0  0  0
   51.7360   91.6690   18.1750 C   0  0  0  0  0  0  0  0  0  0  0  0
   50.5050   92.5900   17.3000 Cl  0  0  0  0  0  0  0  0  0  0  0  0
   52.0820   90.3950   17.8070 C   0  0  0  0  0  3  0  0  0  0  0  0
   53.0480   89.7160   18.5200 C   0  0  0  0  0  3  0  0  0  0  0  0
  1  5  1  0  0  0  0
  1  2  1  0  0  0  0
  2  3  1  0  0  0  0
  3 12  1  0  0  0  0
  4  3  1  0  0  0  0
  4  9  1  0  0  0  0
  5  4  2  0  0  0  0
  6  5  1  0  0  0  0
  6  8  1  0  0  0  0
  7  6  2  0  0  0  0
  8 13  1  0  0  0  0
  8  9  1  0  0  0  0
  9 10  2  0  0  0  0
 11  2  1  0  0  0  0
 13 14  1  0  0  0  0
 14 15  2  0  0  0  0
 15 19  1  0  0  0  0
 16 15  1  0  0  0  0
 17 16  2  0  0  0  0
 18 17  1  0  0  0  0
 18 13  2  0  0  0  0
 19 20  1  0  0  0  0
 21 17  1  0  0  0  0
 22 21  1  0  0  0  0
 23 24  1  0  0  0  0
 23  1  1  0  0  0  0
 25 24  2  0  0  0  0
 26 25  1  0  0  0  0
 27 26  1  0  0  0  0
 28 26  2  0  0  0  0
 28 29  1  0  0  0  0
 29 23  2  0  0  0  0
M  END
>  <Pose>
1

>  <Score>
-7.807

$$$$
