MODEL 1
REMARK VINA RESULT:    -7.807      0.000      0.000
REMARK INTER + INTRA:         -10.113
REMARK INTER:                  -9.632
REMARK INTRA:                  -0.481
REMARK UNBOUND:                -0.481
REMARK  4 active torsions:
REMARK  status: ('A' for Active; 'I' for Inactive)
REMARK    1  A    between atoms: C_5  and  N_8 
REMARK    2  A    between atoms: N_15  and  C_18 
REMARK    3  A    between atoms: C_20  and  O_26 
REMARK    4  A    between atoms: C_22  and  O_24 
ROOT
ATOM      1  N   UNK d   1      54.689  89.535  20.318  0.00  0.00    -0.234 N 
ATOM      2  N   UNK d   1      55.846  90.008  20.735  0.00  0.00    -0.234 N 
ATOM      3  N   UNK d   1      56.455  88.999  21.345  0.00  0.00    -0.278 N 
ATOM      4  C   UNK d   1      55.703  87.885  21.324  0.00  0.00     0.152 A 
ATOM      5  C   UNK d   1      54.584  88.238  20.670  0.00  0.00     0.160 A 
ATOM      6  C   UNK d   1      53.812  87.092  20.651  0.00  0.00     0.286 A 
ATOM      7  O   UNK d   1      52.669  87.053  20.106  0.00  0.00    -0.265 OA
ATOM      8  N   UNK d   1      54.422  86.065  21.266  0.00  0.00    -0.241 N 
ATOM      9  C   UNK d   1      55.600  86.558  21.686  0.00  0.00     0.286 A 
ATOM     10  O   UNK d   1      56.468  85.885  22.318  0.00  0.00    -0.265 OA
ATOM     11  H   UNK d   1      56.193  90.988  20.600  0.00  0.00     0.209 HD
ATOM     12  H   UNK d   1      57.398  89.058  21.786  0.00  0.00     0.189 HD
ENDROOT
BRANCH   8  13
ATOM     13  C   UNK d   1      53.887  84.752  21.412  0.00  0.00     0.051 A 
ATOM     14  C   UNK d   1      53.308  84.319  22.588  0.00  0.00     0.067 A 
ATOM     15  C   UNK d   1      52.782  83.054  22.752  0.00  0.00     0.073 A 
ATOM     16  C   UNK d   1      52.840  82.178  21.688  0.00  0.00     0.073 A 
ATOM     17  C   UNK d   1      53.408  82.557  20.490  0.00  0.00     0.073 A 
ATOM     18  C   UNK d   1      53.925  83.843  20.372  0.00  0.00     0.067 A 
BRANCH  15  19
ATOM     19  O   UNK d   1      52.202  82.661  23.974  0.00  0.00    -0.356 OA
ATOM     20  C   UNK d   1      51.498  83.616  24.734  0.00  0.00     0.210 C 
ENDBRANCH  15  19
BRANCH  17  21
ATOM     21  O   UNK d   1      53.448  81.647  19.441  0.00  0.00    -0.356 OA
ATOM     22  C   UNK d   1      53.733  82.041  18.127  0.00  0.00     0.210 C 
ENDBRANCH  17  21
ENDBRANCH   8  13
BRANCH   1  23
ATOM     23  C   UNK d   1      53.701  90.266  19.611  0.00  0.00     0.058 A 
ATOM     24  C   UNK d   1      53.335  91.555  19.966  0.00  0.00     0.033 A 
ATOM     25  C   UNK d   1      52.376  92.232  19.259  0.00  0.00     0.026 A 
ATOM     26  C   UNK d   1      51.736  91.669  18.175  0.00  0.00     0.034 A 
ATOM     27 Cl   UNK d   1      50.505  92.590  17.300  0.00  0.00    -0.084 Cl
ATOM     28  C   UNK d   1      52.082  90.395  17.807  0.00  0.00     0.026 A 
ATOM     29  C   UNK d   1      53.048  89.716  18.520  0.00  0.00     0.033 A 
ENDBRANCH   1  23
TORSDOF 4
ENDMDL
