/Users/jonathanwahrer/Desktop/Msc/3_Semester/Drug_Design_Praktikum/waehrer_HTS_screening/HTS_experiment/out/docking_results/vina_output/3npc/1801_docked.pdbqt
 OpenBabel03192220453D

 26 29  0  0  0  0  0  0  0  0999 V2000
   57.2730   87.7330   23.8200 Cl  0  0  0  0  0  0  0  0  0  0  0  0
   56.1690   88.1930   22.5240 C   0  0  0  0  0  0  0  0  0  0  0  0
   55.3910   87.2360   21.8970 C   0  0  0  0  0  3  0  0  0  0  0  0
   54.5310   87.5790   20.8900 C   0  0  0  0  0  0  0  0  0  0  0  0
   54.4800   88.9060   20.5390 C   0  0  0  0  0  0  0  0  0  0  0  0
   55.2390   89.8740   21.1440 C   0  0  0  0  0  3  0  0  0  0  0  0
   56.1060   89.5130   22.1620 C   0  0  0  0  0  3  0  0  0  0  0  0
   53.5620   89.3140   19.4560 C   0  0  0  0  0  0  0  0  0  0  0  0
   53.2950   90.4490   18.9140 N   0  0  0  0  0  0  0  0  0  0  0  0
   52.3120   90.3360   17.8750 C   0  0  0  0  0  3  0  0  0  0  0  0
   51.9700   88.8830   17.8300 C   0  0  0  0  0  3  0  0  0  0  0  0
   52.7940   88.2860   18.8540 N   0  0  0  0  0  0  0  0  0  0  0  0
   52.8870   86.9130   19.2610 C   0  0  0  0  0  0  0  0  0  0  0  0
   52.2710   85.7970   18.8430 N   0  0  0  0  0  0  0  0  0  0  0  0
   52.6970   84.7570   19.5370 N   0  0  0  0  0  0  0  0  0  0  0  0
   53.6000   85.2460   20.4040 C   0  0  0  0  0  0  0  0  0  0  0  0
   54.2240   84.5430   21.2360 O   0  0  0  0  0  0  0  0  0  0  0  0
   53.7370   86.5900   20.2510 N   0  0  0  0  0  0  0  0  0  0  0  0
   52.2920   83.3610   19.4090 C   0  0  0  0  0  2  0  0  0  0  0  0
   53.0150   82.7540   18.2670 C   0  0  0  0  0  0  0  0  0  0  0  0
   53.6950   81.7080   18.4640 O   0  0  0  0  0  0  0  0  0  0  0  0
   52.9760   83.2990   16.9570 N   0  0  0  0  0  0  0  0  0  0  0  0
   52.4110   84.1610   16.8120 H   0  0  0  0  0  0  0  0  0  0  0  0
   53.6990   82.6720   15.8730 C   0  0  0  0  0  3  0  0  0  0  0  0
   52.7270   82.1350   14.8190 C   0  0  0  0  0  1  0  0  0  0  0  0
   54.4920   83.7730   15.1830 C   0  0  0  0  0  1  0  0  0  0  0  0
  2  1  1  0  0  0  0
  3  2  2  0  0  0  0
  4  3  1  0  0  0  0
  5  4  2  0  0  0  0
  5  6  1  0  0  0  0
  6  7  2  0  0  0  0
  7  2  1  0  0  0  0
  8  5  1  0  0  0  0
  9  8  2  0  0  0  0
 10  9  1  0  0  0  0
 11 10  2  0  0  0  0
 11 12  1  0  0  0  0
 12 13  1  0  0  0  0
 12  8  1  0  0  0  0
 13 18  1  0  0  0  0
 14 13  2  0  0  0  0
 14 15  1  0  0  0  0
 15 16  1  0  0  0  0
 16 17  2  0  0  0  0
 18 16  1  0  0  0  0
 18  4  1  0  0  0  0
 19 15  1  0  0  0  0
 20 21  2  0  0  0  0
 20 19  1  0  0  0  0
 22 20  1  0  0  0  0
 23 22  1  0  0  0  0
 24 22  1  0  0  0  0
 25 24  1  0  0  0  0
 26 24  1  0  0  0  0
M  END
>  <Pose>
1

>  <Score>
-8.745

$$$$
