MODEL 1
REMARK VINA RESULT:    -8.745      0.000      0.000
REMARK INTER + INTRA:         -10.949
REMARK INTER:                 -10.278
REMARK INTRA:                  -0.671
REMARK UNBOUND:                -0.671
REMARK  3 active torsions:
REMARK  status: ('A' for Active; 'I' for Inactive)
REMARK    1  A    between atoms: N_15  and  C_19 
REMARK    2  A    between atoms: C_19  and  C_20 
REMARK       I    between atoms: C_20  and  N_22 
REMARK    3  A    between atoms: N_22  and  C_23 
ROOT
ATOM      1 Cl   UNK d   1      57.273  87.733  23.820  0.00  0.00    -0.084 Cl
ATOM      2  C   UNK d   1      56.169  88.193  22.524  0.00  0.00     0.036 A 
ATOM      3  C   UNK d   1      55.391  87.236  21.897  0.00  0.00     0.055 A 
ATOM      4  C   UNK d   1      54.531  87.579  20.890  0.00  0.00     0.077 A 
ATOM      5  C   UNK d   1      54.480  88.906  20.539  0.00  0.00     0.038 A 
ATOM      6  C   UNK d   1      55.239  89.874  21.144  0.00  0.00     0.019 A 
ATOM      7  C   UNK d   1      56.106  89.513  22.162  0.00  0.00     0.025 A 
ATOM      8  C   UNK d   1      53.562  89.314  19.456  0.00  0.00     0.153 A 
ATOM      9  N   UNK d   1      53.295  90.449  18.914  0.00  0.00    -0.270 NA
ATOM     10  C   UNK d   1      52.312  90.336  17.875  0.00  0.00     0.172 A 
ATOM     11  C   UNK d   1      51.970  88.883  17.830  0.00  0.00     0.171 A 
ATOM     12  N   UNK d   1      52.794  88.286  18.854  0.00  0.00    -0.160 N 
ATOM     13  C   UNK d   1      52.887  86.913  19.261  0.00  0.00     0.736 A 
ATOM     14  N   UNK d   1      52.271  85.797  18.843  0.00  0.00     0.025 NA
ATOM     15  N   UNK d   1      52.697  84.757  19.537  0.00  0.00    -0.194 N 
ATOM     16  C   UNK d   1      53.600  85.246  20.404  0.00  0.00     0.365 A 
ATOM     17  O   UNK d   1      54.224  84.543  21.236  0.00  0.00    -0.244 OA
ATOM     18  N   UNK d   1      53.737  86.590  20.251  0.00  0.00    -0.090 N 
ENDROOT
BRANCH  15  19
ATOM     19  C   UNK d   1      52.292  83.361  19.409  0.00  0.00     0.259 C 
BRANCH  19  20
ATOM     20  C   UNK d   1      53.015  82.754  18.267  0.00  0.00     0.237 C 
ATOM     21  O   UNK d   1      53.695  81.708  18.464  0.00  0.00    -0.272 OA
ATOM     22  N   UNK d   1      52.976  83.299  16.957  0.00  0.00    -0.356 N 
ATOM     23  H   UNK d   1      52.411  84.161  16.812  0.00  0.00     0.162 HD
BRANCH  22  24
ATOM     24  C   UNK d   1      53.699  82.672  15.873  0.00  0.00     0.076 C 
ATOM     25  C   UNK d   1      52.727  82.135  14.819  0.00  0.00     0.032 C 
ATOM     26  C   UNK d   1      54.492  83.773  15.183  0.00  0.00     0.032 C 
ENDBRANCH  22  24
ENDBRANCH  19  20
ENDBRANCH  15  19
TORSDOF 3
ENDMDL
