/Users/jonathanwahrer/Desktop/Msc/3_Semester/Drug_Design_Praktikum/waehrer_HTS_screening/HTS_experiment/out/docking_results/vina_output/3npc/1802_docked.pdbqt
 OpenBabel03192220453D

 27 30  0  0  0  0  0  0  0  0999 V2000
   52.9630   92.0820   18.9040 Cl  0  0  0  0  0  0  0  0  0  0  0  0
   52.9300   90.3190   19.0080 C   0  0  0  0  0  0  0  0  0  0  0  0
   53.7990   89.6950   19.9060 C   0  0  0  0  0  3  0  0  0  0  0  0
   53.8200   88.3220   20.0450 C   0  0  0  0  0  0  0  0  0  0  0  0
   52.9440   87.6060   19.2530 C   0  0  0  0  0  0  0  0  0  0  0  0
   52.0850   88.1720   18.3690 C   0  0  0  0  0  3  0  0  0  0  0  0
   52.0710   89.5690   18.2360 C   0  0  0  0  0  3  0  0  0  0  0  0
   52.9770   86.1310   19.4180 C   0  0  0  0  0  0  0  0  0  0  0  0
   52.3000   85.1870   18.8390 N   0  0  0  0  0  0  0  0  0  0  0  0
   52.6970   83.8930   19.3450 C   0  0  0  0  0  3  0  0  0  0  0  0
   53.7610   84.1400   20.3860 C   0  0  0  0  0  3  0  0  0  0  0  0
   53.8800   85.5880   20.3470 N   0  0  0  0  0  0  0  0  0  0  0  0
   54.7550   86.3980   21.1290 C   0  0  0  0  0  0  0  0  0  0  0  0
   55.6740   86.0870   22.0670 N   0  0  0  0  0  0  0  0  0  0  0  0
   56.2300   87.2080   22.5200 N   0  0  0  0  0  0  0  0  0  0  0  0
   55.6360   88.1920   21.8480 C   0  0  0  0  0  0  0  0  0  0  0  0
   55.8860   89.4210   21.9930 O   0  0  0  0  0  0  0  0  0  0  0  0
   54.7090   87.7180   20.9700 N   0  0  0  0  0  0  0  0  0  0  0  0
   57.2640   87.3140   23.5530 C   0  0  0  0  0  2  0  0  0  0  0  0
   56.4410   87.7100   24.8180 C   0  0  0  0  0  0  0  0  0  0  0  0
   56.9670   88.7690   25.3120 O   0  0  0  0  0  0  0  0  0  0  0  0
   55.3920   86.9750   25.2120 N   0  0  0  0  0  0  0  0  0  0  0  0
   55.1290   87.8740   26.1960 H   0  0  0  0  0  0  0  0  0  0  0  0
   54.3140   86.2200   25.6180 C   0  0  0  0  0  2  0  0  0  0  0  0
   54.5910   84.7140   25.5440 C   0  0  0  0  0  2  0  0  0  0  0  0
   54.1730   84.1830   24.3470 O   0  0  0  0  0  0  0  0  0  0  0  0
   52.8780   84.4450   24.0090 C   0  0  0  0  0  1  0  0  0  0  0  0
  1  2  1  0  0  0  0
  2  3  1  0  0  0  0
  3  4  2  0  0  0  0
  4 18  1  0  0  0  0
  5  8  1  0  0  0  0
  5  4  1  0  0  0  0
  6  5  2  0  0  0  0
  7  6  1  0  0  0  0
  7  2  2  0  0  0  0
  8 12  1  0  0  0  0
  9 10  1  0  0  0  0
  9  8  2  0  0  0  0
 10 11  2  0  0  0  0
 12 11  1  0  0  0  0
 12 13  1  0  0  0  0
 13 14  2  0  0  0  0
 14 15  1  0  0  0  0
 15 19  1  0  0  0  0
 16 17  2  0  0  0  0
 16 15  1  0  0  0  0
 18 13  1  0  0  0  0
 18 16  1  0  0  0  0
 19 20  1  0  0  0  0
 20 22  1  0  0  0  0
 20 21  2  0  0  0  0
 22 24  1  0  0  0  0
 22 23  1  0  0  0  0
 25 24  1  0  0  0  0
 26 25  1  0  0  0  0
 27 26  1  0  0  0  0
M  END
>  <Pose>
1

>  <Score>
-8.094

$$$$
