/Users/jonathanwahrer/Desktop/Msc/3_Semester/Drug_Design_Praktikum/waehrer_HTS_screening/HTS_experiment/out/docking_results/vina_output/3npc/1804_docked.pdbqt
 OpenBabel03192220453D

 26 30  0  0  0  0  0  0  0  0999 V2000
   54.0430   91.3440   18.0570 Cl  0  0  0  0  0  0  0  0  0  0  0  0
   54.5580   90.4370   19.4630 C   0  0  0  0  0  0  0  0  0  0  0  0
   54.2400   89.1040   19.6580 C   0  0  0  0  0  3  0  0  0  0  0  0
   54.6510   88.4020   20.7670 C   0  0  0  0  0  0  0  0  0  0  0  0
   55.4030   89.0910   21.6880 C   0  0  0  0  0  0  0  0  0  0  0  0
   55.7480   90.4150   21.5460 C   0  0  0  0  0  3  0  0  0  0  0  0
   55.3140   91.0980   20.4080 C   0  0  0  0  0  3  0  0  0  0  0  0
   55.8610   88.3720   22.8920 C   0  0  0  0  0  0  0  0  0  0  0  0
   56.5620   88.7530   23.8970 N   0  0  0  0  0  0  0  0  0  0  0  0
   56.7670   87.6940   24.8480 C   0  0  0  0  0  3  0  0  0  0  0  0
   56.0500   86.5220   24.2590 C   0  0  0  0  0  3  0  0  0  0  0  0
   55.4980   87.0130   23.0240 N   0  0  0  0  0  0  0  0  0  0  0  0
   54.7060   86.3400   22.0230 C   0  0  0  0  0  0  0  0  0  0  0  0
   54.2450   85.0780   21.9320 N   0  0  0  0  0  0  0  0  0  0  0  0
   53.5580   84.9420   20.8110 N   0  0  0  0  0  0  0  0  0  0  0  0
   53.6030   86.1440   20.2130 C   0  0  0  0  0  0  0  0  0  0  0  0
   53.0410   86.3790   19.1050 O   0  0  0  0  0  0  0  0  0  0  0  0
   54.3090   87.0340   20.9430 N   0  0  0  0  0  0  0  0  0  0  0  0
   52.8810   83.7350   20.3130 C   0  0  0  0  0  2  0  0  0  0  0  0
   53.9020   82.8630   19.6760 C   0  0  0  0  0  0  0  0  0  0  0  0
   54.5720   82.1260   20.4430 O   0  0  0  0  0  0  0  0  0  0  0  0
   54.1190   82.8580   18.2720 N   0  0  0  0  0  0  0  0  0  0  0  0
   55.1000   82.0320   17.5940 C   0  0  0  0  0  2  0  0  0  0  0  0
   53.4230   83.6480   17.2840 C   0  0  0  0  0  2  0  0  0  0  0  0
   55.1200   82.4870   16.1590 C   0  0  0  0  0  2  0  0  0  0  0  0
   54.5430   83.8840   16.2650 C   0  0  0  0  0  2  0  0  0  0  0  0
  1  2  1  0  0  0  0
  2  3  2  0  0  0  0
  2  7  1  0  0  0  0
  3  4  1  0  0  0  0
  4 18  1  0  0  0  0
  4  5  2  0  0  0  0
  5  8  1  0  0  0  0
  6  5  1  0  0  0  0
  7  6  2  0  0  0  0
  8 12  1  0  0  0  0
  8  9  2  0  0  0  0
  9 10  1  0  0  0  0
 11 10  2  0  0  0  0
 12 11  1  0  0  0  0
 13 12  1  0  0  0  0
 14 13  2  0  0  0  0
 15 14  1  0  0  0  0
 16 15  1  0  0  0  0
 16 18  1  0  0  0  0
 17 16  2  0  0  0  0
 18 13  1  0  0  0  0
 19 15  1  0  0  0  0
 20 19  1  0  0  0  0
 20 21  2  0  0  0  0
 22 20  1  0  0  0  0
 23 22  1  0  0  0  0
 24 22  1  0  0  0  0
 25 26  1  0  0  0  0
 25 23  1  0  0  0  0
 26 24  1  0  0  0  0
M  END
>  <Pose>
1

>  <Score>
-9.228

$$$$
