MODEL 1
REMARK VINA RESULT:    -8.428      0.000      0.000
REMARK INTER + INTRA:         -11.213
REMARK INTER:                  -9.906
REMARK INTRA:                  -1.307
REMARK UNBOUND:                -1.307
REMARK  3 active torsions:
REMARK  status: ('A' for Active; 'I' for Inactive)
REMARK    1  A    between atoms: C_10  and  N_11 
REMARK    2  A    between atoms: N_14  and  C_17 
REMARK    3  A    between atoms: C_22  and  C_23 
REMARK       I    between atoms: C_23  and  N_25 
ROOT
ATOM      1  N   UNK d   1      55.748  90.209  21.939  0.00  0.00    -0.384 N 
ATOM      2  C   UNK d   1      56.766  89.963  20.938  0.00  0.00     0.142 C 
ATOM      3  C   UNK d   1      56.156  90.318  19.573  0.00  0.00     0.144 C 
ATOM      4  N   UNK d   1      54.765  90.605  19.667  0.00  0.00    -0.362 N 
ATOM      5  C   UNK d   1      54.442  91.760  20.503  0.00  0.00     0.144 C 
ATOM      6  C   UNK d   1      55.023  91.462  21.865  0.00  0.00     0.142 C 
ENDROOT
BRANCH   1   7
ATOM      7  C   UNK d   1      55.455  89.303  22.994  0.00  0.00     0.134 C 
ATOM      8  C   UNK d   1      55.013  88.073  22.878  0.00  0.00     0.124 A 
ATOM      9  N   UNK d   1      54.759  87.464  21.627  0.00  0.00    -0.340 N 
ATOM     10  N   UNK d   1      54.767  87.291  24.068  0.00  0.00    -0.308 N 
ATOM     11  C   UNK d   1      54.273  86.105  21.544  0.00  0.00     0.049 A 
ATOM     12  H   UNK d   1      54.923  87.989  20.750  0.00  0.00     0.167 HD
ATOM     13  C   UNK d   1      54.033  85.346  22.661  0.00  0.00     0.060 A 
ATOM     14  C   UNK d   1      54.040  85.553  20.310  0.00  0.00     0.032 A 
ATOM     15  C   UNK d   1      53.567  84.051  22.544  0.00  0.00     0.043 A 
ATOM     16  C   UNK d   1      54.289  85.962  23.954  0.00  0.00     0.259 A 
ATOM     17  C   UNK d   1      53.337  83.505  21.319  0.00  0.00     0.035 A 
ATOM     18 Cl   UNK d   1      52.743  81.859  21.109  0.00  0.00    -0.084 Cl
ATOM     19  C   UNK d   1      53.574  84.256  20.190  0.00  0.00     0.026 A 
ATOM     20  O   UNK d   1      54.064  85.251  24.993  0.00  0.00    -0.267 OA
ATOM     21  H   UNK d   1      54.941  87.706  25.004  0.00  0.00     0.170 HD
ENDBRANCH   1   7
BRANCH   4  22
ATOM     22  C   UNK d   1      53.669  89.922  19.085  0.00  0.00     0.141 A 
ATOM     23  N   UNK d   1      52.995  88.993  19.859  0.00  0.00    -0.242 NA
ATOM     24  C   UNK d   1      51.959  88.276  19.426  0.00  0.00     0.119 A 
ATOM     25  C   UNK d   1      51.534  88.468  18.141  0.00  0.00     0.020 A 
ATOM     26  C   UNK d   1      52.174  89.378  17.348  0.00  0.00     0.022 A 
ATOM     27  C   UNK d   1      53.270  90.140  17.800  0.00  0.00     0.077 A 
BRANCH  27  28
ATOM     28  C   UNK d   1      53.897  91.107  16.952  0.00  0.00     0.253 C 
ATOM     29  O   UNK d   1      53.713  92.321  16.988  0.00  0.00    -0.268 OA
ATOM     30  N   UNK d   1      54.820  90.649  15.971  0.00  0.00    -0.366 N 
ATOM     31  H   UNK d   1      55.740  90.243  16.252  0.00  0.00     0.159 HD
ATOM     32  H   UNK d   1      54.638  90.691  14.943  0.00  0.00     0.159 HD
ENDBRANCH  27  28
ENDBRANCH   4  22
TORSDOF 3
ENDMDL
