MODEL 1
REMARK VINA RESULT:    -7.795      0.000      0.000
REMARK INTER + INTRA:          -9.221
REMARK INTER:                  -8.706
REMARK INTRA:                  -0.515
REMARK UNBOUND:                -0.515
REMARK  2 active torsions:
REMARK  status: ('A' for Active; 'I' for Inactive)
REMARK    1  A    between atoms: C_5  and  N_8 
REMARK    2  A    between atoms: C_12  and  C_20 
ROOT
ATOM      1  N   UNK d   1      49.487 100.742  29.302  0.00  0.00    -0.252 N 
ATOM      2  C   UNK d   1      50.201  99.530  29.488  0.00  0.00     0.239 C 
ATOM      3  O   UNK d   1      50.481  99.042  30.609  0.00  0.00    -0.272 OA
ATOM      4  C   UNK d   1      50.546  98.960  28.158  0.00  0.00     0.138 C 
ATOM      5  C   UNK d   1      51.917  99.362  27.708  0.00  0.00     0.142 C 
ATOM      6  O   UNK d   1      51.727  99.397  26.309  0.00  0.00    -0.360 OA
ATOM      7  C   UNK d   1      50.708 100.382  26.300  0.00  0.00     0.160 C 
ATOM      8  C   UNK d   1      49.681  99.740  27.167  0.00  0.00     0.128 C 
ATOM      9  C   UNK d   1      48.968 100.767  27.973  0.00  0.00     0.239 C 
ATOM     10  O   UNK d   1      48.080 101.507  27.543  0.00  0.00    -0.272 OA
ATOM     11  C   UNK d   1      51.391 101.443  27.086  0.00  0.00     0.005 C 
ATOM     12  C   UNK d   1      52.096 100.792  28.006  0.00  0.00     0.015 C 
ENDROOT
BRANCH   1  13
ATOM     13  C   UNK d   1      49.354 101.730  30.331  0.00  0.00     0.045 A 
ATOM     14  C   UNK d   1      50.451 102.247  30.983  0.00  0.00     0.031 A 
ATOM     15  C   UNK d   1      50.337 103.196  31.975  0.00  0.00     0.021 A 
ATOM     16  C   UNK d   1      49.079 103.631  32.317  0.00  0.00     0.011 A 
ATOM     17 Br   UNK d   1      48.880 104.936  33.680  0.00  0.00    -0.051 Br
ATOM     18  C   UNK d   1      47.970 103.129  31.683  0.00  0.00     0.021 A 
ATOM     19  C   UNK d   1      48.082 102.168  30.677  0.00  0.00     0.031 A 
ENDBRANCH   1  13
BRANCH   5  20
ATOM     20  C   UNK d   1      53.007  98.467  28.116  0.00  0.00     0.298 C 
ATOM     21  O   UNK d   1      54.049  98.417  27.230  0.00  0.00    -0.356 OA
ATOM     22  C   UNK d   1      54.061  97.182  26.632  0.00  0.00     0.197 C 
ATOM     23  C   UNK d   1      52.924  96.415  27.223  0.00  0.00     0.197 C 
ATOM     24  O   UNK d   1      52.561  97.175  28.329  0.00  0.00    -0.356 OA
ENDBRANCH   5  20
TORSDOF 2
ENDMDL
