MODEL 1
REMARK VINA RESULT:    -8.693      0.000      0.000
REMARK INTER + INTRA:         -11.506
REMARK INTER:                 -11.234
REMARK INTRA:                  -0.273
REMARK UNBOUND:                -0.273
REMARK  5 active torsions:
REMARK  status: ('A' for Active; 'I' for Inactive)
REMARK    1  A    between atoms: S_1  and  N_4 
REMARK    2  A    between atoms: S_1  and  C_26 
REMARK       I    between atoms: N_7  and  C_10 
REMARK    3  A    between atoms: C_10  and  C_12 
REMARK    4  A    between atoms: N_14  and  C_18 
REMARK    5  A    between atoms: C_18  and  C_19 
ROOT
ATOM      1  N   UNK d   1      48.314 102.571  31.792  0.00  0.00    -0.203 NA
ATOM      2  C   UNK d   1      49.269 103.405  31.108  0.00  0.00     0.127 C 
ATOM      3  C   UNK d   1      49.732 102.662  29.877  0.00  0.00     0.141 C 
ATOM      4  N   UNK d   1      48.874 101.526  29.654  0.00  0.00    -0.349 N 
ATOM      5  C   UNK d   1      47.428 101.615  29.819  0.00  0.00     0.141 C 
ATOM      6  C   UNK d   1      47.104 102.539  30.995  0.00  0.00     0.127 C 
ATOM      7  C   UNK d   1      49.433 100.292  29.276  0.00  0.00     0.226 C 
ATOM      8  O   UNK d   1      48.654  99.304  29.043  0.00  0.00    -0.273 OA
ENDROOT
BRANCH   7   9
ATOM      9  C   UNK d   1      50.908 100.134  29.154  0.00  0.00     0.105 C 
ATOM     10  C   UNK d   1      51.350  98.703  29.259  0.00  0.00     0.140 C 
ATOM     11  N   UNK d   1      51.653  98.287  27.893  0.00  0.00    -0.347 N 
ATOM     12  C   UNK d   1      51.353  99.339  26.996  0.00  0.00     0.221 C 
ATOM     13  O   UNK d   1      51.111  99.186  25.774  0.00  0.00    -0.273 OA
ATOM     14  C   UNK d   1      51.395 100.578  27.802  0.00  0.00     0.118 C 
BRANCH  11  15
ATOM     15  C   UNK d   1      52.176  96.990  27.527  0.00  0.00     0.166 C 
BRANCH  15  16
ATOM     16  C   UNK d   1      53.584  97.071  27.072  0.00  0.00    -0.018 A 
ATOM     17  C   UNK d   1      54.126  96.013  26.357  0.00  0.00     0.042 A 
ATOM     18  C   UNK d   1      55.433  96.017  25.901  0.00  0.00     0.024 A 
ATOM     19 Cl   UNK d   1      53.109  94.636  26.030  0.00  0.00    -0.084 Cl
ATOM     20  C   UNK d   1      56.197  97.130  26.186  0.00  0.00     0.002 A 
ATOM     21  C   UNK d   1      55.688  98.203  26.896  0.00  0.00     0.001 A 
ATOM     22  C   UNK d   1      54.368  98.172  27.344  0.00  0.00     0.010 A 
ENDBRANCH  15  16
ENDBRANCH  11  15
ENDBRANCH   7   9
BRANCH   1  23
ATOM     23  S   UNK d   1      48.021 103.135  33.390  0.00  0.00     0.248 S 
ATOM     24  O   UNK d   1      48.899 102.442  34.392  0.00  0.00    -0.206 OA
ATOM     25  O   UNK d   1      46.603 102.736  33.739  0.00  0.00    -0.206 OA
BRANCH  23  26
ATOM     26  C   UNK d   1      48.159 104.864  33.495  0.00  0.00     0.132 A 
ATOM     27  C   UNK d   1      47.242 105.858  33.237  0.00  0.00     0.083 A 
ATOM     28  N   UNK d   1      47.859 107.058  33.467  0.00  0.00    -0.132 NA
ATOM     29  C   UNK d   1      45.850 105.640  32.801  0.00  0.00     0.074 C 
ATOM     30  O   UNK d   1      49.059 106.813  33.837  0.00  0.00    -0.216 OA
ATOM     31  C   UNK d   1      49.310 105.526  33.877  0.00  0.00     0.100 A 
ATOM     32  C   UNK d   1      50.618 104.961  34.273  0.00  0.00     0.081 C 
ENDBRANCH  23  26
ENDBRANCH   1  23
TORSDOF 5
ENDMDL
