MODEL 1
REMARK VINA RESULT:    -9.721      0.000      0.000
REMARK INTER + INTRA:         -12.677
REMARK INTER:                 -11.994
REMARK INTRA:                  -0.683
REMARK UNBOUND:                -0.683
REMARK  4 active torsions:
REMARK  status: ('A' for Active; 'I' for Inactive)
REMARK    1  A    between atoms: C_7  and  O_8 
REMARK    2  A    between atoms: C_13  and  C_16 
REMARK    3  A    between atoms: C_16  and  C_17 
REMARK       I    between atoms: C_17  and  N_19 
REMARK       I    between atoms: N_22  and  C_25 
REMARK    4  A    between atoms: C_25  and  C_27 
ROOT
ATOM      1  C   UNK d   1      51.995  99.718  27.849  0.00  0.00     0.224 C 
ATOM      2  O   UNK d   1      52.499 100.234  26.792  0.00  0.00    -0.273 OA
ATOM      3  N   UNK d   1      50.755 100.175  28.258  0.00  0.00    -0.349 N 
ATOM      4  C   UNK d   1      50.022 101.187  27.564  0.00  0.00     0.145 C 
ATOM      5  C   UNK d   1      49.796 102.351  28.530  0.00  0.00     0.145 C 
ATOM      6  N   UNK d   1      49.152 101.872  29.707  0.00  0.00    -0.355 N 
ATOM      7  C   UNK d   1      48.878 100.421  29.766  0.00  0.00     0.145 C 
ATOM      8  C   UNK d   1      50.128  99.633  29.442  0.00  0.00     0.145 C 
ATOM      9  C   UNK d   1      48.765 102.660  30.811  0.00  0.00     0.204 C 
ATOM     10  O   UNK d   1      48.172 101.963  31.774  0.00  0.00    -0.170 OA
ENDROOT
BRANCH   1  11
ATOM     11  C   UNK d   1      52.792  98.669  28.543  0.00  0.00     0.148 C 
BRANCH  11  12
ATOM     12  C   UNK d   1      53.165  97.574  27.619  0.00  0.00     0.033 A 
ATOM     13  C   UNK d   1      52.229  96.600  27.277  0.00  0.00     0.295 A 
ATOM     14  O   UNK d   1      52.503  95.609  26.463  0.00  0.00    -0.274 OA
ATOM     15  O   UNK d   1      51.071  96.718  27.801  0.00  0.00    -0.259 OA
ATOM     16  C   UNK d   1      53.679  95.453  25.905  0.00  0.00     0.093 A 
ATOM     17  C   UNK d   1      54.677  96.360  26.175  0.00  0.00     0.006 A 
ATOM     18  C   UNK d   1      53.942  94.383  25.040  0.00  0.00     0.076 A 
ATOM     19  C   UNK d   1      55.904  96.184  25.582  0.00  0.00     0.041 A 
ATOM     20  C   UNK d   1      54.405  97.425  27.039  0.00  0.00    -0.036 A 
ATOM     21  C   UNK d   1      56.162  95.119  24.724  0.00  0.00     0.068 A 
ATOM     22 Cl   UNK d   1      57.722  94.890  23.969  0.00  0.00    -0.081 Cl
ATOM     23  C   UNK d   1      55.171  94.205  24.447  0.00  0.00     0.092 A 
ATOM     24  C   UNK d   1      55.469  98.385  27.316  0.00  0.00     0.050 C 
BRANCH  23  25
ATOM     25  O   UNK d   1      55.426  93.127  23.579  0.00  0.00    -0.354 OA
ATOM     26  C   UNK d   1      54.772  92.996  22.342  0.00  0.00     0.210 C 
ENDBRANCH  23  25
ENDBRANCH  11  12
ENDBRANCH   1  11
BRANCH   9  27
ATOM     27  C   UNK d   1      48.894 104.061  31.079  0.00  0.00     0.095 A 
ATOM     28  C   UNK d   1      49.848 104.501  32.032  0.00  0.00     0.108 A 
ATOM     29  C   UNK d   1      49.999 105.831  32.320  0.00  0.00     0.253 A 
ATOM     30  O   UNK d   1      50.853 106.196  33.170  0.00  0.00    -0.268 OA
ATOM     31  N   UNK d   1      49.266 106.786  31.733  0.00  0.00    -0.271 N 
ATOM     32  C   UNK d   1      48.368 106.372  30.837  0.00  0.00     0.329 A 
ATOM     33  C   UNK d   1      49.438 108.184  32.053  0.00  0.00     0.164 C 
ATOM     34  O   UNK d   1      47.645 107.242  30.250  0.00  0.00    -0.246 OA
ATOM     35  N   UNK d   1      48.192 105.041  30.523  0.00  0.00    -0.304 N 
ATOM     36  H   UNK d   1      47.469 104.825  29.809  0.00  0.00     0.171 HD
ENDBRANCH   9  27
TORSDOF 4
ENDMDL
