/Users/jonathanwahrer/Desktop/Msc/3_Semester/Drug_Design_Praktikum/waehrer_HTS_screening/HTS_experiment/out/docking_results/vina_output/3npc/1822_docked.pdbqt
 OpenBabel03192220473D

 24 27  0  0  1  0  0  0  0  0999 V2000
   56.2870   85.1180   25.3240 Cl  0  0  0  0  0  0  0  0  0  0  0  0
   56.1770   86.4030   24.1260 C   0  0  0  0  0  0  0  0  0  0  0  0
   57.0680   87.4490   24.2040 C   0  0  0  0  0  0  0  0  0  0  0  0
   56.9760   88.4240   23.2850 N   0  0  0  0  0  0  0  0  0  0  0  0
   56.0460   88.4120   22.2940 C   0  0  0  0  0  0  0  0  0  0  0  0
   55.1710   87.3960   22.2080 N   0  0  0  0  0  0  0  0  0  0  0  0
   54.3700   87.6090   21.1680 N   0  0  0  0  0  0  0  0  0  0  0  0
   54.7030   88.7630   20.5550 C   0  0  0  0  0  0  0  0  0  0  0  0
   55.7480   89.2400   21.2770 N   0  0  0  0  0  0  0  0  0  0  0  0
   55.2350   86.3950   23.1200 C   0  0  0  0  0  0  0  0  0  0  0  0
   54.4090   85.4320   23.0400 O   0  0  0  0  0  0  0  0  0  0  0  0
   58.1020   87.4770   25.2930 C   0  0  0  0  0  1  0  0  0  0  0  0
   57.6510   89.2230   23.3390 H   0  0  0  0  0  0  0  0  0  0  0  0
   54.0950   89.3520   19.4090 N   0  0  0  0  0  0  0  0  0  0  0  0
   52.7130   89.3000   19.0790 C   0  0  0  0  0  0  0  0  0  0  0  0
   51.7400   89.0530   19.8370 O   0  0  0  0  0  0  0  0  0  0  0  0
   52.5460   89.5970   17.6160 C   0  0  2  0  0  3  0  0  0  0  0  0
   53.8590   90.1270   17.1620 C   0  0  1  0  0  3  0  0  0  0  0  0
   51.4600   90.6390   17.4510 C   0  0  0  0  0  2  0  0  0  0  0  0
   53.8280   91.5720   16.6970 C   0  0  0  0  0  2  0  0  0  0  0  0
   54.7070   90.0980   18.3690 C   0  0  0  0  0  0  0  0  0  0  0  0
   53.1210   92.3460   17.7670 C   0  0  0  0  0  3  0  0  0  0  0  0
   51.9450   91.8650   18.1290 C   0  0  0  0  0  3  0  0  0  0  0  0
   55.8440   90.6630   18.4800 O   0  0  0  0  0  0  0  0  0  0  0  0
  2  3  2  0  0  0  0
  2  1  1  0  0  0  0
  3 12  1  0  0  0  0
  4 13  1  0  0  0  0
  4  3  1  0  0  0  0
  5  4  1  0  0  0  0
  6  5  1  0  0  0  0
  6 10  1  0  0  0  0
  7  6  1  0  0  0  0
  8  7  2  0  0  0  0
  8  9  1  0  0  0  0
  9  5  2  0  0  0  0
 10  2  1  0  0  0  0
 11 10  2  0  0  0  0
 14  8  1  0  0  0  0
 15 14  1  0  0  0  0
 15 16  2  0  0  0  0
 17 19  1  1  0  0  0
 17 15  1  0  0  0  0
 18 20  1  1  0  0  0
 18 17  1  0  0  0  0
 18 21  1  0  0  0  0
 19 23  1  0  0  0  0
 20 22  1  0  0  0  0
 21 24  2  0  0  0  0
 21 14  1  0  0  0  0
 22 23  2  0  0  0  0
M  END
>  <Pose>
1

>  <Score>
-9.024

$$$$
