MODEL 1
REMARK VINA RESULT:    -9.024      0.000      0.000
REMARK INTER + INTRA:          -9.732
REMARK INTER:                  -9.551
REMARK INTRA:                  -0.181
REMARK UNBOUND:                -0.181
REMARK  1 active torsions:
REMARK  status: ('A' for Active; 'I' for Inactive)
REMARK    1  A    between atoms: C_8  and  N_10 
ROOT
ATOM      1 Cl   UNK d   1      56.287  85.118  25.324  0.00  0.00    -0.076 Cl
ATOM      2  C   UNK d   1      56.177  86.403  24.126  0.00  0.00     0.127 A 
ATOM      3  C   UNK d   1      57.068  87.449  24.204  0.00  0.00     0.050 A 
ATOM      4  N   UNK d   1      56.976  88.424  23.285  0.00  0.00    -0.190 N 
ATOM      5  C   UNK d   1      56.046  88.412  22.294  0.00  0.00     0.747 A 
ATOM      6  N   UNK d   1      55.171  87.396  22.208  0.00  0.00    -0.005 N 
ATOM      7  N   UNK d   1      54.370  87.609  21.168  0.00  0.00     0.046 NA
ATOM      8  C   UNK d   1      54.703  88.763  20.555  0.00  0.00     0.772 A 
ATOM      9  N   UNK d   1      55.748  89.240  21.277  0.00  0.00     0.133 NA
ATOM     10  C   UNK d   1      55.235  86.395  23.120  0.00  0.00     0.308 A 
ATOM     11  O   UNK d   1      54.409  85.432  23.040  0.00  0.00    -0.264 OA
ATOM     12  C   UNK d   1      58.102  87.477  25.293  0.00  0.00     0.071 C 
ATOM     13  H   UNK d   1      57.651  89.223  23.339  0.00  0.00     0.184 HD
ENDROOT
BRANCH   8  14
ATOM     14  N   UNK d   1      54.095  89.352  19.409  0.00  0.00    -0.076 N 
ATOM     15  C   UNK d   1      52.713  89.300  19.079  0.00  0.00     0.251 C 
ATOM     16  O   UNK d   1      51.740  89.053  19.837  0.00  0.00    -0.272 OA
ATOM     17  C   UNK d   1      52.546  89.597  17.616  0.00  0.00     0.096 C 
ATOM     18  C   UNK d   1      53.859  90.127  17.162  0.00  0.00     0.096 C 
ATOM     19  C   UNK d   1      51.460  90.639  17.451  0.00  0.00     0.042 C 
ATOM     20  C   UNK d   1      53.828  91.572  16.697  0.00  0.00     0.042 C 
ATOM     21  C   UNK d   1      54.707  90.098  18.369  0.00  0.00     0.251 C 
ATOM     22  C   UNK d   1      53.121  92.346  17.767  0.00  0.00    -0.030 C 
ATOM     23  C   UNK d   1      51.945  91.865  18.129  0.00  0.00    -0.030 C 
ATOM     24  O   UNK d   1      55.844  90.663  18.480  0.00  0.00    -0.272 OA
ENDBRANCH   8  14
TORSDOF 1
ENDMDL
