/Users/jonathanwahrer/Desktop/Msc/3_Semester/Drug_Design_Praktikum/waehrer_HTS_screening/HTS_experiment/out/docking_results/vina_output/3npc/1835_docked.pdbqt
 OpenBabel03192220473D

 36 39  0  0  1  0  0  0  0  0999 V2000
   54.7290   91.5200   21.8900 C   0  0  0  0  0  0  0  0  0  0  0  0
   54.9570   90.3160   21.3420 N   0  0  0  0  0  0  0  0  0  0  0  0
   54.2610   90.2940   20.1930 C   0  0  0  0  0  0  0  0  0  0  0  0
   54.1060   89.3570   19.2260 N   0  0  0  0  0  0  0  0  0  0  0  0
   53.3380   89.5760   18.1410 C   0  0  0  0  0  3  0  0  0  0  0  0
   52.6960   90.7550   17.9930 N   0  0  0  0  0  0  0  0  0  0  0  0
   52.7990   91.7350   18.9100 C   0  0  0  0  0  0  0  0  0  0  0  0
   53.5930   91.4870   20.0130 C   0  0  0  0  0  0  0  0  0  0  0  0
   53.9030   92.2390   21.0940 N   0  0  0  0  0  0  0  0  0  0  0  0
   55.2670   91.9830   23.1200 N   0  0  0  0  0  0  0  0  0  0  0  0
   55.7270   91.3250   23.7940 H   0  0  0  0  0  0  0  0  0  0  0  0
   55.2140   93.3260   23.5000 N   0  0  0  0  0  0  0  0  0  0  0  0
   55.6040   93.6470   24.6780 C   0  0  0  0  0  3  0  0  0  0  0  0
   55.5810   95.0320   25.1590 C   0  0  0  0  0  0  0  0  0  0  0  0
   54.4700   95.5550   25.7840 C   0  0  0  0  0  0  0  0  0  0  0  0
   53.0760   94.5210   25.9900 Cl  0  0  0  0  0  0  0  0  0  0  0  0
   54.4720   96.8770   26.2340 C   0  0  0  0  0  3  0  0  0  0  0  0
   55.5680   97.6970   26.0730 C   0  0  0  0  0  3  0  0  0  0  0  0
   56.6770   97.1640   25.4470 C   0  0  0  0  0  3  0  0  0  0  0  0
   56.6780   95.8510   24.9980 C   0  0  0  0  0  0  0  0  0  0  0  0
   58.1000   95.1870   24.2010 Cl  0  0  0  0  0  0  0  0  0  0  0  0
   55.7570   89.2220   21.8110 C   0  0  1  0  0  3  0  0  0  0  0  0
   56.3100   89.4600   23.0660 O   0  0  0  0  0  0  0  0  0  0  0  0
   56.7310   88.1810   23.4280 C   0  0  2  0  0  3  0  0  0  0  0  0
   55.4380   87.3960   23.2670 C   0  0  1  0  0  3  0  0  0  0  0  0
   54.9280   87.9580   21.9560 C   0  0  2  0  0  3  0  0  0  0  0  0
   57.2530   88.1180   24.8380 C   0  0  0  0  0  2  0  0  0  0  0  0
   56.5390   88.9000   25.7120 O   0  0  0  0  0  0  0  0  0  0  0  0
   57.1230   89.4720   26.2570 H   0  0  0  0  0  0  0  0  0  0  0  0
   55.6690   86.0300   23.1910 O   0  0  0  0  0  0  0  0  0  0  0  0
   54.7900   85.5740   23.2900 H   0  0  0  0  0  0  0  0  0  0  0  0
   55.2410   87.0270   20.9630 O   0  0  0  0  0  0  0  0  0  0  0  0
   56.1900   86.7880   20.9670 H   0  0  0  0  0  0  0  0  0  0  0  0
   52.1140   92.9580   18.7270 N   0  0  0  0  0  0  0  0  0  0  0  0
   51.4220   93.0890   17.9690 H   0  0  0  0  0  0  0  0  0  0  0  0
   52.3110   93.7460   19.3690 H   0  0  0  0  0  0  0  0  0  0  0  0
  1 10  1  0  0  0  0
  2  1  1  0  0  0  0
  3  2  1  0  0  0  0
  4  3  2  0  0  0  0
  5  4  1  0  0  0  0
  6  5  2  0  0  0  0
  6  7  1  0  0  0  0
  7  8  2  0  0  0  0
  8  3  1  0  0  0  0
  8  9  1  0  0  0  0
  9  1  2  0  0  0  0
 10 12  1  0  0  0  0
 10 11  1  0  0  0  0
 12 13  2  0  0  0  0
 13 14  1  0  0  0  0
 14 15  1  0  0  0  0
 15 16  1  0  0  0  0
 15 17  2  0  0  0  0
 18 17  1  0  0  0  0
 19 18  2  0  0  0  0
 20 14  2  0  0  0  0
 20 19  1  0  0  0  0
 21 20  1  0  0  0  0
 22  2  1  1  0  0  0
 22 26  1  0  0  0  0
 22 23  1  0  0  0  0
 23 24  1  0  0  0  0
 24 27  1  1  0  0  0
 25 30  1  6  0  0  0
 25 24  1  0  0  0  0
 26 32  1  6  0  0  0
 26 25  1  0  0  0  0
 27 28  1  0  0  0  0
 28 29  1  0  0  0  0
 30 31  1  0  0  0  0
 32 33  1  0  0  0  0
 34  7  1  0  0  0  0
 34 36  1  0  0  0  0
 35 34  1  0  0  0  0
M  END
>  <Pose>
1

>  <Score>
-9.424

$$$$
