MODEL 1
REMARK VINA RESULT:    -8.846      0.000      0.000
REMARK INTER + INTRA:         -12.171
REMARK INTER:                 -11.432
REMARK INTRA:                  -0.739
REMARK UNBOUND:                -0.739
REMARK  5 active torsions:
REMARK  status: ('A' for Active; 'I' for Inactive)
REMARK    1  A    between atoms: C_3  and  O_29 
REMARK    2  A    between atoms: C_6  and  N_8 
REMARK       I    between atoms: N_8  and  C_9 
REMARK    3  A    between atoms: C_9  and  C_11 
REMARK    4  A    between atoms: C_11  and  N_12 
REMARK    5  A    between atoms: C_17  and  N_23 
ROOT
ATOM      1  N   UNK d   1      48.708 100.456  28.538  0.00  0.00    -0.299 N 
ATOM      2  C   UNK d   1      48.502  99.198  28.986  0.00  0.00     0.215 A 
ATOM      3  N   UNK d   1      49.417  98.233  28.760  0.00  0.00    -0.223 NA
ATOM      4  C   UNK d   1      50.558  98.454  28.096  0.00  0.00     0.186 A 
ATOM      5  N   UNK d   1      51.475  97.500  27.867  0.00  0.00    -0.042 NA
ATOM      6  C   UNK d   1      52.627  97.695  27.203  0.00  0.00     0.726 A 
ATOM      7  N   UNK d   1      52.855  98.956  26.744  0.00  0.00    -0.074 NA
ATOM      8  C   UNK d   1      51.965  99.939  26.952  0.00  0.00     0.157 A 
ATOM      9  C   UNK d   1      50.785  99.727  27.634  0.00  0.00     0.099 A 
ATOM     10  C   UNK d   1      49.858 100.725  27.857  0.00  0.00     0.264 A 
ATOM     11  O   UNK d   1      50.122 101.868  27.410  0.00  0.00    -0.267 OA
ENDROOT
BRANCH   1  12
ATOM     12  C   UNK d   1      47.791 101.534  28.733  0.00  0.00     0.236 C 
BRANCH  12  13
ATOM     13  C   UNK d   1      48.106 102.341  29.962  0.00  0.00     0.240 C 
ATOM     14  N   UNK d   1      49.287 103.094  30.054  0.00  0.00    -0.326 N 
ATOM     15  H   UNK d   1      49.965 103.079  29.219  0.00  0.00     0.169 HD
ATOM     16  O   UNK d   1      47.266 102.296  30.874  0.00  0.00    -0.271 OA
BRANCH  14  17
ATOM     17  C   UNK d   1      49.636 103.866  31.183  0.00  0.00     0.036 A 
ATOM     18  C   UNK d   1      50.474 103.471  32.195  0.00  0.00     0.032 A 
ATOM     19  C   UNK d   1      50.733 104.320  33.272  0.00  0.00     0.041 A 
ATOM     20  C   UNK d   1      50.185 105.573  33.395  0.00  0.00     0.090 A 
ATOM     21  C   UNK d   1      49.344 105.978  32.386  0.00  0.00     0.069 A 
ATOM     22 Cl   UNK d   1      48.593 107.559  32.443  0.00  0.00    -0.081 Cl
ATOM     23  C   UNK d   1      49.082 105.152  31.322  0.00  0.00     0.056 A 
BRANCH  20  24
ATOM     24  O   UNK d   1      50.469 106.397  34.492  0.00  0.00    -0.354 OA
ATOM     25  C   UNK d   1      51.737 106.340  35.104  0.00  0.00     0.210 C 
ENDBRANCH  20  24
ENDBRANCH  14  17
ENDBRANCH  12  13
ENDBRANCH   1  12
BRANCH   6  26
ATOM     26  N   UNK d   1      53.568  96.662  26.981  0.00  0.00    -0.210 N 
ATOM     27  C   UNK d   1      53.096  95.401  26.460  0.00  0.00     0.167 C 
ATOM     28  C   UNK d   1      54.108  94.878  25.442  0.00  0.00     0.188 C 
ATOM     29  O   UNK d   1      55.409  94.917  25.941  0.00  0.00    -0.388 OA
ATOM     30  C   UNK d   1      55.754  96.265  26.049  0.00  0.00     0.188 C 
ATOM     31  C   UNK d   1      54.980  96.807  27.251  0.00  0.00     0.167 C 
ENDBRANCH   6  26
TORSDOF 5
ENDMDL
