/Users/jonathanwahrer/Desktop/Msc/3_Semester/Drug_Design_Praktikum/waehrer_HTS_screening/HTS_experiment/out/docking_results/vina_output/3npc/1850_docked.pdbqt
 OpenBabel03192220483D

 24 27  0  0  0  0  0  0  0  0999 V2000
   51.5420   92.5450   18.5970 Cl  0  0  0  0  0  0  0  0  0  0  0  0
   53.0010   91.6900   18.1180 C   0  0  0  0  0  0  0  0  0  0  0  0
   53.9640   91.3690   19.0540 C   0  0  0  0  0  0  0  0  0  0  0  0
   55.0990   90.7050   18.6830 C   0  0  0  0  0  0  0  0  0  0  0  0
   55.2550   90.3660   17.3580 C   0  0  0  0  0  3  0  0  0  0  0  0
   54.3070   90.6770   16.4070 C   0  0  0  0  0  3  0  0  0  0  0  0
   53.1640   91.3480   16.7930 C   0  0  0  0  0  3  0  0  0  0  0  0
   56.1760   90.3250   19.6280 C   0  0  0  0  0  2  0  0  0  0  0  0
   55.6960   90.6100   20.9580 N   0  0  0  0  0  0  0  0  0  0  0  0
   55.0540   91.8880   21.1570 C   0  0  0  0  0  2  0  0  0  0  0  0
   53.6930   91.7850   20.4610 C   0  0  0  0  0  2  0  0  0  0  0  0
   55.8330   89.7010   22.0330 C   0  0  0  0  0  0  0  0  0  0  0  0
   55.3920   90.0110   23.1700 O   0  0  0  0  0  0  0  0  0  0  0  0
   56.4800   88.3740   21.8990 C   0  0  0  0  0  2  0  0  0  0  0  0
   55.6200   87.3320   22.2390 O   0  0  0  0  0  0  0  0  0  0  0  0
   54.7760   86.6930   21.3390 C   0  0  0  0  0  0  0  0  0  0  0  0
   54.7880   85.3480   21.2680 N   0  0  0  0  0  0  0  0  0  0  0  0
   54.0040   84.6780   20.4270 N   0  0  0  0  0  0  0  0  0  0  0  0
   53.1520   85.2930   19.5970 C   0  0  0  0  0  0  0  0  0  0  0  0
   53.8750   83.3560   20.2120 C   0  0  0  0  0  3  0  0  0  0  0  0
   52.4970   84.3670   18.8700 N   0  0  0  0  0  0  0  0  0  0  0  0
   53.1130   86.6820   19.6420 C   0  0  0  0  0  3  0  0  0  0  0  0
   52.9460   83.1970   19.2550 N   0  0  0  0  0  0  0  0  0  0  0  0
   53.9210   87.3760   20.5100 C   0  0  0  0  0  3  0  0  0  0  0  0
  2  1  1  0  0  0  0
  2  3  1  0  0  0  0
  3 11  1  0  0  0  0
  4  3  2  0  0  0  0
  4  8  1  0  0  0  0
  5  4  1  0  0  0  0
  6  7  1  0  0  0  0
  6  5  2  0  0  0  0
  7  2  2  0  0  0  0
  8  9  1  0  0  0  0
  9 10  1  0  0  0  0
  9 12  1  0  0  0  0
 11 10  1  0  0  0  0
 12 13  2  0  0  0  0
 14 12  1  0  0  0  0
 14 15  1  0  0  0  0
 16 15  1  0  0  0  0
 17 16  2  0  0  0  0
 18 17  1  0  0  0  0
 19 22  1  0  0  0  0
 19 18  1  0  0  0  0
 20 18  1  0  0  0  0
 21 23  1  0  0  0  0
 21 19  2  0  0  0  0
 22 24  2  0  0  0  0
 23 20  2  0  0  0  0
 24 16  1  0  0  0  0
M  END
>  <Pose>
1

>  <Score>
-8.943

$$$$
