/Users/jonathanwahrer/Desktop/Msc/3_Semester/Drug_Design_Praktikum/waehrer_HTS_screening/HTS_experiment/out/docking_results/vina_output/3npc/1856_docked.pdbqt
 OpenBabel03192220483D

 31 34  0  0  0  0  0  0  0  0999 V2000
   54.9680   91.3900   21.5720 C   0  0  0  0  0  0  0  0  0  0  0  0
   54.3570   90.8680   20.4970 N   0  0  0  0  0  4  0  0  0  0  0  0
   54.2190   89.5340   20.2770 C   0  0  0  0  0  0  0  0  0  0  0  0
   54.7530   88.7350   21.2390 N   0  0  0  0  0  0  0  0  0  0  0  0
   55.3750   89.1980   22.3340 C   0  0  0  0  0  0  0  0  0  0  0  0
   55.4680   90.5140   22.4770 N   0  0  0  0  0  2  0  0  0  0  0  0
   55.0860   92.7930   21.7570 N   0  0  0  0  0  0  0  0  0  0  0  0
   55.0070   93.4500   20.9560 H   0  0  0  0  0  0  0  0  0  0  0  0
   55.3120   93.3390   23.0210 N   0  0  0  0  0  0  0  0  0  0  0  0
   54.2960   93.9140   23.6280 C   0  0  0  0  0  3  0  0  0  0  0  0
   54.4870   94.4970   24.9460 C   0  0  0  0  0  0  0  0  0  0  0  0
   53.9550   95.7650   25.2230 C   0  0  0  0  0  3  0  0  0  0  0  0
   54.1240   96.3270   26.4530 C   0  0  0  0  0  0  0  0  0  0  0  0
   53.4030   98.0520   26.8340 Br  0  0  0  0  0  0  0  0  0  0  0  0
   54.8140   95.6690   27.4460 C   0  0  0  0  0  3  0  0  0  0  0  0
   55.3430   94.4280   27.2000 C   0  0  0  0  0  3  0  0  0  0  0  0
   55.1730   93.8430   25.9340 C   0  0  0  0  0  0  0  0  0  0  0  0
   55.7180   92.5930   25.7190 O   0  0  0  0  0  0  0  0  0  0  0  0
   56.2170   92.0640   26.4040 H   0  0  0  0  0  0  0  0  0  0  0  0
   53.5720   89.0190   19.1380 N   0  0  0  0  0  0  0  0  0  0  0  0
   53.0530   87.6850   19.1360 C   0  0  0  0  0  2  0  0  0  0  0  0
   51.5930   87.7730   18.7230 C   0  0  0  0  0  2  0  0  0  0  0  0
   51.5650   88.3740   17.4550 O   0  0  0  0  0  0  0  0  0  0  0  0
   51.9420   89.7140   17.5500 C   0  0  0  0  0  2  0  0  0  0  0  0
   53.4170   89.8130   17.9560 C   0  0  0  0  0  2  0  0  0  0  0  0
   55.9070   88.3080   23.2950 N   0  0  0  0  0  0  0  0  0  0  0  0
   57.0860   87.4990   23.0590 C   0  0  0  0  0  2  0  0  0  0  0  0
   57.8100   87.2580   24.3660 C   0  0  0  0  0  2  0  0  0  0  0  0
   57.0300   86.6770   25.3300 O   0  0  0  0  0  0  0  0  0  0  0  0
   55.6690   86.7310   25.0580 C   0  0  0  0  0  2  0  0  0  0  0  0
   55.2920   88.1420   24.6150 C   0  0  0  0  0  2  0  0  0  0  0  0
  1  7  1  0  0  0  0
  1  6  1  0  0  0  0
  2  1  2  0  0  0  0
  3  2  2  0  0  0  0
  3  4  1  0  0  0  0
  4  5  2  0  0  0  0
  5  6  1  0  0  0  0
  5 26  1  0  0  0  0
  7  9  1  0  0  0  0
  8  7  1  0  0  0  0
  9 10  2  0  0  0  0
 10 11  1  0  0  0  0
 11 12  2  0  0  0  0
 11 17  1  0  0  0  0
 12 13  1  0  0  0  0
 13 14  1  0  0  0  0
 13 15  2  0  0  0  0
 16 15  1  0  0  0  0
 17 16  2  0  0  0  0
 18 17  1  0  0  0  0
 18 19  1  0  0  0  0
 20  3  1  0  0  0  0
 21 20  1  0  0  0  0
 22 21  1  0  0  0  0
 23 24  1  0  0  0  0
 23 22  1  0  0  0  0
 24 25  1  0  0  0  0
 25 20  1  0  0  0  0
 26 31  1  0  0  0  0
 27 26  1  0  0  0  0
 27 28  1  0  0  0  0
 28 29  1  0  0  0  0
 30 29  1  0  0  0  0
 31 30  1  0  0  0  0
M  END
>  <Pose>
1

>  <Score>
-9.294

$$$$
