MODEL 1
REMARK VINA RESULT:    -8.442      0.000      0.000
REMARK INTER + INTRA:         -11.715
REMARK INTER:                 -10.910
REMARK INTRA:                  -0.805
REMARK UNBOUND:                -0.805
REMARK  5 active torsions:
REMARK  status: ('A' for Active; 'I' for Inactive)
REMARK    1  A    between atoms: C_4  and  C_8 
REMARK    2  A    between atoms: C_8  and  N_9 
REMARK    3  A    between atoms: C_13  and  N_14 
REMARK    4  A    between atoms: N_17  and  C_20 
REMARK    5  A    between atoms: C_20  and  C_21 
REMARK       I    between atoms: C_21  and  N_23 
ROOT
ATOM      1  N   UNK d   1      53.496  87.181  20.143  0.00  0.00    -0.168 N 
ATOM      2  C   UNK d   1      53.087  88.187  19.322  0.00  0.00     0.167 A 
ATOM      3  C   UNK d   1      53.954  89.235  19.486  0.00  0.00     0.185 A 
ATOM      4  N   UNK d   1      54.848  88.836  20.390  0.00  0.00    -0.044 NA
ATOM      5  C   UNK d   1      54.585  87.570  20.812  0.00  0.00     0.707 A 
ATOM      6  N   UNK d   1      53.740  90.359  18.782  0.00  0.00    -0.286 N 
ATOM      7  C   UNK d   1      52.692  90.475  17.922  0.00  0.00     0.330 A 
ATOM      8  O   UNK d   1      52.482  91.534  17.252  0.00  0.00    -0.246 OA
ATOM      9  N   UNK d   1      51.825  89.464  17.741  0.00  0.00    -0.273 N 
ATOM     10  C   UNK d   1      52.023  88.335  18.435  0.00  0.00     0.280 A 
ATOM     11  O   UNK d   1      51.197  87.415  18.245  0.00  0.00    -0.265 OA
ATOM     12  C   UNK d   1      54.620  91.489  18.923  0.00  0.00     0.163 C 
ATOM     13  H   UNK d   1      51.006  89.559  17.067  0.00  0.00     0.173 HD
ENDROOT
BRANCH   5  14
ATOM     14  N   UNK d   1      55.346  86.872  21.819  0.00  0.00    -0.212 N 
ATOM     15  C   UNK d   1      56.777  86.875  21.621  0.00  0.00     0.171 C 
ATOM     16  C   UNK d   1      57.545  86.211  22.736  0.00  0.00     0.293 C 
ATOM     17  N   UNK d   1      57.033  86.696  23.966  0.00  0.00     0.100 N 
ATOM     18  C   UNK d   1      55.678  86.310  24.177  0.00  0.00     0.293 C 
ATOM     19  C   UNK d   1      54.816  86.198  22.954  0.00  0.00     0.171 C 
BRANCH  17  20
ATOM     20  C   UNK d   1      57.277  88.097  24.105  0.00  0.00     0.374 C 
BRANCH  20  21
ATOM     21  C   UNK d   1      56.093  88.876  24.572  0.00  0.00     0.243 C 
ATOM     22  O   UNK d   1      55.594  88.777  25.704  0.00  0.00    -0.272 OA
ATOM     23  N   UNK d   1      55.542  89.780  23.604  0.00  0.00    -0.369 N 
ATOM     24  H   UNK d   1      54.878  89.456  22.865  0.00  0.00     0.159 HD
ATOM     25  H   UNK d   1      55.810  90.761  23.644  0.00  0.00     0.159 HD
ENDBRANCH  20  21
ENDBRANCH  17  20
ENDBRANCH   5  14
BRANCH   1  26
ATOM     26  C   UNK d   1      52.843  85.917  20.216  0.00  0.00     0.186 C 
BRANCH  26  27
ATOM     27  C   UNK d   1      53.493  84.812  19.463  0.00  0.00    -0.038 A 
ATOM     28  C   UNK d   1      53.534  84.903  18.064  0.00  0.00     0.032 A 
ATOM     29  C   UNK d   1      54.100  83.945  17.270  0.00  0.00     0.034 A 
ATOM     30 Cl   UNK d   1      54.164  84.054  15.513  0.00  0.00    -0.084 Cl
ATOM     31  C   UNK d   1      54.657  82.829  17.857  0.00  0.00     0.024 A 
ATOM     32  C   UNK d   1      54.621  82.731  19.233  0.00  0.00     0.002 A 
ATOM     33  C   UNK d   1      54.047  83.707  20.034  0.00  0.00     0.009 A 
ENDBRANCH  26  27
ENDBRANCH   1  26
TORSDOF 5
ENDMDL
