MODEL 1
REMARK VINA RESULT:    -7.824      0.000      0.000
REMARK INTER + INTRA:          -9.943
REMARK INTER:                  -9.196
REMARK INTRA:                  -0.747
REMARK UNBOUND:                -0.747
REMARK  3 active torsions:
REMARK  status: ('A' for Active; 'I' for Inactive)
REMARK    1  A    between atoms: C_4  and  C_8 
REMARK    2  A    between atoms: C_8  and  N_9 
REMARK       I    between atoms: N_16  and  C_19 
REMARK    3  A    between atoms: C_19  and  C_21 
ROOT
ATOM      1  N   UNK d   1      52.861  85.019  25.262  0.00  0.00    -0.264 N 
ATOM      2  C   UNK d   1      53.174  85.036  26.663  0.00  0.00     0.326 C 
ATOM      3  O   UNK d   1      52.309  85.042  27.600  0.00  0.00    -0.247 OA
ATOM      4  N   UNK d   1      54.590  85.044  26.823  0.00  0.00    -0.324 N 
ATOM      5  C   UNK d   1      55.120  85.534  25.570  0.00  0.00     0.119 C 
ATOM      6  C   UNK d   1      54.968  87.044  25.586  0.00  0.00     0.061 C 
ATOM      7  C   UNK d   1      55.104  87.498  24.137  0.00  0.00     0.129 C 
ATOM      8  N   UNK d   1      56.271  86.884  23.533  0.00  0.00    -0.346 N 
ATOM      9  C   UNK d   1      57.167  86.102  24.343  0.00  0.00     0.129 C 
ATOM     10  C   UNK d   1      56.510  85.151  25.289  0.00  0.00     0.061 C 
ATOM     11  C   UNK d   1      56.524  87.064  22.148  0.00  0.00     0.273 C 
ATOM     12  O   UNK d   1      57.547  86.519  21.622  0.00  0.00    -0.266 OA
ATOM     13  C   UNK d   1      54.123  85.017  24.600  0.00  0.00     0.256 C 
ATOM     14  O   UNK d   1      54.278  84.632  23.410  0.00  0.00    -0.270 OA
ATOM     15  H   UNK d   1      55.131  84.760  27.660  0.00  0.00     0.165 HD
ENDROOT
BRANCH   1  16
ATOM     16  C   UNK d   1      51.558  85.006  24.638  0.00  0.00     0.175 C 
BRANCH  16  17
ATOM     17  C   UNK d   1      51.203  83.683  24.081  0.00  0.00    -0.038 A 
ATOM     18  C   UNK d   1      51.182  82.555  24.868  0.00  0.00     0.032 A 
ATOM     19  C   UNK d   1      50.857  81.305  24.384  0.00  0.00     0.034 A 
ATOM     20 Cl   UNK d   1      50.831  79.872  25.393  0.00  0.00    -0.084 Cl
ATOM     21  C   UNK d   1      50.542  81.214  23.043  0.00  0.00     0.024 A 
ATOM     22  C   UNK d   1      50.560  82.337  22.242  0.00  0.00     0.002 A 
ATOM     23  C   UNK d   1      50.889  83.584  22.745  0.00  0.00     0.009 A 
ENDBRANCH  16  17
ENDBRANCH   1  16
BRANCH  11  24
ATOM     24  C   UNK d   1      55.672  87.849  21.272  0.00  0.00     0.141 A 
ATOM     25  N   UNK d   1      54.495  87.391  20.800  0.00  0.00    -0.253 NA
ATOM     26  C   UNK d   1      53.756  88.171  19.993  0.00  0.00     0.136 A 
ATOM     27  C   UNK d   1      54.154  89.437  19.620  0.00  0.00     0.135 A 
ATOM     28  N   UNK d   1      55.325  89.897  20.087  0.00  0.00    -0.269 NA
ATOM     29  C   UNK d   1      56.076  89.111  20.905  0.00  0.00     0.153 A 
ENDBRANCH  11  24
TORSDOF 3
ENDMDL
