MODEL 1
REMARK VINA RESULT:    -6.142      0.000      0.000
REMARK INTER + INTRA:          -6.748
REMARK INTER:                  -7.399
REMARK INTRA:                   0.651
REMARK UNBOUND:                 0.651
REMARK  4 active torsions:
REMARK  status: ('A' for Active; 'I' for Inactive)
REMARK    1  A    between atoms: C_5  and  C_8 
REMARK    2  A    between atoms: C_8  and  O_26 
REMARK    3  A    between atoms: N_9  and  C_18 
REMARK    4  A    between atoms: C_21  and  O_24 
ROOT
ATOM      1  C   UNK d   1      52.108  84.428  25.241  0.00  0.00     0.287 C 
ATOM      2  N   UNK d   1      51.679  83.626  26.319  0.00  0.00     0.042 N 
ATOM      3  C   UNK d   1      51.832  82.267  26.016  0.00  0.00     0.210 C 
ATOM      4  C   UNK d   1      51.564  81.074  26.488  0.00  0.00     0.030 C 
ATOM      5  C   UNK d   1      51.949  79.855  25.768  0.00  0.00     0.032 C 
ATOM      6  C   UNK d   1      52.936  79.914  24.697  0.00  0.00     0.024 C 
ATOM      7  C   UNK d   1      53.400  81.298  24.319  0.00  0.00     0.125 C 
ATOM      8  N   UNK d   1      52.450  82.283  24.698  0.00  0.00    -0.351 N 
ATOM      9  C   UNK d   1      51.834  83.452  24.083  0.00  0.00     0.151 C 
ATOM     10  C   UNK d   1      52.481  83.779  22.803  0.00  0.00     0.038 C 
ATOM     11  H   UNK d   1      50.568  83.712  26.226  0.00  0.00     0.299 HD
ENDROOT
BRANCH   1  12
ATOM     12  C   UNK d   1      53.503  84.858  25.194  0.00  0.00     0.008 A 
ATOM     13  C   UNK d   1      53.827  86.057  24.615  0.00  0.00     0.014 A 
ATOM     14  C   UNK d   1      55.144  86.504  24.528  0.00  0.00     0.024 A 
ATOM     15  C   UNK d   1      56.149  85.699  25.047  0.00  0.00     0.034 A 
ATOM     16 Cl   UNK d   1      57.836  86.170  24.984  0.00  0.00    -0.084 Cl
ATOM     17  C   UNK d   1      55.806  84.493  25.627  0.00  0.00     0.024 A 
ATOM     18  C   UNK d   1      54.501  84.052  25.713  0.00  0.00     0.014 A 
ENDBRANCH   1  12
BRANCH   1  19
ATOM     19  O   UNK d   1      51.231  85.471  25.053  0.00  0.00    -0.359 OA
ATOM     20  H   UNK d   1      50.342  85.378  25.441  0.00  0.00     0.213 HD
ENDBRANCH   1  19
BRANCH   2  21
ATOM     21  C   UNK d   1      51.845  84.122  27.608  0.00  0.00     0.146 A 
ATOM     22  C   UNK d   1      50.819  84.898  28.124  0.00  0.00     0.041 A 
ATOM     23  C   UNK d   1      50.864  85.457  29.378  0.00  0.00     0.039 A 
ATOM     24  C   UNK d   1      51.960  85.276  30.228  0.00  0.00     0.068 A 
ATOM     25  C   UNK d   1      52.961  84.504  29.692  0.00  0.00     0.039 A 
ATOM     26  C   UNK d   1      52.909  83.949  28.437  0.00  0.00     0.041 A 
BRANCH  24  27
ATOM     27  O   UNK d   1      51.992  85.839  31.489  0.00  0.00    -0.356 OA
ATOM     28  C   UNK d   1      51.052  85.437  32.452  0.00  0.00     0.210 C 
ENDBRANCH  24  27
ENDBRANCH   2  21
TORSDOF 4
ENDMDL
