MODEL 1
REMARK VINA RESULT:    -9.747      0.000      0.000
REMARK INTER + INTRA:         -12.003
REMARK INTER:                 -11.456
REMARK INTRA:                  -0.547
REMARK UNBOUND:                -0.547
REMARK  3 active torsions:
REMARK  status: ('A' for Active; 'I' for Inactive)
REMARK    1  A    between atoms: C_5  and  N_8 
REMARK    2  A    between atoms: N_15  and  C_16 
REMARK    3  A    between atoms: C_16  and  C_17 
ROOT
ATOM      1  N   UNK d   1      54.524  86.795  21.082  0.00  0.00    -0.241 N 
ATOM      2  C   UNK d   1      53.858  87.788  20.450  0.00  0.00     0.286 A 
ATOM      3  O   UNK d   1      54.027  89.003  20.684  0.00  0.00    -0.265 OA
ATOM      4  C   UNK d   1      52.972  87.276  19.518  0.00  0.00     0.154 A 
ATOM      5  C   UNK d   1      53.102  85.943  19.584  0.00  0.00     0.152 A 
ATOM      6  N   UNK d   1      52.240  85.456  18.674  0.00  0.00    -0.279 N 
ATOM      7  N   UNK d   1      51.611  86.454  18.081  0.00  0.00    -0.239 N 
ATOM      8  N   UNK d   1      52.051  87.585  18.590  0.00  0.00    -0.266 N 
ATOM      9  C   UNK d   1      54.053  85.664  20.542  0.00  0.00     0.286 A 
ATOM     10  O   UNK d   1      54.427  84.503  20.865  0.00  0.00    -0.265 OA
ATOM     11  H   UNK d   1      52.068  84.455  18.446  0.00  0.00     0.189 HD
ATOM     12  H   UNK d   1      50.874  86.369  17.320  0.00  0.00     0.208 HD
ENDROOT
BRANCH   1  13
ATOM     13  C   UNK d   1      55.514  86.924  22.101  0.00  0.00     0.046 A 
ATOM     14  C   UNK d   1      55.186  87.352  23.370  0.00  0.00     0.032 A 
ATOM     15  C   UNK d   1      56.138  87.479  24.363  0.00  0.00     0.026 A 
ATOM     16  C   UNK d   1      57.464  87.182  24.125  0.00  0.00     0.034 A 
ATOM     17 Cl   UNK d   1      58.676  87.345  25.394  0.00  0.00    -0.084 Cl
ATOM     18  C   UNK d   1      57.804  86.753  22.859  0.00  0.00     0.026 A 
ATOM     19  C   UNK d   1      56.845  86.629  21.872  0.00  0.00     0.032 A 
ENDBRANCH   1  13
BRANCH   8  20
ATOM     20  C   UNK d   1      51.633  88.921  18.237  0.00  0.00     0.189 C 
BRANCH  20  21
ATOM     21  C   UNK d   1      52.724  89.767  17.707  0.00  0.00    -0.038 A 
ATOM     22  C   UNK d   1      52.819  91.079  18.099  0.00  0.00     0.009 A 
ATOM     23  C   UNK d   1      53.840  91.849  17.591  0.00  0.00     0.001 A 
ATOM     24  C   UNK d   1      54.763  91.330  16.702  0.00  0.00     0.000 A 
ATOM     25  C   UNK d   1      54.668  90.014  16.307  0.00  0.00     0.001 A 
ATOM     26  C   UNK d   1      53.648  89.262  16.821  0.00  0.00     0.009 A 
ENDBRANCH  20  21
ENDBRANCH   8  20
TORSDOF 3
ENDMDL
