/Users/jonathanwahrer/Desktop/Msc/3_Semester/Drug_Design_Praktikum/waehrer_HTS_screening/HTS_experiment/out/docking_results/vina_output/3npc/1894_docked.pdbqt
 OpenBabel03192220493D

 26 29  0  0  0  0  0  0  0  0999 V2000
   54.5240   86.7950   21.0820 N   0  0  0  0  0  0  0  0  0  0  0  0
   53.8580   87.7880   20.4500 C   0  0  0  0  0  0  0  0  0  0  0  0
   54.0270   89.0030   20.6840 O   0  0  0  0  0  0  0  0  0  0  0  0
   52.9720   87.2760   19.5180 C   0  0  0  0  0  0  0  0  0  0  0  0
   53.1020   85.9430   19.5840 C   0  0  0  0  0  0  0  0  0  0  0  0
   52.2400   85.4560   18.6740 N   0  0  0  0  0  0  0  0  0  0  0  0
   51.6110   86.4540   18.0810 N   0  0  0  0  0  0  0  0  0  0  0  0
   52.0510   87.5850   18.5900 N   0  0  0  0  0  0  0  0  0  0  0  0
   54.0530   85.6640   20.5420 C   0  0  0  0  0  0  0  0  0  0  0  0
   54.4270   84.5030   20.8650 O   0  0  0  0  0  0  0  0  0  0  0  0
   52.0680   84.4550   18.4460 H   0  0  0  0  0  0  0  0  0  0  0  0
   50.8740   86.3690   17.3200 H   0  0  0  0  0  0  0  0  0  0  0  0
   55.5140   86.9240   22.1010 C   0  0  0  0  0  0  0  0  0  0  0  0
   55.1860   87.3520   23.3700 C   0  0  0  0  0  3  0  0  0  0  0  0
   56.1380   87.4790   24.3630 C   0  0  0  0  0  3  0  0  0  0  0  0
   57.4640   87.1820   24.1250 C   0  0  0  0  0  0  0  0  0  0  0  0
   58.6760   87.3450   25.3940 Cl  0  0  0  0  0  0  0  0  0  0  0  0
   57.8040   86.7530   22.8590 C   0  0  0  0  0  3  0  0  0  0  0  0
   56.8450   86.6290   21.8720 C   0  0  0  0  0  3  0  0  0  0  0  0
   51.6330   88.9210   18.2370 C   0  0  0  0  0  2  0  0  0  0  0  0
   52.7240   89.7670   17.7070 C   0  0  0  0  0  0  0  0  0  0  0  0
   52.8190   91.0790   18.0990 C   0  0  0  0  0  3  0  0  0  0  0  0
   53.8400   91.8490   17.5910 C   0  0  0  0  0  3  0  0  0  0  0  0
   54.7630   91.3300   16.7020 C   0  0  0  0  0  3  0  0  0  0  0  0
   54.6680   90.0140   16.3070 C   0  0  0  0  0  3  0  0  0  0  0  0
   53.6480   89.2620   16.8210 C   0  0  0  0  0  3  0  0  0  0  0  0
  1 13  1  0  0  0  0
  2  3  2  0  0  0  0
  2  1  1  0  0  0  0
  4  5  2  0  0  0  0
  4  2  1  0  0  0  0
  5  9  1  0  0  0  0
  6  5  1  0  0  0  0
  7  8  1  0  0  0  0
  7  6  1  0  0  0  0
  8  4  1  0  0  0  0
  9 10  2  0  0  0  0
  9  1  1  0  0  0  0
 11  6  1  0  0  0  0
 12  7  1  0  0  0  0
 13 14  1  0  0  0  0
 14 15  2  0  0  0  0
 16 15  1  0  0  0  0
 16 17  1  0  0  0  0
 18 16  2  0  0  0  0
 19 13  2  0  0  0  0
 19 18  1  0  0  0  0
 20  8  1  0  0  0  0
 21 22  1  0  0  0  0
 21 20  1  0  0  0  0
 23 22  2  0  0  0  0
 24 23  1  0  0  0  0
 25 24  2  0  0  0  0
 25 26  1  0  0  0  0
 26 21  2  0  0  0  0
M  END
>  <Pose>
1

>  <Score>
-9.747

$$$$
