/Users/jonathanwahrer/Desktop/Msc/3_Semester/Drug_Design_Praktikum/waehrer_HTS_screening/HTS_experiment/out/docking_results/vina_output/3npc/1906_docked.pdbqt
 OpenBabel03192220503D

 33 36  0  0  1  0  0  0  0  0999 V2000
   55.5030   87.5180   23.2930 C   0  0  1  0  0  0  0  0  0  0  0  0
   56.5460   86.8730   22.6130 O   0  0  0  0  0  0  0  0  0  0  0  0
   57.6840   86.6980   23.3510 C   0  0  0  0  0  2  0  0  0  0  0  0
   57.5530   85.6720   24.4580 C   0  0  0  0  0  2  0  0  0  0  0  0
   56.1830   85.8950   24.9890 N   0  0  0  0  0  0  0  0  0  0  0  0
   55.6810   87.1990   24.7890 C   0  0  0  0  0  2  0  0  0  0  0  0
   55.5470   84.8400   25.6100 C   0  0  0  0  0  0  0  0  0  0  0  0
   56.1430   83.6900   25.7220 O   0  0  0  0  0  0  0  0  0  0  0  0
   55.7730   88.9890   23.1560 C   0  0  0  0  0  2  0  0  0  0  0  0
   55.7840   89.5730   21.9790 O   0  0  0  0  0  0  0  0  0  0  0  0
   55.2030   90.2300   21.0190 C   0  0  0  0  0  0  0  0  0  0  0  0
   55.1400   89.8290   19.7090 C   0  0  0  0  0  3  0  0  0  0  0  0
   54.5040   90.5990   18.7730 C   0  0  0  0  0  0  0  0  0  0  0  0
   54.4430   90.0520   17.0970 Cl  0  0  0  0  0  0  0  0  0  0  0  0
   53.9040   91.7990   19.1050 C   0  0  0  0  0  3  0  0  0  0  0  0
   53.9630   92.2020   20.4130 C   0  0  0  0  0  3  0  0  0  0  0  0
   54.5890   91.4530   21.3540 C   0  0  0  0  0  3  0  0  0  0  0  0
   54.2340   87.0260   22.7640 C   0  0  0  0  0  2  0  0  0  0  0  0
   54.2390   85.8130   21.9440 C   0  0  0  0  0  0  0  0  0  0  0  0
   54.5750   84.7150   22.4260 O   0  0  0  0  0  0  0  0  0  0  0  0
   53.8620   85.8440   20.5710 N   0  0  0  0  0  0  0  0  0  0  0  0
   53.4560   87.0850   19.9200 C   0  0  0  0  0  2  0  0  0  0  0  0
   53.8660   84.6480   19.7540 C   0  0  0  0  0  2  0  0  0  0  0  0
   52.1820   86.7900   19.1570 C   0  0  0  0  0  2  0  0  0  0  0  0
   52.4300   85.7580   18.2470 O   0  0  0  0  0  0  0  0  0  0  0  0
   52.6040   84.5710   18.9580 C   0  0  0  0  0  2  0  0  0  0  0  0
   54.2320   84.8890   26.1710 C   0  0  0  0  0  0  0  0  0  0  0  0
   53.1230   85.0550   25.4500 N   0  0  0  0  0  0  0  0  0  0  0  0
   51.8810   85.1010   25.9710 C   0  0  0  0  0  3  0  0  0  0  0  0
   51.7140   84.9710   27.3410 C   0  0  0  0  0  0  0  0  0  0  0  0
   52.7930   84.8030   28.0890 N   0  0  0  0  0  0  0  0  0  0  0  0
   50.3260   85.0290   27.8600 C   0  0  0  0  0  1  0  0  0  0  0  0
   54.0210   84.7610   27.5480 C   0  0  0  0  0  3  0  0  0  0  0  0
  1 18  1  6  0  0  0
  1  6  1  0  0  0  0
  2  1  1  0  0  0  0
  2  3  1  0  0  0  0
  3  4  1  0  0  0  0
  4  5  1  0  0  0  0
  5  7  1  0  0  0  0
  6  5  1  0  0  0  0
  7  8  2  0  0  0  0
  7 27  1  0  0  0  0
  9  1  1  0  0  0  0
 10  9  1  0  0  0  0
 11 17  1  0  0  0  0
 11 10  1  0  0  0  0
 12 11  2  0  0  0  0
 13 15  2  0  0  0  0
 13 12  1  0  0  0  0
 14 13  1  0  0  0  0
 15 16  1  0  0  0  0
 16 17  2  0  0  0  0
 19 20  2  0  0  0  0
 19 18  1  0  0  0  0
 21 19  1  0  0  0  0
 22 21  1  0  0  0  0
 23 21  1  0  0  0  0
 24 22  1  0  0  0  0
 25 26  1  0  0  0  0
 25 24  1  0  0  0  0
 26 23  1  0  0  0  0
 27 33  1  0  0  0  0
 28 29  1  0  0  0  0
 28 27  2  0  0  0  0
 29 30  2  0  0  0  0
 30 32  1  0  0  0  0
 30 31  1  0  0  0  0
 33 31  2  0  0  0  0
M  END
>  <Pose>
1

>  <Score>
-8.156

$$$$
