MODEL 1
REMARK VINA RESULT:    -8.156      0.000      0.000
REMARK INTER + INTRA:         -12.279
REMARK INTER:                 -11.016
REMARK INTRA:                  -1.263
REMARK UNBOUND:                -1.263
REMARK  6 active torsions:
REMARK  status: ('A' for Active; 'I' for Inactive)
REMARK    1  A    between atoms: C_4  and  O_8 
REMARK    2  A    between atoms: O_8  and  C_9 
REMARK    3  A    between atoms: C_9  and  C_10 
REMARK    4  A    between atoms: C_10  and  C_25 
REMARK       I    between atoms: N_14  and  C_16 
REMARK    5  A    between atoms: C_16  and  C_18 
REMARK    6  A    between atoms: C_25  and  C_26 
REMARK       I    between atoms: C_26  and  N_28 
ROOT
ATOM      1  C   UNK d   1      55.503  87.518  23.293  0.00  0.00     0.107 C 
ATOM      2  O   UNK d   1      56.546  86.873  22.613  0.00  0.00    -0.374 OA
ATOM      3  C   UNK d   1      57.684  86.698  23.351  0.00  0.00     0.189 C 
ATOM      4  C   UNK d   1      57.553  85.672  24.458  0.00  0.00     0.151 C 
ATOM      5  N   UNK d   1      56.183  85.895  24.989  0.00  0.00    -0.353 N 
ATOM      6  C   UNK d   1      55.681  87.199  24.789  0.00  0.00     0.165 C 
ATOM      7  C   UNK d   1      55.547  84.840  25.610  0.00  0.00     0.207 C 
ATOM      8  O   UNK d   1      56.143  83.690  25.722  0.00  0.00    -0.170 OA
ENDROOT
BRANCH   1   9
ATOM      9  C   UNK d   1      55.773  88.989  23.156  0.00  0.00     0.215 C 
BRANCH   9  10
ATOM     10  O   UNK d   1      55.784  89.573  21.979  0.00  0.00    -0.348 OA
BRANCH  10  11
ATOM     11  C   UNK d   1      55.203  90.230  21.019  0.00  0.00     0.070 A 
ATOM     12  C   UNK d   1      55.140  89.829  19.709  0.00  0.00     0.060 A 
ATOM     13  C   UNK d   1      54.504  90.599  18.773  0.00  0.00     0.036 A 
ATOM     14 Cl   UNK d   1      54.443  90.052  17.097  0.00  0.00    -0.084 Cl
ATOM     15  C   UNK d   1      53.904  91.799  19.105  0.00  0.00     0.024 A 
ATOM     16  C   UNK d   1      53.963  92.202  20.413  0.00  0.00     0.004 A 
ATOM     17  C   UNK d   1      54.589  91.453  21.354  0.00  0.00     0.037 A 
ENDBRANCH  10  11
ENDBRANCH   9  10
ENDBRANCH   1   9
BRANCH   1  18
ATOM     18  C   UNK d   1      54.234  87.026  22.764  0.00  0.00     0.144 C 
BRANCH  18  19
ATOM     19  C   UNK d   1      54.239  85.813  21.944  0.00  0.00     0.222 C 
ATOM     20  O   UNK d   1      54.575  84.715  22.426  0.00  0.00    -0.273 OA
ATOM     21  N   UNK d   1      53.862  85.844  20.571  0.00  0.00    -0.348 N 
ATOM     22  C   UNK d   1      53.456  87.085  19.920  0.00  0.00     0.152 C 
ATOM     23  C   UNK d   1      53.866  84.648  19.754  0.00  0.00     0.152 C 
ATOM     24  C   UNK d   1      52.182  86.790  19.157  0.00  0.00     0.187 C 
ATOM     25  O   UNK d   1      52.430  85.758  18.247  0.00  0.00    -0.388 OA
ATOM     26  C   UNK d   1      52.604  84.571  18.958  0.00  0.00     0.187 C 
ENDBRANCH  18  19
ENDBRANCH   1  18
BRANCH   7  27
ATOM     27  C   UNK d   1      54.232  84.889  26.171  0.00  0.00     0.127 A 
ATOM     28  N   UNK d   1      53.123  85.055  25.450  0.00  0.00    -0.253 NA
ATOM     29  C   UNK d   1      51.881  85.101  25.971  0.00  0.00     0.144 A 
ATOM     30  C   UNK d   1      51.714  84.971  27.341  0.00  0.00     0.048 A 
ATOM     31  N   UNK d   1      52.793  84.803  28.089  0.00  0.00    -0.262 NA
ATOM     32  C   UNK d   1      50.326  85.029  27.860  0.00  0.00     0.072 C 
ATOM     33  C   UNK d   1      54.021  84.761  27.548  0.00  0.00     0.153 A 
ENDBRANCH   7  27
TORSDOF 6
ENDMDL
