/Users/jonathanwahrer/Desktop/Msc/3_Semester/Drug_Design_Praktikum/waehrer_HTS_screening/HTS_experiment/out/docking_results/vina_output/3npc/1913_docked.pdbqt
 OpenBabel03192220513D

 29 32  0  0  1  0  0  0  0  0999 V2000
   55.1600   86.1160   21.8890 N   0  0  0  0  0  0  0  0  0  0  0  0
   56.4950   86.5540   21.5510 C   0  0  0  0  0  2  0  0  0  0  0  0
   57.2720   87.0690   22.7320 C   0  0  0  0  0  2  0  0  0  0  0  0
   56.4090   87.9760   23.5380 C   0  0  2  0  0  3  0  0  0  0  0  0
   55.2650   87.2110   24.1080 C   0  0  0  0  0  3  0  0  0  0  0  0
   54.5840   86.2620   23.1900 C   0  0  0  0  0  3  0  0  0  0  0  0
   56.0400   89.1960   22.8190 C   0  0  0  0  0  0  0  0  0  0  0  0
   55.3480   90.0560   23.4160 O   0  0  0  0  0  0  0  0  0  0  0  0
   56.4240   89.4530   21.4870 N   0  0  0  0  0  0  0  0  0  0  0  0
   57.0100   88.7270   20.9820 H   0  0  0  0  0  0  0  0  0  0  0  0
   56.0660   90.6520   20.7650 C   0  0  0  0  0  2  0  0  0  0  0  0
   55.8510   90.4300   19.2950 C   0  0  0  0  0  2  0  0  0  0  0  0
   54.4360   90.4060   18.9730 N   0  0  0  0  0  0  0  0  0  0  0  0
   54.1820   90.4720   17.5730 C   0  0  0  0  0  2  0  0  0  0  0  0
   53.5910   91.8180   17.2050 C   0  0  0  0  0  2  0  0  0  0  0  0
   52.3760   91.9290   17.8330 O   0  0  0  0  0  0  0  0  0  0  0  0
   52.3770   91.7380   19.1890 C   0  0  0  0  0  2  0  0  0  0  0  0
   53.6580   91.2680   19.7860 C   0  0  0  0  0  2  0  0  0  0  0  0
   54.3880   85.5120   20.8760 C   0  0  0  0  0  0  0  0  0  0  0  0
   53.4690   86.2420   20.1690 C   0  0  0  0  0  0  0  0  0  0  0  0
   52.7180   85.6440   19.1470 C   0  0  0  0  0  0  0  0  0  0  0  0
   53.0660   87.5210   20.2280 N   0  0  0  0  0  0  0  0  0  0  0  0
   52.9330   84.3490   18.8970 N   0  0  0  0  0  4  0  0  0  0  0  0
   51.8960   86.5400   18.6160 N   0  0  0  0  0  0  0  0  0  0  0  0
   53.8250   83.6280   19.5780 C   0  0  0  0  0  0  0  0  0  0  0  0
   54.0540   81.9520   19.1990 Cl  0  0  0  0  0  0  0  0  0  0  0  0
   54.5440   84.1940   20.5520 N   0  0  0  0  0  2  0  0  0  0  0  0
   52.1250   87.6760   19.2880 C   0  0  0  0  0  3  0  0  0  0  0  0
   53.4420   88.2280   20.9030 H   0  0  0  0  0  0  0  0  0  0  0  0
  1  6  1  0  0  0  0
  2  1  1  0  0  0  0
  2  3  1  0  0  0  0
  3  4  1  0  0  0  0
  4  7  1  6  0  0  0
  4  5  1  0  0  0  0
  6  5  2  0  0  0  0
  7  8  2  0  0  0  0
  9  7  1  0  0  0  0
 10  9  1  0  0  0  0
 11  9  1  0  0  0  0
 12 11  1  0  0  0  0
 13 12  1  0  0  0  0
 13 18  1  0  0  0  0
 14 13  1  0  0  0  0
 15 14  1  0  0  0  0
 15 16  1  0  0  0  0
 16 17  1  0  0  0  0
 17 18  1  0  0  0  0
 19  1  1  0  0  0  0
 20 22  1  0  0  0  0
 20 19  2  0  0  0  0
 21 20  1  0  0  0  0
 22 29  1  0  0  0  0
 23 21  2  0  0  0  0
 23 25  2  0  0  0  0
 24 21  1  0  0  0  0
 24 28  2  0  0  0  0
 25 27  1  0  0  0  0
 26 25  1  0  0  0  0
 27 19  1  0  0  0  0
 28 22  1  0  0  0  0
M  END
>  <Pose>
1

>  <Score>
-8.478

$$$$
