/Users/jonathanwahrer/Desktop/Msc/3_Semester/Drug_Design_Praktikum/waehrer_HTS_screening/HTS_experiment/out/docking_results/vina_output/3npc/1928_docked.pdbqt
 OpenBabel03192220513D

 28 31  0  0  0  0  0  0  0  0999 V2000
   55.5940   89.1910   20.5190 N   0  0  0  0  0  0  0  0  0  0  0  0
   54.4620   88.5600   20.1440 C   0  0  0  0  0  2  0  0  0  0  0  0
   54.1800   87.2950   20.5920 C   0  0  0  0  0  0  0  0  0  0  0  0
   55.1270   86.6260   21.4910 C   0  0  0  0  0  0  0  0  0  0  0  0
   54.6020   85.4130   21.7680 N   0  0  0  0  0  2  0  0  0  0  0  0
   53.4530   85.2810   21.1380 N   0  0  0  0  0  0  0  0  0  0  0  0
   53.1490   86.3730   20.4210 C   0  0  0  0  0  0  0  0  0  0  0  0
   52.1340   86.5700   19.7110 O   0  0  0  0  0  0  0  0  0  0  0  0
   56.2700   87.3110   21.8470 C   0  0  0  0  0  0  0  0  0  0  0  0
   56.4410   88.5670   21.3350 C   0  0  0  0  0  3  0  0  0  0  0  0
   52.8560   84.4350   21.1920 H   0  0  0  0  0  0  0  0  0  0  0  0
   55.8430   90.5410   20.0090 C   0  0  0  0  0  2  0  0  0  0  0  0
   55.2510   91.5390   20.9200 C   0  0  0  0  0  0  0  0  0  0  0  0
   54.0150   91.9690   20.8480 O   0  0  0  0  0  0  0  0  0  0  0  0
   53.8160   92.8390   21.7920 N   0  0  0  0  0  0  0  0  0  0  0  0
   54.9340   93.0020   22.5160 C   0  0  0  0  0  0  0  0  0  0  0  0
   55.8390   92.1810   21.9650 N   0  0  0  0  0  0  0  0  0  0  0  0
   55.0830   93.8970   23.6550 C   0  0  0  0  0  0  0  0  0  0  0  0
   56.3080   94.4020   24.0230 C   0  0  0  0  0  3  0  0  0  0  0  0
   56.4610   95.2520   25.1020 C   0  0  0  0  0  3  0  0  0  0  0  0
   55.3640   95.6260   25.8570 C   0  0  0  0  0  0  0  0  0  0  0  0
   55.5320   96.7050   27.2320 Cl  0  0  0  0  0  0  0  0  0  0  0  0
   54.1260   95.1190   25.4890 C   0  0  0  0  0  3  0  0  0  0  0  0
   53.9850   94.2680   24.4050 C   0  0  0  0  0  3  0  0  0  0  0  0
   57.2380   86.6770   22.7420 C   0  0  0  0  0  0  0  0  0  0  0  0
   58.1640   85.9890   22.2890 O   0  0  0  0  0  0  0  0  0  0  0  0
   57.1450   86.8250   24.1160 O   0  0  0  0  0  0  0  0  0  0  0  0
   57.2410   88.0650   24.7750 C   0  0  0  0  0  1  0  0  0  0  0  0
  1 10  1  0  0  0  0
  2  1  1  0  0  0  0
  2  3  1  0  0  0  0
  3  4  2  0  0  0  0
  4  5  1  0  0  0  0
  4  9  1  0  0  0  0
  6 11  1  0  0  0  0
  6  5  1  0  0  0  0
  7  3  1  0  0  0  0
  7  6  1  0  0  0  0
  8  7  2  0  0  0  0
  9 25  1  0  0  0  0
 10  9  2  0  0  0  0
 12  1  1  0  0  0  0
 12 13  1  0  0  0  0
 13 17  2  0  0  0  0
 14 13  1  0  0  0  0
 14 15  1  0  0  0  0
 15 16  2  0  0  0  0
 16 18  1  0  0  0  0
 17 16  1  0  0  0  0
 18 19  2  0  0  0  0
 18 24  1  0  0  0  0
 19 20  1  0  0  0  0
 20 21  2  0  0  0  0
 21 22  1  0  0  0  0
 23 21  1  0  0  0  0
 24 23  2  0  0  0  0
 25 27  1  0  0  0  0
 26 25  2  0  0  0  0
 27 28  1  0  0  0  0
M  END
>  <Pose>
1

>  <Score>
-9.161

$$$$
