MODEL 1
REMARK VINA RESULT:    -8.664      0.000      0.000
REMARK INTER + INTRA:         -11.296
REMARK INTER:                 -10.943
REMARK INTRA:                  -0.352
REMARK UNBOUND:                -0.352
REMARK  5 active torsions:
REMARK  status: ('A' for Active; 'I' for Inactive)
REMARK    1  A    between atoms: C_6  and  C_12 
REMARK    2  A    between atoms: C_12  and  C_13 
REMARK    3  A    between atoms: C_13  and  C_14 
REMARK       I    between atoms: C_14  and  N_16 
REMARK    4  A    between atoms: C_18  and  N_24 
REMARK    5  A    between atoms: C_19  and  O_22 
ROOT
ATOM      1  C   UNK d   1      53.238  85.343  26.205  0.00  0.00     0.220 C 
ATOM      2  O   UNK d   1      52.373  85.386  25.293  0.00  0.00    -0.273 OA
ATOM      3  N   UNK d   1      53.021  84.526  27.330  0.00  0.00    -0.350 N 
ATOM      4  C   UNK d   1      51.816  83.711  27.489  0.00  0.00     0.154 C 
ATOM      5  C   UNK d   1      51.099  84.286  28.694  0.00  0.00     0.146 C 
ATOM      6  C   UNK d   1      52.005  84.308  29.902  0.00  0.00     0.078 C 
ATOM      7  C   UNK d   1      53.351  83.653  29.571  0.00  0.00     0.059 C 
ATOM      8  C   UNK d   1      53.975  84.424  28.421  0.00  0.00     0.129 C 
ATOM      9  C   UNK d   1      51.409  83.664  31.117  0.00  0.00     0.048 C 
ENDROOT
BRANCH   1  10
ATOM     10  C   UNK d   1      54.467  86.160  26.067  0.00  0.00     0.110 C 
BRANCH  10  11
ATOM     11  C   UNK d   1      55.335  85.746  24.924  0.00  0.00     0.088 C 
BRANCH  11  12
ATOM     12  C   UNK d   1      55.276  86.666  23.761  0.00  0.00     0.107 A 
ATOM     13  N   UNK d   1      54.585  86.543  22.615  0.00  0.00    -0.233 NA
ATOM     14  C   UNK d   1      54.799  87.594  21.807  0.00  0.00     0.087 A 
ATOM     15  C   UNK d   1      54.364  87.984  20.549  0.00  0.00     0.057 A 
ATOM     16  C   UNK d   1      55.671  88.432  22.471  0.00  0.00     0.064 A 
ATOM     17  C   UNK d   1      54.766  89.154  19.958  0.00  0.00     0.036 A 
ATOM     18 Cl   UNK d   1      54.220  89.657  18.365  0.00  0.00    -0.084 Cl
ATOM     19  C   UNK d   1      55.638  89.968  20.649  0.00  0.00     0.026 A 
ATOM     20  C   UNK d   1      56.101  89.617  21.913  0.00  0.00     0.034 A 
ATOM     21  N   UNK d   1      55.943  87.850  23.645  0.00  0.00    -0.338 N 
ATOM     22  C   UNK d   1      56.819  88.350  24.703  0.00  0.00     0.158 C 
ENDBRANCH  11  12
ENDBRANCH  10  11
ENDBRANCH   1  10
BRANCH   5  23
ATOM     23  N   UNK d   1      49.809  83.741  28.929  0.00  0.00    -0.300 N 
ATOM     24  C   UNK d   1      49.574  82.398  28.846  0.00  0.00     0.108 A 
ATOM     25  C   UNK d   1      48.322  81.867  29.073  0.00  0.00     0.022 A 
ATOM     26  C   UNK d   1      47.277  82.705  29.393  0.00  0.00     0.256 A 
ATOM     27  C   UNK d   1      48.033  80.413  28.991  0.00  0.00     0.056 C 
ATOM     28  O   UNK d   1      46.102  82.252  29.611  0.00  0.00    -0.267 OA
ATOM     29  N   UNK d   1      47.516  84.025  29.472  0.00  0.00    -0.275 N 
ATOM     30  C   UNK d   1      48.772  84.505  29.239  0.00  0.00     0.329 A 
ATOM     31  H   UNK d   1      46.732  84.660  29.713  0.00  0.00     0.173 HD
ATOM     32  O   UNK d   1      48.934  85.742  29.327  0.00  0.00    -0.246 OA
ENDBRANCH   5  23
BRANCH   6  33
ATOM     33  O   UNK d   1      52.347  85.627  30.286  0.00  0.00    -0.388 OA
ATOM     34  H   UNK d   1      53.195  85.831  29.821  0.00  0.00     0.210 HD
ENDBRANCH   6  33
TORSDOF 5
ENDMDL
