/Users/jonathanwahrer/Desktop/Msc/3_Semester/Drug_Design_Praktikum/waehrer_HTS_screening/HTS_experiment/out/docking_results/vina_output/3npc/1936_docked.pdbqt
 OpenBabel03192220523D

 25 28  0  0  0  0  0  0  0  0999 V2000
   55.0450   91.3500   22.6480 N   0  0  0  0  0  0  0  0  0  0  0  0
   55.6520   90.3070   21.9220 C   0  0  0  0  0  0  0  0  0  0  0  0
   56.3030   90.6110   20.9080 O   0  0  0  0  0  0  0  0  0  0  0  0
   54.4920   91.1160   23.5050 H   0  0  0  0  0  0  0  0  0  0  0  0
   55.1520   92.7440   22.2560 C   0  0  0  0  0  2  0  0  0  0  0  0
   55.0020   93.6270   23.4640 C   0  0  0  0  0  0  0  0  0  0  0  0
   53.8520   94.0770   24.0000 N   0  0  0  0  0  0  0  0  0  0  0  0
   54.0990   94.8450   25.0770 C   0  0  0  0  0  0  0  0  0  0  0  0
   53.3380   95.5440   25.9880 C   0  0  0  0  0  3  0  0  0  0  0  0
   55.4880   94.8840   25.2340 C   0  0  0  0  0  0  0  0  0  0  0  0
   53.8670   96.2760   27.0370 C   0  0  0  0  0  0  0  0  0  0  0  0
   52.8480   97.1530   28.1760 Cl  0  0  0  0  0  0  0  0  0  0  0  0
   55.2530   96.2980   27.1690 C   0  0  0  0  0  3  0  0  0  0  0  0
   56.0270   95.6070   26.2720 C   0  0  0  0  0  3  0  0  0  0  0  0
   55.9810   94.1300   24.2320 N   0  0  0  0  0  0  0  0  0  0  0  0
   56.9990   93.9580   24.0690 H   0  0  0  0  0  0  0  0  0  0  0  0
   55.5440   88.8910   22.3150 C   0  0  0  0  0  0  0  0  0  0  0  0
   55.0690   87.9570   21.2720 C   0  0  0  0  0  2  0  0  0  0  0  0
   56.5190   87.9310   21.5520 C   0  0  0  0  0  2  0  0  0  0  0  0
   55.4570   88.5430   23.7020 N   0  0  0  0  0  0  0  0  0  0  0  0
   56.5770   88.8550   24.4990 C   0  0  0  0  0  2  0  0  0  0  0  0
   57.4240   87.5940   24.6230 C   0  0  0  0  0  2  0  0  0  0  0  0
   56.7660   86.6580   25.3860 O   0  0  0  0  0  0  0  0  0  0  0  0
   55.3960   86.7070   25.3110 C   0  0  0  0  0  2  0  0  0  0  0  0
   54.9010   87.2880   24.0020 C   0  0  0  0  0  2  0  0  0  0  0  0
  1  4  1  0  0  0  0
  2 17  1  0  0  0  0
  2  1  1  0  0  0  0
  3  2  2  0  0  0  0
  5  1  1  0  0  0  0
  5  6  1  0  0  0  0
  6  7  2  0  0  0  0
  6 15  1  0  0  0  0
  7  8  1  0  0  0  0
  8 10  2  0  0  0  0
  8  9  1  0  0  0  0
  9 11  2  0  0  0  0
 10 14  1  0  0  0  0
 11 13  1  0  0  0  0
 11 12  1  0  0  0  0
 14 13  2  0  0  0  0
 15 10  1  0  0  0  0
 16 15  1  0  0  0  0
 17 20  1  0  0  0  0
 18 19  1  0  0  0  0
 18 17  1  0  0  0  0
 19 17  1  0  0  0  0
 20 25  1  0  0  0  0
 20 21  1  0  0  0  0
 21 22  1  0  0  0  0
 22 23  1  0  0  0  0
 24 23  1  0  0  0  0
 25 24  1  0  0  0  0
M  END
>  <Pose>
1

>  <Score>
-9.084

$$$$
