MODEL 1
REMARK VINA RESULT:    -8.339      0.000      0.000
REMARK INTER + INTRA:          -8.250
REMARK INTER:                 -10.776
REMARK INTRA:                   2.527
REMARK UNBOUND:                 2.527
REMARK  5 active torsions:
REMARK  status: ('A' for Active; 'I' for Inactive)
REMARK    1  A    between atoms: C_3  and  C_8 
REMARK    2  A    between atoms: C_8  and  N_9 
REMARK       I    between atoms: N_9  and  C_10 
REMARK    3  A    between atoms: C_10  and  C_12 
REMARK    4  A    between atoms: C_12  and  N_13 
REMARK       I    between atoms: N_16  and  C_19 
REMARK    5  A    between atoms: C_19  and  C_21 
ROOT
ATOM      1  N   UNK d   1      53.453  84.132  21.078  0.00  0.00     0.100 N 
ATOM      2  C   UNK d   1      53.037  82.862  21.454  0.00  0.00     0.293 C 
ATOM      3  C   UNK d   1      52.701  82.067  20.121  0.00  0.00     0.156 C 
ATOM      4  N   UNK d   1      53.611  82.696  19.201  0.00  0.00    -0.346 N 
ATOM      5  C   UNK d   1      53.042  83.978  18.692  0.00  0.00     0.156 C 
ATOM      6  C   UNK d   1      52.593  84.653  19.958  0.00  0.00     0.293 C 
ATOM      7  C   UNK d   1      54.791  82.169  18.770  0.00  0.00     0.251 C 
ATOM      8  O   UNK d   1      55.687  82.982  18.357  0.00  0.00    -0.270 OA
ENDROOT
BRANCH   1   9
ATOM      9  C   UNK d   1      53.602  85.223  22.012  0.00  0.00     0.374 C 
BRANCH   9  10
ATOM     10  C   UNK d   1      54.612  86.196  21.395  0.00  0.00     0.246 C 
ATOM     11  N   UNK d   1      54.175  87.497  21.133  0.00  0.00    -0.355 N 
ATOM     12  H   UNK d   1      53.101  87.621  21.156  0.00  0.00     0.162 HD
ATOM     13  O   UNK d   1      55.734  85.826  21.171  0.00  0.00    -0.272 OA
BRANCH  11  14
ATOM     14  C   UNK d   1      54.965  88.610  20.749  0.00  0.00     0.162 C 
BRANCH  14  15
ATOM     15  C   UNK d   1      54.395  89.357  19.596  0.00  0.00    -0.019 A 
ATOM     16  C   UNK d   1      54.549  90.738  19.571  0.00  0.00     0.042 A 
ATOM     17 Cl   UNK d   1      55.147  91.531  21.008  0.00  0.00    -0.084 Cl
ATOM     18  C   UNK d   1      54.201  91.484  18.492  0.00  0.00     0.024 A 
ATOM     19  C   UNK d   1      53.686  90.946  17.331  0.00  0.00     0.002 A 
ATOM     20  C   UNK d   1      53.532  89.544  17.360  0.00  0.00     0.001 A 
ATOM     21  C   UNK d   1      53.874  88.780  18.469  0.00  0.00     0.010 A 
ENDBRANCH  14  15
ENDBRANCH  11  14
ENDBRANCH   9  10
ENDBRANCH   1   9
BRANCH   7  22
ATOM     22  C   UNK d   1      55.181  80.726  18.690  0.00  0.00     0.245 C 
ATOM     23  O   UNK d   1      54.179  80.138  17.797  0.00  0.00    -0.331 OA
ATOM     24  C   UNK d   1      53.830  81.062  16.770  0.00  0.00     0.103 A 
ATOM     25  C   UNK d   1      54.820  81.885  16.302  0.00  0.00     0.102 A 
ATOM     26  C   UNK d   1      52.545  81.138  16.246  0.00  0.00     0.040 A 
ATOM     27  C   UNK d   1      54.575  82.825  15.307  0.00  0.00     0.039 A 
ATOM     28  O   UNK d   1      56.108  81.778  16.839  0.00  0.00    -0.345 OA
ATOM     29  C   UNK d   1      53.275  82.878  14.816  0.00  0.00     0.003 A 
ATOM     30  C   UNK d   1      52.259  82.059  15.258  0.00  0.00     0.003 A 
ATOM     31  C   UNK d   1      56.440  80.727  17.782  0.00  0.00     0.218 C 
ENDBRANCH   7  22
TORSDOF 5
ENDMDL
