MODEL 1
REMARK VINA RESULT:    -8.331      0.000      0.000
REMARK INTER + INTRA:         -10.821
REMARK INTER:                  -9.792
REMARK INTRA:                  -1.029
REMARK UNBOUND:                -1.029
REMARK  3 active torsions:
REMARK  status: ('A' for Active; 'I' for Inactive)
REMARK    1  A    between atoms: C_5  and  C_8 
REMARK    2  A    between atoms: C_8  and  N_9 
REMARK    3  A    between atoms: C_13  and  N_14 
ROOT
ATOM      1  N   UNK d   1      54.999  86.008  22.734  0.00  0.00    -0.168 N 
ATOM      2  C   UNK d   1      54.677  85.662  24.018  0.00  0.00     0.167 A 
ATOM      3  C   UNK d   1      53.510  84.949  24.029  0.00  0.00     0.185 A 
ATOM      4  N   UNK d   1      53.152  84.880  22.754  0.00  0.00    -0.044 NA
ATOM      5  C   UNK d   1      54.048  85.522  21.936  0.00  0.00     0.707 A 
ATOM      6  N   UNK d   1      52.969  84.495  25.175  0.00  0.00    -0.286 N 
ATOM      7  C   UNK d   1      53.589  84.746  26.358  0.00  0.00     0.330 A 
ATOM      8  O   UNK d   1      53.050  84.304  27.398  0.00  0.00    -0.246 OA
ATOM      9  N   UNK d   1      54.738  85.443  26.398  0.00  0.00    -0.273 N 
ATOM     10  C   UNK d   1      55.267  85.891  25.250  0.00  0.00     0.280 A 
ATOM     11  O   UNK d   1      56.335  86.534  25.340  0.00  0.00    -0.265 OA
ATOM     12  C   UNK d   1      51.728  83.746  25.095  0.00  0.00     0.163 C 
ATOM     13  H   UNK d   1      55.173  85.607  27.330  0.00  0.00     0.173 HD
ENDROOT
BRANCH   1  14
ATOM     14  C   UNK d   1      56.177  86.767  22.408  0.00  0.00     0.186 C 
BRANCH  14  15
ATOM     15  C   UNK d   1      56.005  88.204  22.211  0.00  0.00    -0.039 A 
ATOM     16  C   UNK d   1      55.560  89.064  23.159  0.00  0.00     0.010 A 
ATOM     17  C   UNK d   1      55.362  90.425  22.907  0.00  0.00     0.024 A 
ATOM     18  C   UNK d   1      55.617  90.942  21.672  0.00  0.00     0.034 A 
ATOM     19 Cl   UNK d   1      55.353  92.652  21.407  0.00  0.00    -0.084 Cl
ATOM     20  C   UNK d   1      56.070  90.104  20.680  0.00  0.00     0.024 A 
ATOM     21  C   UNK d   1      56.257  88.768  20.951  0.00  0.00     0.010 A 
ENDBRANCH  14  15
ENDBRANCH   1  14
BRANCH   5  22
ATOM     22  N   UNK d   1      53.878  85.596  20.536  0.00  0.00    -0.212 N 
ATOM     23  C   UNK d   1      54.161  84.399  19.755  0.00  0.00     0.171 C 
ATOM     24  C   UNK d   1      53.108  84.449  18.632  0.00  0.00     0.290 C 
ATOM     25  N   UNK d   1      51.873  85.046  19.088  0.00  0.00     0.086 N 
ATOM     26  C   UNK d   1      51.985  86.451  19.418  0.00  0.00     0.290 C 
ATOM     27  H   UNK d   1      51.197  84.961  18.310  0.00  0.00     0.316 HD
ATOM     28  C   UNK d   1      53.450  86.692  19.748  0.00  0.00     0.171 C 
ENDBRANCH   5  22
TORSDOF 3
ENDMDL
