MODEL 1
REMARK VINA RESULT:    -9.244      0.000      0.000
REMARK INTER + INTRA:         -10.103
REMARK INTER:                  -9.785
REMARK INTRA:                  -0.319
REMARK UNBOUND:                -0.319
REMARK  1 active torsions:
REMARK  status: ('A' for Active; 'I' for Inactive)
REMARK    1  A    between atoms: C_5  and  N_8 
ROOT
ATOM      1  N   UNK d   1      55.340  89.042  20.894  0.00  0.00    -0.252 N 
ATOM      2  C   UNK d   1      55.490  90.364  20.356  0.00  0.00     0.237 C 
ATOM      3  O   UNK d   1      55.920  91.337  21.067  0.00  0.00    -0.272 OA
ATOM      4  C   UNK d   1      55.082  90.368  18.942  0.00  0.00     0.104 C 
ATOM      5  C   UNK d   1      54.226  89.128  18.833  0.00  0.00     0.104 C 
ATOM      6  C   UNK d   1      52.811  89.536  18.485  0.00  0.00     0.076 C 
ATOM      7  C   UNK d   1      52.890  90.100  17.058  0.00  0.00     0.091 C 
ATOM      8  C   UNK d   1      53.749  91.327  17.165  0.00  0.00     0.133 C 
ATOM      9  O   UNK d   1      53.923  92.035  16.210  0.00  0.00    -0.298 OA
ATOM     10  C   UNK d   1      54.358  91.598  18.513  0.00  0.00     0.076 C 
ATOM     11  C   UNK d   1      53.174  91.874  19.447  0.00  0.00     0.091 C 
ATOM     12  C   UNK d   1      52.311  90.645  19.370  0.00  0.00     0.133 C 
ATOM     13  O   UNK d   1      51.287  90.589  19.993  0.00  0.00    -0.298 OA
ATOM     14  C   UNK d   1      54.350  88.406  20.098  0.00  0.00     0.237 C 
ATOM     15  O   UNK d   1      53.692  87.392  20.425  0.00  0.00    -0.272 OA
ENDROOT
BRANCH   1  16
ATOM     16  C   UNK d   1      56.032  88.464  21.994  0.00  0.00     0.045 A 
ATOM     17  C   UNK d   1      56.835  87.355  21.803  0.00  0.00     0.032 A 
ATOM     18  C   UNK d   1      57.526  86.762  22.835  0.00  0.00     0.026 A 
ATOM     19  C   UNK d   1      57.444  87.252  24.115  0.00  0.00     0.034 A 
ATOM     20 Cl   UNK d   1      58.322  86.501  25.442  0.00  0.00    -0.084 Cl
ATOM     21  C   UNK d   1      56.644  88.363  24.330  0.00  0.00     0.026 A 
ATOM     22  C   UNK d   1      55.962  88.941  23.284  0.00  0.00     0.032 A 
ENDBRANCH   1  16
TORSDOF 1
ENDMDL
