MODEL 1
REMARK VINA RESULT:    -8.185      0.000      0.000
REMARK INTER + INTRA:         -10.270
REMARK INTER:                  -9.620
REMARK INTRA:                  -0.650
REMARK UNBOUND:                -0.650
REMARK  3 active torsions:
REMARK  status: ('A' for Active; 'I' for Inactive)
REMARK    1  A    between atoms: C_5  and  N_8 
REMARK    2  A    between atoms: C_14  and  C_18 
REMARK    3  A    between atoms: C_18  and  C_19 
REMARK       I    between atoms: C_19  and  N_21 
ROOT
ATOM      1  N   UNK d   1      54.177  85.317  24.728  0.00  0.00    -0.252 N 
ATOM      2  C   UNK d   1      53.689  85.041  23.397  0.00  0.00     0.239 C 
ATOM      3  O   UNK d   1      53.234  83.964  23.000  0.00  0.00    -0.272 OA
ATOM      4  C   UNK d   1      53.812  86.248  22.569  0.00  0.00     0.147 C 
ATOM      5  C   UNK d   1      54.420  86.043  21.201  0.00  0.00     0.279 C 
ATOM      6  N   UNK d   1      55.841  86.265  21.313  0.00  0.00     0.114 N 
ATOM      7  C   UNK d   1      56.141  86.276  22.731  0.00  0.00     0.245 C 
ATOM      8  C   UNK d   1      54.921  86.987  23.281  0.00  0.00     0.129 C 
ATOM      9  C   UNK d   1      54.642  86.676  24.695  0.00  0.00     0.238 C 
ATOM     10  O   UNK d   1      54.798  87.478  25.620  0.00  0.00    -0.272 OA
ATOM     11  C   UNK d   1      53.765  87.080  20.330  0.00  0.00     0.017 A 
ATOM     12  C   UNK d   1      52.941  86.425  19.459  0.00  0.00     0.044 A 
ATOM     13  C   UNK d   1      52.133  87.119  18.544  0.00  0.00     0.030 A 
ATOM     14  C   UNK d   1      52.159  88.497  18.504  0.00  0.00     0.002 A 
ATOM     15  C   UNK d   1      52.987  89.154  19.375  0.00  0.00     0.001 A 
ATOM     16  C   UNK d   1      53.773  88.458  20.269  0.00  0.00     0.012 A 
ATOM     17  N   UNK d   1      53.095  85.020  19.570  0.00  0.00    -0.324 N 
ATOM     18  C   UNK d   1      54.079  84.786  20.566  0.00  0.00     0.267 C 
ATOM     19  O   UNK d   1      54.549  83.656  20.814  0.00  0.00    -0.270 OA
ATOM     20  H   UNK d   1      56.326  85.476  20.823  0.00  0.00     0.318 HD
ATOM     21  H   UNK d   1      52.572  84.279  19.011  0.00  0.00     0.169 HD
ENDROOT
BRANCH   7  22
ATOM     22  C   UNK d   1      57.403  87.035  23.043  0.00  0.00     0.139 C 
BRANCH  22  23
ATOM     23  C   UNK d   1      57.935  86.792  24.381  0.00  0.00     0.217 C 
ATOM     24  O   UNK d   1      57.759  85.695  24.943  0.00  0.00    -0.274 OA
ATOM     25  N   UNK d   1      58.656  87.808  25.051  0.00  0.00    -0.370 N 
ATOM     26  H   UNK d   1      58.799  88.777  24.676  0.00  0.00     0.159 HD
ATOM     27  H   UNK d   1      59.111  87.660  25.998  0.00  0.00     0.159 HD
ENDBRANCH  22  23
ENDBRANCH   7  22
BRANCH   1  28
ATOM     28  C   UNK d   1      54.204  84.479  25.848  0.00  0.00     0.045 A 
ATOM     29  C   UNK d   1      55.063  83.423  25.977  0.00  0.00     0.032 A 
ATOM     30  C   UNK d   1      55.091  82.593  27.092  0.00  0.00     0.026 A 
ATOM     31  C   UNK d   1      54.221  82.830  28.128  0.00  0.00     0.034 A 
ATOM     32 Cl   UNK d   1      54.252  81.798  29.547  0.00  0.00    -0.084 Cl
ATOM     33  C   UNK d   1      53.351  83.873  28.033  0.00  0.00     0.026 A 
ATOM     34  C   UNK d   1      53.345  84.691  26.899  0.00  0.00     0.032 A 
ENDBRANCH   1  28
TORSDOF 3
ENDMDL
