/Users/jonathanwahrer/Desktop/Msc/3_Semester/Drug_Design_Praktikum/waehrer_HTS_screening/HTS_experiment/out/docking_results/vina_output/3npc/1945_docked.pdbqt
 OpenBabel03192220533D

 24 27  0  0  0  0  0  0  0  0999 V2000
   57.0400   86.6830   23.5600 Cl  0  0  0  0  0  0  0  0  0  0  0  0
   56.1030   87.4860   22.3150 C   0  0  0  0  0  0  0  0  0  0  0  0
   55.0670   86.8550   21.6660 C   0  0  0  0  0  3  0  0  0  0  0  0
   54.3280   87.5070   20.6740 C   0  0  0  0  0  0  0  0  0  0  0  0
   54.6650   88.8150   20.3590 C   0  0  0  0  0  0  0  0  0  0  0  0
   55.6960   89.4590   21.0000 C   0  0  0  0  0  3  0  0  0  0  0  0
   56.4150   88.8080   21.9700 C   0  0  0  0  0  3  0  0  0  0  0  0
   53.9130   89.5430   19.3220 C   0  0  0  0  0  0  0  0  0  0  0  0
   54.0130   90.7370   18.8450 N   0  0  0  0  0  0  0  0  0  0  0  0
   53.0390   91.0060   17.8230 C   0  0  0  0  0  3  0  0  0  0  0  0
   52.2590   89.7320   17.7150 C   0  0  0  0  0  3  0  0  0  0  0  0
   52.8570   88.8520   18.6830 N   0  0  0  0  0  0  0  0  0  0  0  0
   52.5360   87.5110   19.0290 C   0  0  0  0  0  0  0  0  0  0  0  0
   51.5960   86.8770   18.4710 O   0  0  0  0  0  0  0  0  0  0  0  0
   53.2690   86.7980   20.0420 N   0  0  0  0  0  0  0  0  0  0  0  0
   52.9220   85.4250   20.3790 C   0  0  0  0  0  2  0  0  0  0  0  0
   53.5920   84.4660   19.4710 C   0  0  0  0  0  0  0  0  0  0  0  0
   54.5880   83.8360   19.9040 O   0  0  0  0  0  0  0  0  0  0  0  0
   53.1610   84.2260   18.1440 N   0  0  0  0  0  0  0  0  0  0  0  0
   52.3330   84.7550   17.8010 H   0  0  0  0  0  0  0  0  0  0  0  0
   53.8310   83.2850   17.2800 C   0  0  0  0  0  2  0  0  0  0  0  0
   53.4360   83.5290   15.8470 C   0  0  0  0  0  3  0  0  0  0  0  0
   53.8050   82.5320   14.8070 C   0  0  0  0  0  2  0  0  0  0  0  0
   54.5430   83.8140   14.8750 C   0  0  0  0  0  2  0  0  0  0  0  0
  2  1  1  0  0  0  0
  3  2  2  0  0  0  0
  4  3  1  0  0  0  0
  5  4  2  0  0  0  0
  5  6  1  0  0  0  0
  6  7  2  0  0  0  0
  7  2  1  0  0  0  0
  8  5  1  0  0  0  0
  9  8  2  0  0  0  0
 10  9  1  0  0  0  0
 11 10  2  0  0  0  0
 11 12  1  0  0  0  0
 12 13  1  0  0  0  0
 12  8  1  0  0  0  0
 13 15  1  0  0  0  0
 14 13  2  0  0  0  0
 15 16  1  0  0  0  0
 15  4  1  0  0  0  0
 17 18  2  0  0  0  0
 17 16  1  0  0  0  0
 19 17  1  0  0  0  0
 20 19  1  0  0  0  0
 21 19  1  0  0  0  0
 22 21  1  0  0  0  0
 23 24  1  0  0  0  0
 23 22  1  0  0  0  0
 24 22  1  0  0  0  0
M  END
>  <Pose>
1

>  <Score>
-7.786

$$$$
