MODEL 1
REMARK VINA RESULT:    -7.786      0.000      0.000
REMARK INTER + INTRA:         -10.176
REMARK INTER:                  -9.607
REMARK INTRA:                  -0.569
REMARK UNBOUND:                -0.569
REMARK  4 active torsions:
REMARK  status: ('A' for Active; 'I' for Inactive)
REMARK    1  A    between atoms: N_15  and  C_16 
REMARK    2  A    between atoms: C_16  and  C_17 
REMARK       I    between atoms: C_17  and  N_19 
REMARK    3  A    between atoms: N_19  and  C_20 
REMARK    4  A    between atoms: C_20  and  C_21 
ROOT
ATOM      1 Cl   UNK d   1      57.040  86.683  23.560  0.00  0.00    -0.084 Cl
ATOM      2  C   UNK d   1      56.103  87.486  22.315  0.00  0.00     0.036 A 
ATOM      3  C   UNK d   1      55.067  86.855  21.666  0.00  0.00     0.054 A 
ATOM      4  C   UNK d   1      54.328  87.507  20.674  0.00  0.00     0.055 A 
ATOM      5  C   UNK d   1      54.665  88.815  20.359  0.00  0.00     0.037 A 
ATOM      6  C   UNK d   1      55.696  89.459  21.000  0.00  0.00     0.019 A 
ATOM      7  C   UNK d   1      56.415  88.808  21.970  0.00  0.00     0.025 A 
ATOM      8  C   UNK d   1      53.913  89.543  19.322  0.00  0.00     0.141 A 
ATOM      9  N   UNK d   1      54.013  90.737  18.845  0.00  0.00    -0.270 NA
ATOM     10  C   UNK d   1      53.039  91.006  17.823  0.00  0.00     0.171 A 
ATOM     11  C   UNK d   1      52.259  89.732  17.715  0.00  0.00     0.157 A 
ATOM     12  N   UNK d   1      52.857  88.852  18.683  0.00  0.00    -0.281 N 
ATOM     13  C   UNK d   1      52.536  87.511  19.029  0.00  0.00     0.331 A 
ATOM     14  O   UNK d   1      51.596  86.877  18.471  0.00  0.00    -0.246 OA
ATOM     15  N   UNK d   1      53.269  86.798  20.042  0.00  0.00    -0.290 N 
ENDROOT
BRANCH  15  16
ATOM     16  C   UNK d   1      52.922  85.425  20.379  0.00  0.00     0.236 C 
BRANCH  16  17
ATOM     17  C   UNK d   1      53.592  84.466  19.471  0.00  0.00     0.236 C 
ATOM     18  O   UNK d   1      54.588  83.836  19.904  0.00  0.00    -0.272 OA
ATOM     19  N   UNK d   1      53.161  84.226  18.144  0.00  0.00    -0.359 N 
ATOM     20  H   UNK d   1      52.333  84.755  17.801  0.00  0.00     0.162 HD
BRANCH  19  21
ATOM     21  C   UNK d   1      53.831  83.285  17.280  0.00  0.00     0.127 C 
BRANCH  21  22
ATOM     22  C   UNK d   1      53.436  83.529  15.847  0.00  0.00     0.003 A 
ATOM     23  C   UNK d   1      53.805  82.532  14.807  0.00  0.00     0.007 A 
ATOM     24  C   UNK d   1      54.543  83.814  14.875  0.00  0.00     0.007 A 
ENDBRANCH  21  22
ENDBRANCH  19  21
ENDBRANCH  16  17
ENDBRANCH  15  16
TORSDOF 4
ENDMDL
