/Users/jonathanwahrer/Desktop/Msc/3_Semester/Drug_Design_Praktikum/waehrer_HTS_screening/HTS_experiment/out/docking_results/vina_output/3npc/1956_docked.pdbqt
 OpenBabel03192220543D

 35 38  0  0  1  0  0  0  0  0999 V2000
   54.4290   83.8530   19.1020 C   0  0  0  0  0  0  0  0  0  0  0  0
   53.8210   84.1130   20.2470 C   0  0  0  0  0  0  0  0  0  0  0  0
   54.2270   85.1830   21.2280 C   0  0  2  0  0  3  0  0  0  0  0  0
   53.5080   84.8910   22.4340 N   0  0  0  0  0  0  0  0  0  0  0  0
   52.5060   83.9140   22.1970 C   0  0  0  0  0  0  0  0  0  0  0  0
   51.6280   83.5370   22.9870 O   0  0  0  0  0  0  0  0  0  0  0  0
   52.7070   83.4210   20.8140 C   0  0  0  0  0  0  0  0  0  0  0  0
   52.0000   82.5420   20.2680 O   0  0  0  0  0  0  0  0  0  0  0  0
   55.5530   84.6580   18.8000 O   0  0  0  0  0  1  0  0  0  0  0  0
   53.8560   86.4850   20.6090 C   0  0  0  0  0  0  0  0  0  0  0  0
   54.6240   87.5910   20.8310 C   0  0  0  0  0  3  0  0  0  0  0  0
   54.2830   88.7780   20.2490 C   0  0  0  0  0  3  0  0  0  0  0  0
   53.1760   88.8970   19.4360 C   0  0  0  0  0  0  0  0  0  0  0  0
   52.3960   87.7780   19.2100 C   0  0  0  0  0  3  0  0  0  0  0  0
   52.7480   86.5740   19.8040 C   0  0  0  0  0  3  0  0  0  0  0  0
   52.8350   90.1100   18.8470 O   0  0  0  0  0  0  0  0  0  0  0  0
   52.6570   90.1440   17.4230 C   0  0  0  0  0  2  0  0  0  0  0  0
   54.0230   89.9950   16.7560 C   0  0  0  0  0  2  0  0  0  0  0  0
   54.6660   91.3750   16.7510 C   0  0  0  0  0  1  0  0  0  0  0  0
   53.7690   85.4960   23.7370 C   0  0  0  0  0  2  0  0  0  0  0  0
   55.2020   85.3110   24.0990 C   0  0  0  0  0  2  0  0  0  0  0  0
   55.9580   86.5670   23.9690 N   0  0  0  0  0  4  0  0  0  0  0  0
   57.2260   86.3870   24.6050 C   0  0  0  0  0  2  0  0  0  0  0  0
   57.9220   87.7200   24.8760 C   0  0  0  0  0  2  0  0  0  0  0  0
   57.0370   88.4670   25.6730 O   0  0  0  0  0  0  0  0  0  0  0  0
   55.9730   88.8290   24.8730 C   0  0  0  0  0  2  0  0  0  0  0  0
   55.1420   87.5980   24.5710 C   0  0  0  0  0  2  0  0  0  0  0  0
   56.1100   86.7990   22.9520 H   0  0  0  0  0  0  0  0  0  0  0  0
   53.9910   82.8160   18.1940 C   0  0  0  0  0  0  0  0  0  0  0  0
   54.5710   81.5420   18.2680 C   0  0  0  0  0  3  0  0  0  0  0  0
   54.2290   80.5200   17.4070 C   0  0  0  0  0  3  0  0  0  0  0  0
   53.2900   80.7170   16.4230 C   0  0  0  0  0  0  0  0  0  0  0  0
   52.8120   79.4650   15.3000 Cl  0  0  0  0  0  0  0  0  0  0  0  0
   52.7070   81.9480   16.3230 C   0  0  0  0  0  3  0  0  0  0  0  0
   53.0560   82.9840   17.2000 C   0  0  0  0  0  3  0  0  0  0  0  0
  1  2  2  0  0  0  0
  2  7  1  0  0  0  0
  2  3  1  0  0  0  0
  3 10  1  6  0  0  0
  3  4  1  0  0  0  0
  4 20  1  0  0  0  0
  5  4  1  0  0  0  0
  5  6  2  0  0  0  0
  7  5  1  0  0  0  0
  8  7  2  0  0  0  0
  9  1  1  0  0  0  0
 10 11  1  0  0  0  0
 12 11  2  0  0  0  0
 13 12  1  0  0  0  0
 14 13  2  0  0  0  0
 14 15  1  0  0  0  0
 15 10  2  0  0  0  0
 16 13  1  0  0  0  0
 17 16  1  0  0  0  0
 18 17  1  0  0  0  0
 19 18  1  0  0  0  0
 20 21  1  0  0  0  0
 22 21  1  0  0  0  0
 22 27  1  0  0  0  0
 22 23  1  0  0  0  0
 23 24  1  0  0  0  0
 24 25  1  0  0  0  0
 26 25  1  0  0  0  0
 27 26  1  0  0  0  0
 28 22  1  0  0  0  0
 29 30  1  0  0  0  0
 29  1  1  0  0  0  0
 31 30  2  0  0  0  0
 32 31  1  0  0  0  0
 33 32  1  0  0  0  0
 34 32  2  0  0  0  0
 34 35  1  0  0  0  0
 35 29  2  0  0  0  0
M  END
>  <Pose>
1

>  <Score>
-7.690

$$$$
