MODEL 1
REMARK VINA RESULT:    -7.523      0.000      0.000
REMARK INTER + INTRA:         -11.295
REMARK INTER:                 -10.382
REMARK INTRA:                  -0.913
REMARK UNBOUND:                -0.913
REMARK  7 active torsions:
REMARK  status: ('A' for Active; 'I' for Inactive)
REMARK    1  A    between atoms: C_5  and  C_8 
REMARK    2  A    between atoms: C_8  and  O_9 
REMARK    3  A    between atoms: C_8  and  C_10 
REMARK    4  A    between atoms: N_17  and  C_20 
REMARK    5  A    between atoms: C_20  and  C_21 
REMARK    6  A    between atoms: C_21  and  C_22 
REMARK    7  A    between atoms: C_22  and  O_23 
ROOT
ATOM      1  C   UNK d   1      53.943  85.626  24.586  0.00  0.00     0.269 C 
ATOM      2  N   UNK d   1      53.131  85.769  25.787  0.00  0.00     0.116 N 
ATOM      3  C   UNK d   1      52.710  84.436  26.167  0.00  0.00     0.279 A 
ATOM      4  C   UNK d   1      53.880  83.592  25.749  0.00  0.00     0.147 C 
ATOM      5  C   UNK d   1      54.379  84.213  24.482  0.00  0.00     0.131 C 
ATOM      6  C   UNK d   1      53.717  83.470  23.375  0.00  0.00     0.233 C 
ATOM      7  O   UNK d   1      53.652  83.822  22.173  0.00  0.00    -0.272 OA
ATOM      8  N   UNK d   1      53.166  82.270  23.961  0.00  0.00    -0.287 N 
ATOM      9  C   UNK d   1      53.525  82.226  25.327  0.00  0.00     0.234 C 
ATOM     10  O   UNK d   1      53.546  81.217  26.073  0.00  0.00    -0.272 OA
ATOM     11  C   UNK d   1      52.450  84.328  27.624  0.00  0.00     0.017 A 
ATOM     12  C   UNK d   1      51.123  83.998  27.765  0.00  0.00     0.044 A 
ATOM     13  C   UNK d   1      50.607  83.830  29.042  0.00  0.00     0.030 A 
ATOM     14  C   UNK d   1      51.433  83.995  30.128  0.00  0.00     0.002 A 
ATOM     15  C   UNK d   1      52.771  84.326  29.997  0.00  0.00     0.001 A 
ATOM     16  C   UNK d   1      53.271  84.492  28.722  0.00  0.00     0.012 A 
ATOM     17  N   UNK d   1      50.479  83.889  26.482  0.00  0.00    -0.324 N 
ATOM     18  C   UNK d   1      51.454  84.163  25.492  0.00  0.00     0.267 A 
ATOM     19  O   UNK d   1      51.220  84.160  24.272  0.00  0.00    -0.270 OA
ATOM     20  H   UNK d   1      52.332  86.389  25.612  0.00  0.00     0.318 HD
ATOM     21  H   UNK d   1      49.469  83.645  26.370  0.00  0.00     0.169 HD
ENDROOT
BRANCH   1  22
ATOM     22  C   UNK d   1      55.067  86.618  24.731  0.00  0.00     0.185 C 
BRANCH  22  23
ATOM     23  C   UNK d   1      55.178  87.548  23.572  0.00  0.00    -0.028 A 
ATOM     24  C   UNK d   1      54.914  87.098  22.279  0.00  0.00     0.011 A 
ATOM     25  C   UNK d   1      55.028  87.929  21.194  0.00  0.00     0.024 A 
ATOM     26  C   UNK d   1      55.410  89.249  21.330  0.00  0.00     0.034 A 
ATOM     27 Cl   UNK d   1      55.560  90.324  19.950  0.00  0.00    -0.084 Cl
ATOM     28  C   UNK d   1      55.665  89.671  22.616  0.00  0.00     0.024 A 
ATOM     29  C   UNK d   1      55.558  88.859  23.720  0.00  0.00     0.011 A 
ENDBRANCH  22  23
BRANCH  22  30
ATOM     30  O   UNK d   1      55.019  87.350  25.889  0.00  0.00    -0.389 OA
ATOM     31  H   UNK d   1      55.140  88.305  25.653  0.00  0.00     0.210 HD
ENDBRANCH  22  30
ENDBRANCH   1  22
BRANCH   8  32
ATOM     32  C   UNK d   1      52.377  81.298  23.264  0.00  0.00     0.137 C 
BRANCH  32  33
ATOM     33  C   UNK d   1      51.544  80.409  24.109  0.00  0.00     0.046 C 
BRANCH  33  34
ATOM     34  C   UNK d   1      50.116  80.790  24.279  0.00  0.00     0.168 C 
BRANCH  34  35
ATOM     35  O   UNK d   1      49.368  80.661  23.116  0.00  0.00    -0.396 OA
ATOM     36  C   UNK d   1      48.876  81.927  22.735  0.00  0.00     0.201 C 
ENDBRANCH  34  35
ENDBRANCH  33  34
ENDBRANCH  32  33
ENDBRANCH   8  32
TORSDOF 7
ENDMDL
