/Users/jonathanwahrer/Desktop/Msc/3_Semester/Drug_Design_Praktikum/waehrer_HTS_screening/HTS_experiment/out/docking_results/vina_output/3npc/1957_docked.pdbqt
 OpenBabel03192220543D

 36 40  0  0  1  0  0  0  0  0999 V2000
   53.9430   85.6260   24.5860 C   0  0  2  0  0  3  0  0  0  0  0  0
   53.1310   85.7690   25.7870 N   0  0  0  0  0  0  0  0  0  0  0  0
   52.7100   84.4360   26.1670 C   0  0  1  0  0  0  0  0  0  0  0  0
   53.8800   83.5920   25.7490 C   0  0  2  0  0  3  0  0  0  0  0  0
   54.3790   84.2130   24.4820 C   0  0  1  0  0  3  0  0  0  0  0  0
   53.7170   83.4700   23.3750 C   0  0  0  0  0  0  0  0  0  0  0  0
   53.6520   83.8220   22.1730 O   0  0  0  0  0  0  0  0  0  0  0  0
   53.1660   82.2700   23.9610 N   0  0  0  0  0  0  0  0  0  0  0  0
   53.5250   82.2260   25.3270 C   0  0  0  0  0  0  0  0  0  0  0  0
   53.5460   81.2170   26.0730 O   0  0  0  0  0  0  0  0  0  0  0  0
   52.4500   84.3280   27.6240 C   0  0  0  0  0  0  0  0  0  0  0  0
   51.1230   83.9980   27.7650 C   0  0  0  0  0  0  0  0  0  0  0  0
   50.6070   83.8300   29.0420 C   0  0  0  0  0  3  0  0  0  0  0  0
   51.4330   83.9950   30.1280 C   0  0  0  0  0  3  0  0  0  0  0  0
   52.7710   84.3260   29.9970 C   0  0  0  0  0  3  0  0  0  0  0  0
   53.2710   84.4920   28.7220 C   0  0  0  0  0  3  0  0  0  0  0  0
   50.4790   83.8890   26.4820 N   0  0  0  0  0  0  0  0  0  0  0  0
   51.4540   84.1630   25.4920 C   0  0  0  0  0  0  0  0  0  0  0  0
   51.2200   84.1600   24.2720 O   0  0  0  0  0  0  0  0  0  0  0  0
   52.3320   86.3890   25.6120 H   0  0  0  0  0  0  0  0  0  0  0  0
   49.4690   83.6450   26.3700 H   0  0  0  0  0  0  0  0  0  0  0  0
   55.0670   86.6180   24.7310 C   0  0  1  0  0  3  0  0  0  0  0  0
   55.1780   87.5480   23.5720 C   0  0  0  0  0  0  0  0  0  0  0  0
   54.9140   87.0980   22.2790 C   0  0  0  0  0  3  0  0  0  0  0  0
   55.0280   87.9290   21.1940 C   0  0  0  0  0  3  0  0  0  0  0  0
   55.4100   89.2490   21.3300 C   0  0  0  0  0  0  0  0  0  0  0  0
   55.5600   90.3240   19.9500 Cl  0  0  0  0  0  0  0  0  0  0  0  0
   55.6650   89.6710   22.6160 C   0  0  0  0  0  3  0  0  0  0  0  0
   55.5580   88.8590   23.7200 C   0  0  0  0  0  3  0  0  0  0  0  0
   55.0190   87.3500   25.8890 O   0  0  0  0  0  0  0  0  0  0  0  0
   55.1400   88.3050   25.6530 H   0  0  0  0  0  0  0  0  0  0  0  0
   52.3770   81.2980   23.2640 C   0  0  0  0  0  2  0  0  0  0  0  0
   51.5440   80.4090   24.1090 C   0  0  0  0  0  2  0  0  0  0  0  0
   50.1160   80.7900   24.2790 C   0  0  0  0  0  2  0  0  0  0  0  0
   49.3680   80.6610   23.1160 O   0  0  0  0  0  0  0  0  0  0  0  0
   48.8760   81.9270   22.7350 C   0  0  0  0  0  1  0  0  0  0  0  0
  1 22  1  1  0  0  0
  1  2  1  0  0  0  0
  2  3  1  0  0  0  0
  3 18  1  6  0  0  0
  3 11  1  0  0  0  0
  4  9  1  6  0  0  0
  4  3  1  0  0  0  0
  5  6  1  6  0  0  0
  5  1  1  0  0  0  0
  5  4  1  0  0  0  0
  6  8  1  0  0  0  0
  7  6  2  0  0  0  0
  8  9  1  0  0  0  0
  9 10  2  0  0  0  0
 11 12  2  0  0  0  0
 11 16  1  0  0  0  0
 12 13  1  0  0  0  0
 13 14  2  0  0  0  0
 15 14  1  0  0  0  0
 16 15  2  0  0  0  0
 17 12  1  0  0  0  0
 18 17  1  0  0  0  0
 19 18  2  0  0  0  0
 20  2  1  0  0  0  0
 21 17  1  0  0  0  0
 22 30  1  1  0  0  0
 23 29  1  0  0  0  0
 23 22  1  0  0  0  0
 24 23  2  0  0  0  0
 25 26  2  0  0  0  0
 25 24  1  0  0  0  0
 26 28  1  0  0  0  0
 27 26  1  0  0  0  0
 28 29  2  0  0  0  0
 31 30  1  0  0  0  0
 32  8  1  0  0  0  0
 32 33  1  0  0  0  0
 33 34  1  0  0  0  0
 35 34  1  0  0  0  0
 36 35  1  0  0  0  0
M  END
>  <Pose>
1

>  <Score>
-7.523

$$$$
