MODEL 1
REMARK VINA RESULT:    -4.221      0.000      0.000
REMARK INTER + INTRA:          -5.496
REMARK INTER:                  -5.084
REMARK INTRA:                  -0.412
REMARK UNBOUND:                -0.412
REMARK  4 active torsions:
REMARK  status: ('A' for Active; 'I' for Inactive)
REMARK    1  A    between atoms: C_5  and  C_8 
REMARK    2  A    between atoms: C_8  and  C_9 
REMARK       I    between atoms: C_9  and  N_11 
REMARK    3  A    between atoms: C_17  and  N_21 
REMARK    4  A    between atoms: C_19  and  O_20 
ROOT
ATOM      1  C   UNK d   1      54.640  83.253  17.940  0.00  0.00     0.224 C 
ATOM      2  O   UNK d   1      55.308  82.359  18.565  0.00  0.00    -0.273 OA
ATOM      3  N   UNK d   1      53.719  84.083  18.597  0.00  0.00    -0.346 N 
ATOM      4  C   UNK d   1      52.969  85.083  17.906  0.00  0.00     0.131 C 
ATOM      5  C   UNK d   1      52.545  86.243  18.763  0.00  0.00     0.065 C 
ATOM      6  C   UNK d   1      53.460  86.382  19.922  0.00  0.00     0.024 A 
ATOM      7  C   UNK d   1      53.955  85.266  20.570  0.00  0.00     0.082 A 
ATOM      8  N   UNK d   1      54.776  85.382  21.620  0.00  0.00    -0.065 NA
ATOM      9  C   UNK d   1      55.170  86.576  22.111  0.00  0.00     0.727 A 
ATOM     10  N   UNK d   1      54.687  87.673  21.479  0.00  0.00    -0.038 NA
ATOM     11  C   UNK d   1      53.861  87.608  20.421  0.00  0.00     0.189 A 
ATOM     12  C   UNK d   1      53.515  83.934  20.011  0.00  0.00     0.186 C 
ENDROOT
BRANCH   1  13
ATOM     13  C   UNK d   1      54.891  83.370  16.468  0.00  0.00     0.141 C 
BRANCH  13  14
ATOM     14  C   UNK d   1      54.060  82.423  15.708  0.00  0.00    -0.049 A 
ATOM     15  C   UNK d   1      52.784  82.059  16.082  0.00  0.00     0.009 A 
ATOM     16  C   UNK d   1      52.030  81.167  15.351  0.00  0.00     0.024 A 
ATOM     17  C   UNK d   1      52.550  80.599  14.193  0.00  0.00     0.034 A 
ATOM     18 Cl   UNK d   1      51.606  79.465  13.253  0.00  0.00    -0.084 Cl
ATOM     19  C   UNK d   1      53.831  80.972  13.831  0.00  0.00     0.024 A 
ATOM     20  C   UNK d   1      54.582  81.864  14.563  0.00  0.00     0.009 A 
ENDBRANCH  13  14
ENDBRANCH   1  13
BRANCH  11  21
ATOM     21  O   UNK d   1      53.384  88.752  19.796  0.00  0.00    -0.344 OA
ATOM     22  H   UNK d   1      52.407  88.847  19.509  0.00  0.00     0.219 HD
ENDBRANCH  11  21
BRANCH   9  23
ATOM     23  N   UNK d   1      56.036  86.643  23.216  0.00  0.00    -0.210 N 
ATOM     24  C   UNK d   1      57.222  87.444  23.168  0.00  0.00     0.167 C 
ATOM     25  C   UNK d   1      57.589  87.756  24.626  0.00  0.00     0.188 C 
ATOM     26  O   UNK d   1      57.876  86.608  25.322  0.00  0.00    -0.388 OA
ATOM     27  C   UNK d   1      56.987  85.578  25.180  0.00  0.00     0.188 C 
ATOM     28  C   UNK d   1      55.738  85.904  24.407  0.00  0.00     0.167 C 
ENDBRANCH   9  23
TORSDOF 4
ENDMDL
