/Users/jonathanwahrer/Desktop/Msc/3_Semester/Drug_Design_Praktikum/waehrer_HTS_screening/HTS_experiment/out/docking_results/vina_output/3npc/1960_docked.pdbqt
 OpenBabel03192220543D

 28 31  0  0  0  0  0  0  0  0999 V2000
   51.6900   98.0670   27.7700 C   0  0  0  0  0  0  0  0  0  0  0  0
   50.8060   97.1720   27.8290 O   0  0  0  0  0  0  0  0  0  0  0  0
   51.4260   99.2250   27.0200 N   0  0  0  0  0  0  0  0  0  0  0  0
   50.1450   99.3970   26.3130 C   0  0  0  0  0  2  0  0  0  0  0  0
   49.7370  100.8580   26.4240 C   0  0  0  0  0  2  0  0  0  0  0  0
   50.3320  101.3640   27.6440 N   0  0  0  0  0  0  0  0  0  0  0  0
   51.7700  101.5640   27.5990 C   0  0  0  0  0  2  0  0  0  0  0  0
   52.3490  100.3400   26.8690 C   0  0  0  0  0  2  0  0  0  0  0  0
   49.5600  101.6290   28.8050 C   0  0  0  0  0  0  0  0  0  0  0  0
   48.1850  101.4850   28.7700 C   0  0  0  0  0  3  0  0  0  0  0  0
   47.4640  101.7590   29.8970 N   0  0  0  0  0  0  0  0  0  0  0  0
   48.0200  102.1580   31.0240 N   0  0  0  0  0  0  0  0  0  0  0  0
   49.3750  102.3210   31.1300 C   0  0  0  0  0  0  0  0  0  0  0  0
   50.0890  102.0460   30.0030 C   0  0  0  0  0  3  0  0  0  0  0  0
   49.9030  102.7530   32.3660 N   0  0  0  0  0  0  0  0  0  0  0  0
   49.4250  102.1960   33.6180 C   0  0  0  0  0  2  0  0  0  0  0  0
   49.1910  103.3060   34.6430 C   0  0  0  0  0  2  0  0  0  0  0  0
   50.2570  104.1820   34.6970 O   0  0  0  0  0  0  0  0  0  0  0  0
   50.3700  104.7970   33.4600 C   0  0  0  0  0  2  0  0  0  0  0  0
   50.9270  103.7610   32.4670 C   0  0  0  0  0  2  0  0  0  0  0  0
   52.9490   97.8300   28.5010 C   0  0  0  0  0  2  0  0  0  0  0  0
   53.9910   97.2440   27.6160 C   0  0  0  0  0  0  0  0  0  0  0  0
   55.0650   98.0350   27.2160 C   0  0  0  0  0  3  0  0  0  0  0  0
   56.0560   97.5270   26.3950 C   0  0  0  0  0  3  0  0  0  0  0  0
   55.9980   96.2060   25.9500 C   0  0  0  0  0  0  0  0  0  0  0  0
   57.2380   95.5600   24.9190 Cl  0  0  0  0  0  0  0  0  0  0  0  0
   54.9300   95.4390   26.3550 C   0  0  0  0  0  3  0  0  0  0  0  0
   53.9300   95.9490   27.1830 C   0  0  0  0  0  3  0  0  0  0  0  0
  1  2  2  0  0  0  0
  1 21  1  0  0  0  0
  3  1  1  0  0  0  0
  4  5  1  0  0  0  0
  4  3  1  0  0  0  0
  5  6  1  0  0  0  0
  6  9  1  0  0  0  0
  7  6  1  0  0  0  0
  8  3  1  0  0  0  0
  8  7  1  0  0  0  0
  9 14  1  0  0  0  0
 10  9  2  0  0  0  0
 10 11  1  0  0  0  0
 11 12  2  0  0  0  0
 12 13  1  0  0  0  0
 13 15  1  0  0  0  0
 14 13  2  0  0  0  0
 15 20  1  0  0  0  0
 15 16  1  0  0  0  0
 16 17  1  0  0  0  0
 17 18  1  0  0  0  0
 19 18  1  0  0  0  0
 20 19  1  0  0  0  0
 22 21  1  0  0  0  0
 23 22  1  0  0  0  0
 24 23  2  0  0  0  0
 25 27  2  0  0  0  0
 25 24  1  0  0  0  0
 26 25  1  0  0  0  0
 27 28  1  0  0  0  0
 28 22  2  0  0  0  0
M  END
>  <Pose>
1

>  <Score>
-8.613

$$$$
