MODEL 1
REMARK VINA RESULT:    -8.613      0.000      0.000
REMARK INTER + INTRA:         -11.354
REMARK INTER:                 -10.627
REMARK INTRA:                  -0.728
REMARK UNBOUND:                -0.728
REMARK  4 active torsions:
REMARK  status: ('A' for Active; 'I' for Inactive)
REMARK    1  A    between atoms: C_5  and  C_8 
REMARK    2  A    between atoms: C_8  and  C_9 
REMARK       I    between atoms: C_9  and  N_11 
REMARK    3  A    between atoms: N_14  and  C_17 
REMARK    4  A    between atoms: C_21  and  N_23 
ROOT
ATOM      1  C   UNK d   1      51.690  98.067  27.770  0.00  0.00     0.224 C 
ATOM      2  O   UNK d   1      50.806  97.172  27.829  0.00  0.00    -0.273 OA
ATOM      3  N   UNK d   1      51.426  99.225  27.020  0.00  0.00    -0.349 N 
ATOM      4  C   UNK d   1      50.145  99.397  26.313  0.00  0.00     0.145 C 
ATOM      5  C   UNK d   1      49.737 100.858  26.424  0.00  0.00     0.143 C 
ATOM      6  N   UNK d   1      50.332 101.364  27.644  0.00  0.00    -0.376 N 
ATOM      7  C   UNK d   1      51.770 101.564  27.599  0.00  0.00     0.143 C 
ATOM      8  C   UNK d   1      52.349 100.340  26.869  0.00  0.00     0.145 C 
ENDROOT
BRANCH   6   9
ATOM      9  C   UNK d   1      49.560 101.629  28.805  0.00  0.00     0.053 A 
ATOM     10  C   UNK d   1      48.185 101.485  28.770  0.00  0.00     0.170 A 
ATOM     11  N   UNK d   1      47.464 101.759  29.897  0.00  0.00    -0.158 NA
ATOM     12  N   UNK d   1      48.020 102.158  31.024  0.00  0.00    -0.132 NA
ATOM     13  C   UNK d   1      49.375 102.321  31.130  0.00  0.00     0.150 A 
ATOM     14  C   UNK d   1      50.089 102.046  30.003  0.00  0.00     0.083 A 
BRANCH  13  15
ATOM     15  N   UNK d   1      49.903 102.753  32.366  0.00  0.00    -0.360 N 
ATOM     16  C   UNK d   1      49.425 102.196  33.618  0.00  0.00     0.151 C 
ATOM     17  C   UNK d   1      49.191 103.306  34.643  0.00  0.00     0.187 C 
ATOM     18  O   UNK d   1      50.257 104.182  34.697  0.00  0.00    -0.388 OA
ATOM     19  C   UNK d   1      50.370 104.797  33.460  0.00  0.00     0.187 C 
ATOM     20  C   UNK d   1      50.927 103.761  32.467  0.00  0.00     0.151 C 
ENDBRANCH  13  15
ENDBRANCH   6   9
BRANCH   1  21
ATOM     21  C   UNK d   1      52.949  97.830  28.501  0.00  0.00     0.141 C 
BRANCH  21  22
ATOM     22  C   UNK d   1      53.991  97.244  27.616  0.00  0.00    -0.049 A 
ATOM     23  C   UNK d   1      55.065  98.035  27.216  0.00  0.00     0.009 A 
ATOM     24  C   UNK d   1      56.056  97.527  26.395  0.00  0.00     0.024 A 
ATOM     25  C   UNK d   1      55.998  96.206  25.950  0.00  0.00     0.034 A 
ATOM     26 Cl   UNK d   1      57.238  95.560  24.919  0.00  0.00    -0.084 Cl
ATOM     27  C   UNK d   1      54.930  95.439  26.355  0.00  0.00     0.024 A 
ATOM     28  C   UNK d   1      53.930  95.949  27.183  0.00  0.00     0.009 A 
ENDBRANCH  21  22
ENDBRANCH   1  21
TORSDOF 4
ENDMDL
