MODEL 1
REMARK VINA RESULT:    -9.427      0.000      0.000
REMARK INTER + INTRA:         -11.782
REMARK INTER:                 -11.080
REMARK INTRA:                  -0.702
REMARK UNBOUND:                -0.702
REMARK  3 active torsions:
REMARK  status: ('A' for Active; 'I' for Inactive)
REMARK    1  A    between atoms: C_6  and  C_7 
REMARK       I    between atoms: C_7  and  N_9 
REMARK    2  A    between atoms: C_10  and  C_11 
REMARK    3  A    between atoms: N_12  and  C_16 
ROOT
ATOM      1  C   UNK d   1      56.810  87.459  21.478  0.00  0.00     0.275 C 
ATOM      2  O   UNK d   1      57.717  86.585  21.192  0.00  0.00    -0.266 OA
ATOM      3  N   UNK d   1      56.751  88.716  20.931  0.00  0.00    -0.348 N 
ATOM      4  C   UNK d   1      56.694  89.966  20.388  0.00  0.00     0.205 C 
ATOM      5  H   UNK d   1      57.877  88.465  20.198  0.00  0.00     0.163 HD
ENDROOT
BRANCH   1   6
ATOM      6  C   UNK d   1      55.853  86.904  22.473  0.00  0.00     0.183 A 
ATOM      7  C   UNK d   1      54.854  85.982  22.290  0.00  0.00     0.231 A 
ATOM      8  F   UNK d   1      54.508  85.365  21.133  0.00  0.00    -0.183 F 
ATOM      9  N   UNK d   1      54.201  85.737  23.467  0.00  0.00    -0.279 N 
ATOM     10  C   UNK d   1      54.807  86.516  24.377  0.00  0.00     0.137 A 
ATOM     11  C   UNK d   1      53.175  84.931  23.787  0.00  0.00     0.125 A 
ATOM     12  N   UNK d   1      55.790  87.211  23.783  0.00  0.00    -0.220 NA
ATOM     13  C   UNK d   1      54.334  86.461  25.665  0.00  0.00     0.053 A 
ATOM     14  C   UNK d   1      53.271  85.638  26.039  0.00  0.00     0.029 A 
ATOM     15  C   UNK d   1      52.678  84.857  25.083  0.00  0.00     0.050 A 
ATOM     16 Cl   UNK d   1      51.334  83.789  25.486  0.00  0.00    -0.083 Cl
ENDBRANCH   1   6
BRANCH   4  17
ATOM     17  C   UNK d   1      55.555  90.832  20.864  0.00  0.00     0.171 A 
ATOM     18  N   UNK d   1      54.523  91.242  20.121  0.00  0.00    -0.197 N 
ATOM     19  N   UNK d   1      53.739  91.976  20.891  0.00  0.00    -0.039 NA
ATOM     20  N   UNK d   1      54.239  92.046  22.106  0.00  0.00    -0.023 NA
ATOM     21  N   UNK d   1      55.366  91.334  22.080  0.00  0.00    -0.112 NA
BRANCH  18  22
ATOM     22  C   UNK d   1      54.371  90.889  18.745  0.00  0.00     0.062 A 
ATOM     23  C   UNK d   1      53.788  89.662  18.445  0.00  0.00     0.032 A 
ATOM     24  C   UNK d   1      53.627  89.251  17.128  0.00  0.00     0.002 A 
ATOM     25  C   UNK d   1      54.040  90.044  16.076  0.00  0.00     0.000 A 
ATOM     26  C   UNK d   1      54.616  91.259  16.381  0.00  0.00     0.002 A 
ATOM     27  C   UNK d   1      54.779  91.671  17.692  0.00  0.00     0.032 A 
ENDBRANCH  18  22
ENDBRANCH   4  17
TORSDOF 3
ENDMDL
