MODEL 1
REMARK VINA RESULT:    -9.189      0.000      0.000
REMARK INTER + INTRA:         -11.412
REMARK INTER:                 -10.801
REMARK INTRA:                  -0.611
REMARK UNBOUND:                -0.611
REMARK  3 active torsions:
REMARK  status: ('A' for Active; 'I' for Inactive)
REMARK    1  A    between atoms: C_4  and  N_8 
REMARK    2  A    between atoms: C_11  and  C_13 
REMARK    3  A    between atoms: N_18  and  C_21 
ROOT
ATOM      1  C   UNK d   1      50.034  98.849  29.079  0.00  0.00     0.209 C 
ATOM      2  O   UNK d   1      49.424  97.826  29.799  0.00  0.00    -0.170 OA
ATOM      3  N   UNK d   1      49.111  99.648  28.491  0.00  0.00    -0.354 N 
ATOM      4  C   UNK d   1      49.235 100.863  27.742  0.00  0.00     0.145 C 
ATOM      5  C   UNK d   1      47.924 101.668  27.859  0.00  0.00     0.161 C 
ATOM      6  N   UNK d   1      47.433 101.345  29.207  0.00  0.00    -0.211 N 
ATOM      7  C   UNK d   1      46.912 100.041  29.452  0.00  0.00     0.161 C 
ATOM      8  C   UNK d   1      47.705  99.137  28.565  0.00  0.00     0.145 C 
ENDROOT
BRANCH   1   9
ATOM      9  C   UNK d   1      51.443  98.580  29.300  0.00  0.00     0.151 A 
ATOM     10  N   UNK d   1      52.623  98.357  29.486  0.00  0.00    -0.126 NA
ATOM     11  N   UNK d   1      53.475  97.761  28.917  0.00  0.00    -0.060 NA
ATOM     12  N   UNK d   1      52.897  97.280  27.837  0.00  0.00    -0.224 N 
ATOM     13  C   UNK d   1      51.649  97.664  27.897  0.00  0.00     0.158 A 
BRANCH  12  14
ATOM     14  C   UNK d   1      53.644  96.489  26.885  0.00  0.00     0.061 A 
ATOM     15  C   UNK d   1      54.905  96.756  26.479  0.00  0.00     0.055 A 
ATOM     16  C   UNK d   1      55.559  95.940  25.565  0.00  0.00     0.036 A 
ATOM     17 Cl   UNK d   1      57.171  96.223  24.986  0.00  0.00    -0.084 Cl
ATOM     18  C   UNK d   1      54.891  94.789  25.034  0.00  0.00     0.024 A 
ATOM     19  C   UNK d   1      53.632  94.535  25.455  0.00  0.00     0.004 A 
ATOM     20  C   UNK d   1      53.046  95.367  26.347  0.00  0.00     0.032 A 
ENDBRANCH  12  14
ENDBRANCH   1   9
BRANCH   6  21
ATOM     21  C   UNK d   1      47.593 102.268  30.234  0.00  0.00     0.724 A 
ATOM     22  N   UNK d   1      46.624 102.409  31.233  0.00  0.00    -0.075 NA
ATOM     23  C   UNK d   1      46.684 103.210  32.238  0.00  0.00     0.138 A 
ATOM     24  C   UNK d   1      47.786 104.053  32.448  0.00  0.00     0.040 A 
ATOM     25  C   UNK d   1      48.751 103.926  31.458  0.00  0.00     0.138 A 
ATOM     26  N   UNK d   1      48.630 103.112  30.477  0.00  0.00    -0.075 NA
ENDBRANCH   6  21
TORSDOF 3
ENDMDL
