/Users/jonathanwahrer/Desktop/Msc/3_Semester/Drug_Design_Praktikum/waehrer_HTS_screening/HTS_experiment/out/docking_results/vina_output/3npc/1969_docked.pdbqt
 OpenBabel03192220553D

 26 29  0  0  0  0  0  0  0  0999 V2000
   50.0340   98.8490   29.0790 C   0  0  0  0  0  0  0  0  0  0  0  0
   49.4240   97.8260   29.7990 O   0  0  0  0  0  0  0  0  0  0  0  0
   49.1110   99.6480   28.4910 N   0  0  0  0  0  0  0  0  0  0  0  0
   49.2350  100.8630   27.7420 C   0  0  0  0  0  2  0  0  0  0  0  0
   47.9240  101.6680   27.8590 C   0  0  0  0  0  2  0  0  0  0  0  0
   47.4330  101.3450   29.2070 N   0  0  0  0  0  0  0  0  0  0  0  0
   46.9120  100.0410   29.4520 C   0  0  0  0  0  2  0  0  0  0  0  0
   47.7050   99.1370   28.5650 C   0  0  0  0  0  2  0  0  0  0  0  0
   51.4430   98.5800   29.3000 C   0  0  0  0  0  0  0  0  0  0  0  0
   52.6230   98.3570   29.4860 N   0  0  0  0  0  0  0  0  0  0  0  0
   53.4750   97.7610   28.9170 N   0  0  0  0  0  0  0  0  0  0  0  0
   52.8970   97.2800   27.8370 N   0  0  0  0  0  0  0  0  0  0  0  0
   51.6490   97.6640   27.8970 C   0  0  0  0  0  3  0  0  0  0  0  0
   53.6440   96.4890   26.8850 C   0  0  0  0  0  0  0  0  0  0  0  0
   54.9050   96.7560   26.4790 C   0  0  0  0  0  3  0  0  0  0  0  0
   55.5590   95.9400   25.5650 C   0  0  0  0  0  0  0  0  0  0  0  0
   57.1710   96.2230   24.9860 Cl  0  0  0  0  0  0  0  0  0  0  0  0
   54.8910   94.7890   25.0340 C   0  0  0  0  0  3  0  0  0  0  0  0
   53.6320   94.5350   25.4550 C   0  0  0  0  0  3  0  0  0  0  0  0
   53.0460   95.3670   26.3470 C   0  0  0  0  0  3  0  0  0  0  0  0
   47.5930  102.2680   30.2340 C   0  0  0  0  0  0  0  0  0  0  0  0
   46.6240  102.4090   31.2330 N   0  0  0  0  0  0  0  0  0  0  0  0
   46.6840  103.2100   32.2380 C   0  0  0  0  0  3  0  0  0  0  0  0
   47.7860  104.0530   32.4480 C   0  0  0  0  0  3  0  0  0  0  0  0
   48.7510  103.9260   31.4580 C   0  0  0  0  0  3  0  0  0  0  0  0
   48.6300  103.1120   30.4770 N   0  0  0  0  0  0  0  0  0  0  0  0
  1  9  1  0  0  0  0
  1  2  2  0  0  0  0
  3  8  1  0  0  0  0
  3  1  1  0  0  0  0
  4  5  1  0  0  0  0
  4  3  1  0  0  0  0
  5  6  1  0  0  0  0
  6  7  1  0  0  0  0
  6 21  1  0  0  0  0
  8  7  1  0  0  0  0
  9 10  1  0  0  0  0
 11 10  2  0  0  0  0
 12 13  1  0  0  0  0
 12 11  1  0  0  0  0
 13  9  2  0  0  0  0
 14 12  1  0  0  0  0
 15 14  1  0  0  0  0
 16 15  2  0  0  0  0
 17 16  1  0  0  0  0
 18 19  2  0  0  0  0
 18 16  1  0  0  0  0
 19 20  1  0  0  0  0
 20 14  2  0  0  0  0
 21 26  1  0  0  0  0
 21 22  2  0  0  0  0
 22 23  1  0  0  0  0
 23 24  2  0  0  0  0
 25 24  1  0  0  0  0
 26 25  2  0  0  0  0
M  END
>  <Pose>
1

>  <Score>
-9.189

$$$$
