MODEL 1
REMARK VINA RESULT:    -7.799      0.000      0.000
REMARK INTER + INTRA:          -9.218
REMARK INTER:                  -8.939
REMARK INTRA:                  -0.279
REMARK UNBOUND:                -0.279
REMARK  3 active torsions:
REMARK  status: ('A' for Active; 'I' for Inactive)
REMARK    1  A    between atoms: C_4  and  N_8 
REMARK    2  A    between atoms: C_12  and  C_20 
REMARK    3  A    between atoms: C_20  and  O_21 
ROOT
ATOM      1  N   UNK d   1      55.523  88.203  21.664  0.00  0.00    -0.252 N 
ATOM      2  C   UNK d   1      56.060  86.932  22.078  0.00  0.00     0.239 C 
ATOM      3  O   UNK d   1      55.855  85.846  21.488  0.00  0.00    -0.272 OA
ATOM      4  C   UNK d   1      56.871  87.109  23.280  0.00  0.00     0.135 C 
ATOM      5  C   UNK d   1      56.268  86.582  24.540  0.00  0.00     0.113 C 
ATOM      6  O   UNK d   1      56.905  87.419  25.490  0.00  0.00    -0.363 OA
ATOM      7  C   UNK d   1      56.389  88.645  24.997  0.00  0.00     0.159 C 
ATOM      8  C   UNK d   1      56.888  88.618  23.573  0.00  0.00     0.128 C 
ATOM      9  C   UNK d   1      55.877  89.155  22.661  0.00  0.00     0.239 C 
ATOM     10  O   UNK d   1      55.373  90.303  22.729  0.00  0.00    -0.272 OA
ATOM     11  C   UNK d   1      54.943  88.341  24.974  0.00  0.00     0.005 C 
ATOM     12  C   UNK d   1      54.865  87.015  24.718  0.00  0.00     0.012 C 
ENDROOT
BRANCH   1  13
ATOM     13  C   UNK d   1      54.772  88.502  20.494  0.00  0.00     0.046 A 
ATOM     14  C   UNK d   1      55.141  89.509  19.617  0.00  0.00     0.054 A 
ATOM     15  C   UNK d   1      54.413  89.797  18.482  0.00  0.00     0.036 A 
ATOM     16 Cl   UNK d   1      54.890  91.074  17.385  0.00  0.00    -0.084 Cl
ATOM     17  C   UNK d   1      53.273  89.083  18.171  0.00  0.00     0.024 A 
ATOM     18  C   UNK d   1      52.899  88.076  19.038  0.00  0.00     0.004 A 
ATOM     19  C   UNK d   1      53.633  87.787  20.181  0.00  0.00     0.030 A 
ENDBRANCH   1  13
BRANCH   5  20
ATOM     20  C   UNK d   1      56.520  85.141  24.812  0.00  0.00     0.207 C 
BRANCH  20  21
ATOM     21  O   UNK d   1      55.773  84.742  25.913  0.00  0.00    -0.398 OA
ATOM     22  H   UNK d   1      56.362  84.365  26.608  0.00  0.00     0.209 HD
ENDBRANCH  20  21
ENDBRANCH   5  20
TORSDOF 3
ENDMDL
