/Users/jonathanwahrer/Desktop/Msc/3_Semester/Drug_Design_Praktikum/waehrer_HTS_screening/HTS_experiment/out/docking_results/vina_output/3npc/1973_docked.pdbqt
 OpenBabel03192220553D

 24 27  0  0  1  0  0  0  0  0999 V2000
   53.0930   91.2980   17.4590 Cl  0  0  0  0  0  0  0  0  0  0  0  0
   53.8110   90.8970   19.0180 C   0  0  0  0  0  0  0  0  0  0  0  0
   53.9390   89.5930   19.4510 C   0  0  0  0  0  2  0  0  0  0  0  0
   54.4880   89.2650   20.6450 N   0  0  0  0  0  0  0  0  0  0  0  0
   54.9470   90.2040   21.4920 C   0  0  0  0  0  0  0  0  0  0  0  0
   55.5010   89.8940   22.6940 N   0  0  0  0  0  0  0  0  0  0  0  0
   55.6280   88.6260   23.1230 C   0  0  0  0  0  0  0  0  0  0  0  0
   55.1580   87.6430   22.2590 C   0  0  1  0  0  3  0  0  0  0  0  0
   55.2980   86.2400   22.7320 C   0  0  0  0  0  2  0  0  0  0  0  0
   54.8470   86.2580   24.1280 N   0  0  0  0  0  0  0  0  0  0  0  0
   55.5860   87.0680   25.0550 C   0  0  0  0  0  2  0  0  0  0  0  0
   56.2330   88.2730   24.4330 C   0  0  0  0  0  2  0  0  0  0  0  0
   53.7210   85.5070   24.5290 C   0  0  0  0  0  0  0  0  0  0  0  0
   53.1230   84.8320   23.6250 O   0  0  0  0  0  0  0  0  0  0  0  0
   54.6020   87.9860   21.0470 C   0  0  0  0  0  0  0  0  0  0  0  0
   54.1790   87.0670   20.2730 O   0  0  0  0  0  0  0  0  0  0  0  0
   54.8280   91.5200   21.0770 C   0  0  0  0  0  3  0  0  0  0  0  0
   54.2730   91.8800   19.8670 C   0  0  0  0  0  3  0  0  0  0  0  0
   53.2280   85.4790   25.9250 C   0  0  0  0  0  3  0  0  0  0  0  0
   54.2320   84.8620   26.8730 C   0  0  0  0  0  2  0  0  0  0  0  0
   54.8010   83.6520   26.1440 C   0  0  0  0  0  2  0  0  0  0  0  0
   53.7970   83.0120   25.4190 O   0  0  0  0  0  0  0  0  0  0  0  0
   52.5510   83.1390   26.0480 C   0  0  0  0  0  2  0  0  0  0  0  0
   52.0040   84.5520   25.9670 C   0  0  0  0  0  2  0  0  0  0  0  0
  1  2  1  0  0  0  0
  2  3  1  0  0  0  0
  2 18  2  0  0  0  0
  3  4  1  0  0  0  0
  4 15  1  0  0  0  0
  4  5  1  0  0  0  0
  5  6  1  0  0  0  0
  6  7  2  0  0  0  0
  7 12  1  0  0  0  0
  8  9  1  1  0  0  0
  8  7  1  0  0  0  0
  9 10  1  0  0  0  0
 10 13  1  0  0  0  0
 10 11  1  0  0  0  0
 12 11  1  0  0  0  0
 13 19  1  0  0  0  0
 14 13  2  0  0  0  0
 15  8  1  0  0  0  0
 16 15  2  0  0  0  0
 17  5  2  0  0  0  0
 18 17  1  0  0  0  0
 19 24  1  0  0  0  0
 19 20  1  0  0  0  0
 21 20  1  0  0  0  0
 22 23  1  0  0  0  0
 22 21  1  0  0  0  0
 24 23  1  0  0  0  0
M  END
>  <Pose>
1

>  <Score>
-7.821

$$$$
