MODEL 1
REMARK VINA RESULT:    -7.821      0.000      0.000
REMARK INTER + INTRA:          -7.270
REMARK INTER:                  -8.279
REMARK INTRA:                   1.008
REMARK UNBOUND:                 1.008
REMARK  1 active torsions:
REMARK  status: ('A' for Active; 'I' for Inactive)
REMARK       I    between atoms: N_10  and  C_13 
REMARK    1  A    between atoms: C_13  and  C_15 
ROOT
ATOM      1 Cl   UNK d   1      53.093  91.298  17.459  0.00  0.00    -0.083 Cl
ATOM      2  C   UNK d   1      53.811  90.897  19.018  0.00  0.00     0.050 A 
ATOM      3  C   UNK d   1      53.939  89.593  19.451  0.00  0.00     0.125 A 
ATOM      4  N   UNK d   1      54.488  89.265  20.645  0.00  0.00    -0.271 N 
ATOM      5  C   UNK d   1      54.947  90.204  21.492  0.00  0.00     0.137 A 
ATOM      6  N   UNK d   1      55.501  89.894  22.694  0.00  0.00    -0.234 NA
ATOM      7  C   UNK d   1      55.628  88.626  23.123  0.00  0.00     0.051 A 
ATOM      8  C   UNK d   1      55.158  87.643  22.259  0.00  0.00     0.053 A 
ATOM      9  C   UNK d   1      55.298  86.240  22.732  0.00  0.00     0.172 C 
ATOM     10  N   UNK d   1      54.847  86.258  24.128  0.00  0.00    -0.347 N 
ATOM     11  C   UNK d   1      55.586  87.068  25.055  0.00  0.00     0.132 C 
ATOM     12  C   UNK d   1      56.233  88.273  24.433  0.00  0.00     0.080 C 
ATOM     13  C   UNK d   1      53.721  85.507  24.529  0.00  0.00     0.224 C 
ATOM     14  O   UNK d   1      53.123  84.832  23.625  0.00  0.00    -0.273 OA
ATOM     15  C   UNK d   1      54.602  87.986  21.047  0.00  0.00     0.263 A 
ATOM     16  O   UNK d   1      54.179  87.067  20.273  0.00  0.00    -0.267 OA
ATOM     17  C   UNK d   1      54.828  91.520  21.077  0.00  0.00     0.053 A 
ATOM     18  C   UNK d   1      54.273  91.880  19.867  0.00  0.00     0.029 A 
ENDROOT
BRANCH  13  19
ATOM     19  C   UNK d   1      53.228  85.479  25.925  0.00  0.00     0.082 C 
ATOM     20  C   UNK d   1      54.232  84.862  26.873  0.00  0.00     0.040 C 
ATOM     21  C   UNK d   1      54.801  83.652  26.144  0.00  0.00     0.168 C 
ATOM     22  O   UNK d   1      53.797  83.012  25.419  0.00  0.00    -0.391 OA
ATOM     23  C   UNK d   1      52.551  83.139  26.048  0.00  0.00     0.168 C 
ATOM     24  C   UNK d   1      52.004  84.552  25.967  0.00  0.00     0.040 C 
ENDBRANCH  13  19
TORSDOF 1
ENDMDL
