MODEL 1
REMARK VINA RESULT:    -8.482      0.000      0.000
REMARK INTER + INTRA:         -10.218
REMARK INTER:                  -9.969
REMARK INTRA:                  -0.249
REMARK UNBOUND:                -0.249
REMARK  3 active torsions:
REMARK  status: ('A' for Active; 'I' for Inactive)
REMARK    1  A    between atoms: N_13  and  C_14 
REMARK    2  A    between atoms: C_14  and  N_15 
REMARK    3  A    between atoms: N_18  and  C_21 
ROOT
ATOM      1  F   UNK d   1      56.252  90.925  21.373  0.00  0.00    -0.204 F 
ATOM      2  C   UNK d   1      55.199  90.406  20.697  0.00  0.00     0.144 A 
ATOM      3  C   UNK d   1      54.969  89.042  20.781  0.00  0.00     0.094 A 
ATOM      4  C   UNK d   1      53.919  88.444  20.120  0.00  0.00     0.071 A 
ATOM      5  C   UNK d   1      53.092  89.255  19.362  0.00  0.00     0.051 A 
ATOM      6  C   UNK d   1      53.318  90.609  19.278  0.00  0.00     0.028 A 
ATOM      7  C   UNK d   1      54.370  91.200  19.940  0.00  0.00     0.046 A 
ATOM      8 Cl   UNK d   1      51.752  88.499  18.519  0.00  0.00    -0.083 Cl
ATOM      9  C   UNK d   1      53.889  87.016  20.363  0.00  0.00     0.254 A 
ATOM     10  O   UNK d   1      53.078  86.168  19.925  0.00  0.00    -0.281 OA
ATOM     11  C   UNK d   1      55.019  86.749  21.242  0.00  0.00     0.301 A 
ATOM     12  O   UNK d   1      55.344  85.606  21.693  0.00  0.00    -0.263 OA
ATOM     13  N   UNK d   1      55.663  87.990  21.485  0.00  0.00    -0.280 N 
ENDROOT
BRANCH  13  14
ATOM     14  C   UNK d   1      56.837  88.215  22.302  0.00  0.00     0.405 C 
BRANCH  14  15
ATOM     15  N   UNK d   1      56.544  88.299  23.718  0.00  0.00     0.109 N 
ATOM     16  C   UNK d   1      55.145  88.202  23.957  0.00  0.00     0.294 C 
ATOM     17  C   UNK d   1      54.745  87.321  25.087  0.00  0.00     0.154 C 
ATOM     18  N   UNK d   1      55.536  86.123  25.196  0.00  0.00    -0.361 N 
ATOM     19  C   UNK d   1      56.806  86.070  24.509  0.00  0.00     0.154 C 
ATOM     20  C   UNK d   1      57.371  87.474  24.532  0.00  0.00     0.294 C 
BRANCH  18  21
ATOM     21  C   UNK d   1      55.115  85.002  25.947  0.00  0.00     0.143 A 
ATOM     22  N   UNK d   1      55.650  83.786  25.750  0.00  0.00    -0.241 NA
ATOM     23  C   UNK d   1      55.266  82.703  26.453  0.00  0.00     0.138 A 
ATOM     24  C   UNK d   1      54.287  82.810  27.422  0.00  0.00     0.135 A 
ATOM     25  N   UNK d   1      53.749  84.023  27.625  0.00  0.00    -0.268 NA
ATOM     26  C   UNK d   1      54.131  85.107  26.923  0.00  0.00     0.166 A 
ENDBRANCH  18  21
ENDBRANCH  14  15
ENDBRANCH  13  14
TORSDOF 3
ENDMDL
