MODEL 1
REMARK VINA RESULT:    -8.508      0.000      0.000
REMARK INTER + INTRA:         -10.421
REMARK INTER:                 -10.000
REMARK INTRA:                  -0.421
REMARK UNBOUND:                -0.421
REMARK  3 active torsions:
REMARK  status: ('A' for Active; 'I' for Inactive)
REMARK    1  A    between atoms: N_15  and  C_19 
REMARK    2  A    between atoms: C_19  and  C_20 
REMARK    3  A    between atoms: C_20  and  C_21 
REMARK       I    between atoms: C_21  and  N_23 
ROOT
ATOM      1 Cl   UNK d   1      52.531  91.689  18.563  0.00  0.00    -0.084 Cl
ATOM      2  C   UNK d   1      52.630  89.958  18.803  0.00  0.00     0.036 A 
ATOM      3  C   UNK d   1      53.528  89.375  19.673  0.00  0.00     0.055 A 
ATOM      4  C   UNK d   1      53.617  88.013  19.870  0.00  0.00     0.077 A 
ATOM      5  C   UNK d   1      52.755  87.205  19.153  0.00  0.00     0.038 A 
ATOM      6  C   UNK d   1      51.852  87.776  18.280  0.00  0.00     0.019 A 
ATOM      7  C   UNK d   1      51.764  89.138  18.082  0.00  0.00     0.025 A 
ATOM      8  C   UNK d   1      52.832  85.741  19.349  0.00  0.00     0.153 A 
ATOM      9  N   UNK d   1      52.170  84.796  18.827  0.00  0.00    -0.270 NA
ATOM     10  C   UNK d   1      52.563  83.485  19.298  0.00  0.00     0.172 A 
ATOM     11  C   UNK d   1      53.661  83.743  20.277  0.00  0.00     0.171 A 
ATOM     12  N   UNK d   1      53.775  85.188  20.257  0.00  0.00    -0.160 N 
ATOM     13  C   UNK d   1      54.628  86.092  20.959  0.00  0.00     0.736 A 
ATOM     14  N   UNK d   1      55.597  85.862  21.863  0.00  0.00     0.024 NA
ATOM     15  N   UNK d   1      56.146  86.995  22.267  0.00  0.00    -0.203 N 
ATOM     16  C   UNK d   1      55.490  87.966  21.585  0.00  0.00     0.364 A 
ATOM     17  O   UNK d   1      55.746  89.183  21.713  0.00  0.00    -0.244 OA
ATOM     18  N   UNK d   1      54.556  87.437  20.778  0.00  0.00    -0.090 N 
ENDROOT
BRANCH  15  19
ATOM     19  C   UNK d   1      57.218  87.159  23.230  0.00  0.00     0.166 C 
BRANCH  19  20
ATOM     20  C   UNK d   1      56.667  86.920  24.643  0.00  0.00     0.124 C 
BRANCH  20  21
ATOM     21  C   UNK d   1      56.140  88.189  25.206  0.00  0.00     0.216 C 
ATOM     22  O   UNK d   1      56.858  89.123  25.642  0.00  0.00    -0.274 OA
ATOM     23  N   UNK d   1      54.733  88.357  25.257  0.00  0.00    -0.370 N 
ATOM     24  H   UNK d   1      54.071  87.591  25.478  0.00  0.00     0.159 HD
ATOM     25  H   UNK d   1      54.350  89.305  25.059  0.00  0.00     0.159 HD
ENDBRANCH  20  21
ENDBRANCH  19  20
ENDBRANCH  15  19
TORSDOF 3
ENDMDL
