MODEL 1
REMARK VINA RESULT:    -7.536      0.000      0.000
REMARK INTER + INTRA:          -7.615
REMARK INTER:                  -7.976
REMARK INTRA:                   0.361
REMARK UNBOUND:                 0.361
REMARK  1 active torsions:
REMARK  status: ('A' for Active; 'I' for Inactive)
REMARK    1  A    between atoms: C_11  and  C_12 
ROOT
ATOM      1 Cl   UNK d   1      56.842  87.465  21.210  0.00  0.00    -0.084 Cl
ATOM      2  C   UNK d   1      55.712  86.600  22.237  0.00  0.00     0.034 A 
ATOM      3  C   UNK d   1      54.653  85.899  21.695  0.00  0.00     0.034 A 
ATOM      4  C   UNK d   1      53.750  85.209  22.514  0.00  0.00    -0.009 A 
ATOM      5  C   UNK d   1      53.975  85.268  23.866  0.00  0.00     0.085 A 
ATOM      6  C   UNK d   1      55.051  85.981  24.412  0.00  0.00     0.039 A 
ATOM      7  C   UNK d   1      55.934  86.657  23.597  0.00  0.00     0.026 A 
ATOM      8  O   UNK d   1      53.092  84.590  24.702  0.00  0.00    -0.292 OA
ATOM      9  C   UNK d   1      52.008  83.866  24.235  0.00  0.00     0.166 A 
ATOM     10  C   UNK d   1      51.782  83.808  22.868  0.00  0.00     0.075 A 
ATOM     11  C   UNK d   1      52.635  84.479  21.880  0.00  0.00     0.107 A 
ATOM     12  C   UNK d   1      50.690  83.073  22.452  0.00  0.00     0.262 A 
ATOM     13  O   UNK d   1      50.433  82.983  21.209  0.00  0.00    -0.267 OA
ATOM     14  N   UNK d   1      49.852  82.427  23.277  0.00  0.00    -0.270 N 
ATOM     15  C   UNK d   1      50.113  82.512  24.604  0.00  0.00     0.332 A 
ATOM     16  O   UNK d   1      49.314  81.898  25.362  0.00  0.00    -0.246 OA
ATOM     17  N   UNK d   1      51.166  83.217  25.056  0.00  0.00    -0.283 N 
ATOM     18  C   UNK d   1      51.376  83.261  26.489  0.00  0.00     0.163 C 
ATOM     19  C   UNK d   1      48.709  81.659  22.782  0.00  0.00     0.164 C 
ENDROOT
BRANCH  11  20
ATOM     20  C   UNK d   1      53.198  83.457  20.938  0.00  0.00     0.078 A 
ATOM     21  C   UNK d   1      53.116  83.632  19.574  0.00  0.00     0.197 A 
ATOM     22  N   UNK d   1      53.630  82.697  18.730  0.00  0.00    -0.281 N 
ATOM     23  O   UNK d   1      52.516  84.755  19.077  0.00  0.00    -0.171 OA
ATOM     24  C   UNK d   1      54.226  81.581  19.219  0.00  0.00     0.332 A 
ATOM     25  C   UNK d   1      53.513  82.943  17.296  0.00  0.00     0.163 C 
ATOM     26  O   UNK d   1      54.690  80.735  18.406  0.00  0.00    -0.246 OA
ATOM     27  N   UNK d   1      54.321  81.383  20.544  0.00  0.00    -0.270 N 
ATOM     28  C   UNK d   1      53.815  82.305  21.384  0.00  0.00     0.262 A 
ATOM     29  C   UNK d   1      54.968  80.171  21.036  0.00  0.00     0.164 C 
ATOM     30  O   UNK d   1      53.910  82.107  22.604  0.00  0.00    -0.267 OA
ENDBRANCH  11  20
TORSDOF 1
ENDMDL
