/Users/jonathanwahrer/Desktop/Msc/3_Semester/Drug_Design_Praktikum/waehrer_HTS_screening/HTS_experiment/out/docking_results/vina_output/3npc/2003_docked.pdbqt
 OpenBabel03192220563D

 28 31  0  0  0  0  0  0  0  0999 V2000
   48.6770  103.3290   32.7920 N   0  0  0  0  0  0  0  0  0  0  0  0
   49.9350  102.8370   32.3210 C   0  0  0  0  0  2  0  0  0  0  0  0
   49.8130  101.9470   31.1130 C   0  0  0  0  0  2  0  0  0  0  0  0
   48.7680  102.3790   30.2140 N   0  0  0  0  0  0  0  0  0  0  0  0
   47.9620  103.5500   30.4370 C   0  0  0  0  0  3  0  0  0  0  0  0
   47.8930  104.0280   31.8370 C   0  0  0  0  0  3  0  0  0  0  0  0
   48.5250  101.6060   29.0460 C   0  0  0  0  0  0  0  0  0  0  0  0
   47.6170  101.9360   28.2130 O   0  0  0  0  0  0  0  0  0  0  0  0
   49.3110  100.4050   28.7630 C   0  0  0  0  0  0  0  0  0  0  0  0
   48.8890   99.1320   29.0880 C   0  0  0  0  0  3  0  0  0  0  0  0
   49.6650   98.0710   28.7950 N   0  0  0  0  0  0  0  0  0  0  0  0
   50.8610   98.1750   28.1890 C   0  0  0  0  0  0  0  0  0  0  0  0
   51.2870   99.4090   27.8650 N   0  0  0  0  0  0  0  0  0  0  0  0
   51.6340   97.0570   27.9030 C   0  0  0  0  0  3  0  0  0  0  0  0
   52.4830   99.5340   27.2560 C   0  0  0  0  0  3  0  0  0  0  0  0
   50.5400  100.4950   28.1410 C   0  0  0  0  0  0  0  0  0  0  0  0
   53.2740   98.4420   26.9590 C   0  0  0  0  0  3  0  0  0  0  0  0
   52.8650   97.1620   27.2780 C   0  0  0  0  0  3  0  0  0  0  0  0
   50.9370  101.6480   27.8390 O   0  0  0  0  0  0  0  0  0  0  0  0
   48.7210  104.0170   34.3380 S   0  0  0  0  0  0  0  0  0  0  0  0
   47.4970  104.8040   34.6110 O   0  0  0  0  0  0  0  0  0  0  0  0
   48.8550  102.9090   35.3580 O   0  0  0  0  0  0  0  0  0  0  0  0
   50.1470  105.0620   34.4550 C   0  0  0  0  0  0  0  0  0  0  0  0
   50.6100  106.3770   33.4740 S   0  0  0  0  0  0  0  0  0  0  0  0
   52.0620  106.8020   34.2600 C   0  0  0  0  0  0  0  0  0  0  0  0
   52.1410  105.8920   35.2780 C   0  0  0  0  0  3  0  0  0  0  0  0
   53.2160  108.0990   33.8860 Cl  0  0  0  0  0  0  0  0  0  0  0  0
   51.1570  104.9940   35.3810 C   0  0  0  0  0  3  0  0  0  0  0  0
  1 20  1  0  0  0  0
  2  1  1  0  0  0  0
  3  2  1  0  0  0  0
  4  5  1  0  0  0  0
  4  3  1  0  0  0  0
  5  6  2  0  0  0  0
  6  1  1  0  0  0  0
  7  4  1  0  0  0  0
  8  7  2  0  0  0  0
  9  7  1  0  0  0  0
  9 10  2  0  0  0  0
 11 10  1  0  0  0  0
 12 11  2  0  0  0  0
 13 16  1  0  0  0  0
 13 12  1  0  0  0  0
 14 12  1  0  0  0  0
 15 13  1  0  0  0  0
 16  9  1  0  0  0  0
 17 15  2  0  0  0  0
 17 18  1  0  0  0  0
 18 14  2  0  0  0  0
 19 16  2  0  0  0  0
 20 23  1  0  0  0  0
 20 21  2  0  0  0  0
 20 22  2  0  0  0  0
 23 28  2  0  0  0  0
 24 25  1  0  0  0  0
 24 23  1  0  0  0  0
 25 26  2  0  0  0  0
 26 28  1  0  0  0  0
 27 25  1  0  0  0  0
M  END
>  <Pose>
1

>  <Score>
-8.358

$$$$
