MODEL 1
REMARK VINA RESULT:    -8.358      0.000      0.000
REMARK INTER + INTRA:         -10.299
REMARK INTER:                  -9.823
REMARK INTRA:                  -0.476
REMARK UNBOUND:                -0.476
REMARK  3 active torsions:
REMARK  status: ('A' for Active; 'I' for Inactive)
REMARK    1  A    between atoms: S_1  and  N_4 
REMARK    2  A    between atoms: S_1  and  C_23 
REMARK       I    between atoms: N_7  and  C_10 
REMARK    3  A    between atoms: C_10  and  C_12 
ROOT
ATOM      1  N   UNK d   1      48.677 103.329  32.792  0.00  0.00    -0.303 N 
ATOM      2  C   UNK d   1      49.935 102.837  32.321  0.00  0.00     0.155 C 
ATOM      3  C   UNK d   1      49.813 101.947  31.113  0.00  0.00     0.146 C 
ATOM      4  N   UNK d   1      48.768 102.379  30.214  0.00  0.00    -0.345 N 
ATOM      5  C   UNK d   1      47.962 103.550  30.437  0.00  0.00     0.146 C 
ATOM      6  C   UNK d   1      47.893 104.028  31.837  0.00  0.00     0.155 C 
ATOM      7  C   UNK d   1      48.525 101.606  29.046  0.00  0.00     0.260 C 
ATOM      8  O   UNK d   1      47.617 101.936  28.213  0.00  0.00    -0.267 OA
ENDROOT
BRANCH   7   9
ATOM      9  C   UNK d   1      49.311 100.405  28.763  0.00  0.00     0.118 A 
ATOM     10  C   UNK d   1      48.889  99.132  29.088  0.00  0.00     0.141 A 
ATOM     11  N   UNK d   1      49.665  98.071  28.795  0.00  0.00    -0.242 NA
ATOM     12  C   UNK d   1      50.861  98.175  28.189  0.00  0.00     0.136 A 
ATOM     13  N   UNK d   1      51.287  99.409  27.865  0.00  0.00    -0.273 N 
ATOM     14  C   UNK d   1      51.634  97.057  27.903  0.00  0.00     0.051 A 
ATOM     15  C   UNK d   1      52.483  99.534  27.256  0.00  0.00     0.102 A 
ATOM     16  C   UNK d   1      50.540 100.495  28.141  0.00  0.00     0.270 A 
ATOM     17  C   UNK d   1      53.274  98.442  26.959  0.00  0.00     0.018 A 
ATOM     18  C   UNK d   1      52.865  97.162  27.278  0.00  0.00     0.005 A 
ATOM     19  O   UNK d   1      50.937 101.648  27.839  0.00  0.00    -0.266 OA
ENDBRANCH   7   9
BRANCH   1  20
ATOM     20  S   UNK d   1      48.721 104.017  34.338  0.00  0.00     0.267 S 
ATOM     21  O   UNK d   1      47.497 104.804  34.611  0.00  0.00    -0.200 OA
ATOM     22  O   UNK d   1      48.855 102.909  35.358  0.00  0.00    -0.200 OA
BRANCH  20  23
ATOM     23  C   UNK d   1      50.147 105.062  34.455  0.00  0.00     0.121 A 
ATOM     24  S   UNK d   1      50.610 106.377  33.474  0.00  0.00    -0.064 SA
ATOM     25  C   UNK d   1      52.062 106.802  34.260  0.00  0.00     0.075 A 
ATOM     26  C   UNK d   1      52.141 105.892  35.278  0.00  0.00     0.033 A 
ATOM     27 Cl   UNK d   1      53.216 108.099  33.886  0.00  0.00    -0.076 Cl
ATOM     28  C   UNK d   1      51.157 104.994  35.381  0.00  0.00     0.035 A 
ENDBRANCH  20  23
ENDBRANCH   1  20
TORSDOF 3
ENDMDL
