MODEL 1
REMARK VINA RESULT:    -9.179      0.000      0.000
REMARK INTER + INTRA:         -10.952
REMARK INTER:                 -10.789
REMARK INTRA:                  -0.163
REMARK UNBOUND:                -0.163
REMARK  3 active torsions:
REMARK  status: ('A' for Active; 'I' for Inactive)
REMARK    1  A    between atoms: S_1  and  N_4 
REMARK    2  A    between atoms: S_1  and  C_16 
REMARK       I    between atoms: N_7  and  C_10 
REMARK    3  A    between atoms: C_10  and  C_12 
ROOT
ATOM      1  S   UNK d   1      56.722  87.207  23.240  0.00  0.00     0.262 S 
ATOM      2  O   UNK d   1      57.731  87.532  24.330  0.00  0.00    -0.200 OA
ATOM      3  O   UNK d   1      57.443  86.186  22.363  0.00  0.00    -0.200 OA
ENDROOT
BRANCH   1   4
ATOM      4  N   UNK d   1      56.354  88.557  22.321  0.00  0.00    -0.304 N 
ATOM      5  C   UNK d   1      55.383  89.440  22.800  0.00  0.00     0.155 C 
ATOM      6  C   UNK d   1      55.335  90.758  22.013  0.00  0.00     0.146 C 
ATOM      7  N   UNK d   1      55.538  90.542  20.612  0.00  0.00    -0.349 N 
ATOM      8  C   UNK d   1      56.598  89.644  20.209  0.00  0.00     0.146 C 
ATOM      9  C   UNK d   1      54.730  91.188  19.669  0.00  0.00     0.224 C 
ATOM     10  C   UNK d   1      56.328  88.321  20.897  0.00  0.00     0.155 C 
ATOM     11  O   UNK d   1      53.814  91.963  20.043  0.00  0.00    -0.273 OA
BRANCH   9  12
ATOM     12  C   UNK d   1      54.905  90.994  18.195  0.00  0.00     0.078 C 
ATOM     13  C   UNK d   1      53.918  91.775  17.360  0.00  0.00     0.014 C 
ATOM     14  C   UNK d   1      53.007  90.551  17.411  0.00  0.00     0.002 C 
ATOM     15  C   UNK d   1      54.256  89.720  17.717  0.00  0.00     0.014 C 
ENDBRANCH   9  12
ENDBRANCH   1   4
BRANCH   1  16
ATOM     16  C   UNK d   1      55.374  86.369  23.978  0.00  0.00     0.104 A 
ATOM     17  C   UNK d   1      55.324  86.275  25.383  0.00  0.00     0.066 A 
ATOM     18  C   UNK d   1      54.322  85.578  26.019  0.00  0.00     0.098 A 
ATOM     19  C   UNK d   1      53.317  84.934  25.333  0.00  0.00     0.070 A 
ATOM     20  O   UNK d   1      54.294  85.501  27.412  0.00  0.00    -0.335 OA
ATOM     21  C   UNK d   1      53.361  85.024  23.964  0.00  0.00     0.058 A 
ATOM     22  N   UNK d   1      52.317  84.232  26.048  0.00  0.00    -0.323 N 
ATOM     23  C   UNK d   1      54.372  85.730  23.297  0.00  0.00     0.059 A 
ATOM     24 Cl   UNK d   1      54.314  85.861  21.555  0.00  0.00    -0.083 Cl
ATOM     25  C   UNK d   1      52.306  84.159  27.468  0.00  0.00     0.251 C 
ATOM     26  H   UNK d   1      51.556  83.744  25.521  0.00  0.00     0.169 HD
ATOM     27  O   UNK d   1      51.336  83.787  28.156  0.00  0.00    -0.270 OA
ATOM     28  C   UNK d   1      53.561  84.565  28.153  0.00  0.00     0.217 C 
ATOM     29  C   UNK d   1      54.445  83.365  28.408  0.00  0.00     0.050 C 
ENDBRANCH   1  16
TORSDOF 3
ENDMDL
