/Users/jonathanwahrer/Desktop/Msc/3_Semester/Drug_Design_Praktikum/waehrer_HTS_screening/HTS_experiment/out/docking_results/vina_output/3npc/2004_docked.pdbqt
 OpenBabel03192220563D

 29 32  0  0  1  0  0  0  0  0999 V2000
   56.7220   87.2070   23.2400 S   0  0  0  0  0  0  0  0  0  0  0  0
   57.7310   87.5320   24.3300 O   0  0  0  0  0  0  0  0  0  0  0  0
   57.4430   86.1860   22.3630 O   0  0  0  0  0  0  0  0  0  0  0  0
   56.3540   88.5570   22.3210 N   0  0  0  0  0  0  0  0  0  0  0  0
   55.3830   89.4400   22.8000 C   0  0  0  0  0  2  0  0  0  0  0  0
   55.3350   90.7580   22.0130 C   0  0  0  0  0  2  0  0  0  0  0  0
   55.5380   90.5420   20.6120 N   0  0  0  0  0  0  0  0  0  0  0  0
   56.5980   89.6440   20.2090 C   0  0  0  0  0  2  0  0  0  0  0  0
   54.7300   91.1880   19.6690 C   0  0  0  0  0  0  0  0  0  0  0  0
   56.3280   88.3210   20.8970 C   0  0  0  0  0  2  0  0  0  0  0  0
   53.8140   91.9630   20.0430 O   0  0  0  0  0  0  0  0  0  0  0  0
   54.9050   90.9940   18.1950 C   0  0  0  0  0  3  0  0  0  0  0  0
   53.9180   91.7750   17.3600 C   0  0  0  0  0  2  0  0  0  0  0  0
   53.0070   90.5510   17.4110 C   0  0  0  0  0  2  0  0  0  0  0  0
   54.2560   89.7200   17.7170 C   0  0  0  0  0  2  0  0  0  0  0  0
   55.3740   86.3690   23.9780 C   0  0  0  0  0  0  0  0  0  0  0  0
   55.3240   86.2750   25.3830 C   0  0  0  0  0  3  0  0  0  0  0  0
   54.3220   85.5780   26.0190 C   0  0  0  0  0  0  0  0  0  0  0  0
   53.3170   84.9340   25.3330 C   0  0  0  0  0  0  0  0  0  0  0  0
   54.2940   85.5010   27.4120 O   0  0  0  0  0  0  0  0  0  0  0  0
   53.3610   85.0240   23.9640 C   0  0  0  0  0  3  0  0  0  0  0  0
   52.3170   84.2320   26.0480 N   0  0  0  0  0  0  0  0  0  0  0  0
   54.3720   85.7300   23.2970 C   0  0  0  0  0  0  0  0  0  0  0  0
   54.3140   85.8610   21.5550 Cl  0  0  0  0  0  0  0  0  0  0  0  0
   52.3060   84.1590   27.4680 C   0  0  0  0  0  0  0  0  0  0  0  0
   51.5560   83.7440   25.5210 H   0  0  0  0  0  0  0  0  0  0  0  0
   51.3360   83.7870   28.1560 O   0  0  0  0  0  0  0  0  0  0  0  0
   53.5610   84.5650   28.1530 C   0  0  1  0  0  3  0  0  0  0  0  0
   54.4450   83.3650   28.4080 C   0  0  0  0  0  1  0  0  0  0  0  0
  1 16  1  0  0  0  0
  1  2  2  0  0  0  0
  3  1  2  0  0  0  0
  4  5  1  0  0  0  0
  4  1  1  0  0  0  0
  6  5  1  0  0  0  0
  7  6  1  0  0  0  0
  8  7  1  0  0  0  0
  8 10  1  0  0  0  0
  9 11  2  0  0  0  0
  9  7  1  0  0  0  0
 10  4  1  0  0  0  0
 12  9  1  0  0  0  0
 13 14  1  0  0  0  0
 13 12  1  0  0  0  0
 14 15  1  0  0  0  0
 15 12  1  0  0  0  0
 16 17  1  0  0  0  0
 17 18  2  0  0  0  0
 18 20  1  0  0  0  0
 19 18  1  0  0  0  0
 19 22  1  0  0  0  0
 20 28  1  0  0  0  0
 21 19  2  0  0  0  0
 22 25  1  0  0  0  0
 23 21  1  0  0  0  0
 23 16  2  0  0  0  0
 24 23  1  0  0  0  0
 25 28  1  0  0  0  0
 25 27  2  0  0  0  0
 26 22  1  0  0  0  0
 28 29  1  6  0  0  0
M  END
>  <Pose>
1

>  <Score>
-9.179

$$$$
