MODEL 1
REMARK VINA RESULT:    -9.103      0.000      0.000
REMARK INTER + INTRA:         -10.735
REMARK INTER:                 -10.167
REMARK INTRA:                  -0.568
REMARK UNBOUND:                -0.568
REMARK  2 active torsions:
REMARK  status: ('A' for Active; 'I' for Inactive)
REMARK    1  A    between atoms: C_4  and  N_8 
REMARK    2  A    between atoms: C_14  and  C_18 
ROOT
ATOM      1  N   UNK d   1      54.796  89.519  20.241  0.00  0.00    -0.246 N 
ATOM      2  C   UNK d   1      55.796  89.823  21.207  0.00  0.00     0.268 C 
ATOM      3  O   UNK d   1      56.111  90.974  21.554  0.00  0.00    -0.269 OA
ATOM      4  C   UNK d   1      56.382  88.569  21.710  0.00  0.00     0.285 C 
ATOM      5  O   UNK d   1      56.741  88.511  23.018  0.00  0.00    -0.260 OA
ATOM      6  N   UNK d   1      56.442  87.203  23.353  0.00  0.00    -0.264 N 
ATOM      7  C   UNK d   1      55.225  86.844  22.694  0.00  0.00     0.083 C 
ATOM      8  C   UNK d   1      55.168  87.688  21.671  0.00  0.00     0.080 C 
ATOM      9  C   UNK d   1      54.391  88.156  20.532  0.00  0.00     0.266 C 
ATOM     10  O   UNK d   1      53.532  87.455  19.940  0.00  0.00    -0.267 OA
ATOM     11  H   UNK d   1      57.030  86.619  23.969  0.00  0.00     0.194 HD
ENDROOT
BRANCH   1  12
ATOM     12  C   UNK d   1      54.232  90.304  19.197  0.00  0.00     0.047 A 
ATOM     13  C   UNK d   1      52.952  90.803  19.265  0.00  0.00     0.054 A 
ATOM     14  C   UNK d   1      52.486  91.564  18.196  0.00  0.00     0.036 A 
ATOM     15 Cl   UNK d   1      50.855  92.227  18.219  0.00  0.00    -0.084 Cl
ATOM     16  C   UNK d   1      53.294  91.802  17.104  0.00  0.00     0.024 A 
ATOM     17  C   UNK d   1      54.583  91.300  17.039  0.00  0.00     0.004 A 
ATOM     18  C   UNK d   1      55.046  90.555  18.081  0.00  0.00     0.030 A 
ENDBRANCH   1  12
BRANCH   7  19
ATOM     19  C   UNK d   1      54.296  85.780  23.020  0.00  0.00     0.036 A 
ATOM     20  C   UNK d   1      53.766  84.940  22.036  0.00  0.00     0.127 A 
ATOM     21  N   UNK d   1      52.929  84.057  22.601  0.00  0.00    -0.284 N 
ATOM     22  N   UNK d   1      52.901  84.298  23.913  0.00  0.00    -0.177 NA
ATOM     23  C   UNK d   1      52.150  82.997  21.972  0.00  0.00     0.179 C 
ATOM     24  C   UNK d   1      53.724  85.339  24.178  0.00  0.00     0.065 A 
ATOM     25  C   UNK d   1      53.962  85.931  25.519  0.00  0.00     0.073 C 
ENDBRANCH   7  19
TORSDOF 2
ENDMDL
