/Users/jonathanwahrer/Desktop/Msc/3_Semester/Drug_Design_Praktikum/waehrer_HTS_screening/HTS_experiment/out/docking_results/vina_output/3npc/2012_docked.pdbqt
 OpenBabel03192220563D

 25 28  0  0  1  0  0  0  0  0999 V2000
   54.7960   89.5190   20.2410 N   0  0  0  0  0  0  0  0  0  0  0  0
   55.7960   89.8230   21.2070 C   0  0  0  0  0  0  0  0  0  0  0  0
   56.1110   90.9740   21.5540 O   0  0  0  0  0  0  0  0  0  0  0  0
   56.3820   88.5690   21.7100 C   0  0  1  0  0  3  0  0  0  0  0  0
   56.7410   88.5110   23.0180 O   0  0  0  0  0  0  0  0  0  0  0  0
   56.4420   87.2030   23.3530 N   0  0  0  0  0  0  0  0  0  0  0  0
   55.2250   86.8440   22.6940 C   0  0  0  0  0  0  0  0  0  0  0  0
   55.1680   87.6880   21.6710 C   0  0  0  0  0  0  0  0  0  0  0  0
   54.3910   88.1560   20.5320 C   0  0  0  0  0  0  0  0  0  0  0  0
   53.5320   87.4550   19.9400 O   0  0  0  0  0  0  0  0  0  0  0  0
   57.0300   86.6190   23.9690 H   0  0  0  0  0  0  0  0  0  0  0  0
   54.2320   90.3040   19.1970 C   0  0  0  0  0  0  0  0  0  0  0  0
   52.9520   90.8030   19.2650 C   0  0  0  0  0  3  0  0  0  0  0  0
   52.4860   91.5640   18.1960 C   0  0  0  0  0  0  0  0  0  0  0  0
   50.8550   92.2270   18.2190 Cl  0  0  0  0  0  0  0  0  0  0  0  0
   53.2940   91.8020   17.1040 C   0  0  0  0  0  3  0  0  0  0  0  0
   54.5830   91.3000   17.0390 C   0  0  0  0  0  3  0  0  0  0  0  0
   55.0460   90.5550   18.0810 C   0  0  0  0  0  3  0  0  0  0  0  0
   54.2960   85.7800   23.0200 C   0  0  0  0  0  0  0  0  0  0  0  0
   53.7660   84.9400   22.0360 C   0  0  0  0  0  3  0  0  0  0  0  0
   52.9290   84.0570   22.6010 N   0  0  0  0  0  0  0  0  0  0  0  0
   52.9010   84.2980   23.9130 N   0  0  0  0  0  0  0  0  0  0  0  0
   52.1500   82.9970   21.9720 C   0  0  0  0  0  1  0  0  0  0  0  0
   53.7240   85.3390   24.1780 C   0  0  0  0  0  0  0  0  0  0  0  0
   53.9620   85.9310   25.5190 C   0  0  0  0  0  1  0  0  0  0  0  0
  1  9  1  0  0  0  0
  1  2  1  0  0  0  0
  2  3  2  0  0  0  0
  4  2  1  1  0  0  0
  4  5  1  0  0  0  0
  5  6  1  0  0  0  0
  6 11  1  0  0  0  0
  7 19  1  0  0  0  0
  7  6  1  0  0  0  0
  8  4  1  0  0  0  0
  8  7  2  0  0  0  0
  9  8  1  0  0  0  0
 10  9  2  0  0  0  0
 12 13  1  0  0  0  0
 12  1  1  0  0  0  0
 14 15  1  0  0  0  0
 14 13  2  0  0  0  0
 16 14  1  0  0  0  0
 17 16  2  0  0  0  0
 17 18  1  0  0  0  0
 18 12  2  0  0  0  0
 19 24  1  0  0  0  0
 20 21  1  0  0  0  0
 20 19  2  0  0  0  0
 21 22  1  0  0  0  0
 22 24  2  0  0  0  0
 23 21  1  0  0  0  0
 24 25  1  0  0  0  0
M  END
>  <Pose>
1

>  <Score>
-9.103

$$$$
