MODEL 1
REMARK VINA RESULT:    -8.135      0.000      0.000
REMARK INTER + INTRA:          -9.616
REMARK INTER:                  -9.086
REMARK INTRA:                  -0.530
REMARK UNBOUND:                -0.530
REMARK  2 active torsions:
REMARK  status: ('A' for Active; 'I' for Inactive)
REMARK    1  A    between atoms: C_4  and  C_10 
REMARK    2  A    between atoms: C_5  and  O_8 
ROOT
ATOM      1  C   UNK d   1      54.560  85.862  21.439  0.00  0.00     0.188 A 
ATOM      2  N   UNK d   1      54.505  87.082  20.912  0.00  0.00    -0.107 N 
ATOM      3  C   UNK d   1      55.550  87.833  21.365  0.00  0.00     0.735 A 
ATOM      4  N   UNK d   1      56.244  87.013  22.188  0.00  0.00     0.045 NA
ATOM      5  N   UNK d   1      55.670  85.842  22.242  0.00  0.00    -0.114 NA
ATOM      6  N   UNK d   1      55.510  89.067  20.839  0.00  0.00    -0.174 N 
ATOM      7  C   UNK d   1      54.456  89.159  20.037  0.00  0.00     0.165 A 
ATOM      8  C   UNK d   1      53.820  87.907  20.080  0.00  0.00     0.170 A 
ATOM      9  N   UNK d   1      52.718  87.701  19.347  0.00  0.00    -0.286 N 
ATOM     10  C   UNK d   1      52.255  88.730  18.586  0.00  0.00     0.332 A 
ATOM     11  O   UNK d   1      51.207  88.507  17.903  0.00  0.00    -0.246 OA
ATOM     12  N   UNK d   1      52.818  89.933  18.513  0.00  0.00    -0.269 N 
ATOM     13  C   UNK d   1      53.917  90.141  19.239  0.00  0.00     0.282 A 
ATOM     14  O   UNK d   1      54.490  91.261  19.207  0.00  0.00    -0.265 OA
ATOM     15  C   UNK d   1      52.252  90.995  17.664  0.00  0.00     0.164 C 
ATOM     16  C   UNK d   1      52.040  86.437  19.314  0.00  0.00     0.163 C 
ATOM     17  C   UNK d   1      56.449  90.142  21.088  0.00  0.00     0.176 C 
ENDROOT
BRANCH   1  18
ATOM     18  C   UNK d   1      53.722  84.676  21.300  0.00  0.00     0.047 A 
ATOM     19  C   UNK d   1      52.704  84.415  22.214  0.00  0.00     0.037 A 
ATOM     20  C   UNK d   1      51.877  83.341  22.029  0.00  0.00     0.012 A 
ATOM     21 Br   UNK d   1      50.471  82.966  23.278  0.00  0.00    -0.051 Br
ATOM     22  C   UNK d   1      51.992  82.472  20.958  0.00  0.00     0.022 A 
ATOM     23  C   UNK d   1      53.008  82.744  20.057  0.00  0.00     0.039 A 
ATOM     24  C   UNK d   1      53.838  83.811  20.232  0.00  0.00     0.082 A 
BRANCH  24  25
ATOM     25  O   UNK d   1      54.878  84.100  19.320  0.00  0.00    -0.355 OA
ATOM     26  C   UNK d   1      54.898  83.513  18.032  0.00  0.00     0.210 C 
ENDBRANCH  24  25
ENDBRANCH   1  18
TORSDOF 2
ENDMDL
