MODEL 1
REMARK VINA RESULT:    -9.161      0.000      0.000
REMARK INTER + INTRA:         -10.505
REMARK INTER:                 -10.232
REMARK INTRA:                  -0.272
REMARK UNBOUND:                -0.272
REMARK  2 active torsions:
REMARK  status: ('A' for Active; 'I' for Inactive)
REMARK    1  A    between atoms: C_7  and  C_11 
REMARK    2  A    between atoms: C_11  and  N_12 
ROOT
ATOM      1 Cl   UNK d   1      58.343  95.211  23.453  0.00  0.00    -0.083 Cl
ATOM      2  C   UNK d   1      57.313  96.022  24.621  0.00  0.00     0.050 A 
ATOM      3  C   UNK d   1      56.106  95.492  25.036  0.00  0.00     0.125 A 
ATOM      4  N   UNK d   1      55.316  96.129  25.939  0.00  0.00    -0.272 N 
ATOM      5  C   UNK d   1      55.652  97.308  26.489  0.00  0.00     0.137 A 
ATOM      6  N   UNK d   1      54.876  97.946  27.385  0.00  0.00    -0.233 NA
ATOM      7  C   UNK d   1      53.700  97.439  27.794  0.00  0.00     0.059 A 
ATOM      8  C   UNK d   1      53.342  96.213  27.229  0.00  0.00     0.103 A 
ATOM      9  C   UNK d   1      54.145  95.569  26.312  0.00  0.00     0.255 A 
ATOM     10  O   UNK d   1      53.814  94.451  25.800  0.00  0.00    -0.268 OA
ATOM     11  C   UNK d   1      56.861  97.863  26.089  0.00  0.00     0.053 A 
ATOM     12  C   UNK d   1      57.677  97.232  25.172  0.00  0.00     0.029 A 
ENDROOT
BRANCH   7  13
ATOM     13  C   UNK d   1      52.809  98.105  28.780  0.00  0.00     0.177 C 
BRANCH  13  14
ATOM     14  N   UNK d   1      51.548  98.346  28.182  0.00  0.00    -0.401 N 
ATOM     15  C   UNK d   1      51.515  99.116  26.996  0.00  0.00     0.122 C 
ATOM     16  C   UNK d   1      50.229  99.902  26.795  0.00  0.00     0.061 C 
ATOM     17  C   UNK d   1      49.985 100.619  28.074  0.00  0.00    -0.013 A 
ATOM     18  C   UNK d   1      50.089  99.857  29.219  0.00  0.00     0.061 A 
ATOM     19  C   UNK d   1      49.679 101.961  28.087  0.00  0.00     0.128 A 
ATOM     20  N   UNK d   1      49.878 100.460  30.398  0.00  0.00    -0.236 NA
ATOM     21  C   UNK d   1      50.425  98.422  29.054  0.00  0.00     0.177 C 
ATOM     22  C   UNK d   1      49.571 101.793  30.451  0.00  0.00     0.122 A 
ATOM     23  N   UNK d   1      49.478 102.509  29.306  0.00  0.00    -0.245 NA
ATOM     24  C   UNK d   1      49.336 102.472  31.751  0.00  0.00     0.093 C 
ENDBRANCH  13  14
ENDBRANCH   7  13
TORSDOF 2
ENDMDL
