MODEL 1
REMARK VINA RESULT:    -5.714      0.000      0.000
REMARK INTER + INTRA:          -4.788
REMARK INTER:                  -6.383
REMARK INTRA:                   1.594
REMARK UNBOUND:                 1.594
REMARK  2 active torsions:
REMARK  status: ('A' for Active; 'I' for Inactive)
REMARK    1  A    between atoms: C_4  and  C_10 
REMARK    2  A    between atoms: C_5  and  O_8 
ROOT
ATOM      1  C   UNK d   1      53.097  83.278  24.272  0.00  0.00     0.048 C 
ATOM      2  C   UNK d   1      51.744  82.761  23.710  0.00  0.00     0.178 C 
ATOM      3  C   UNK d   1      51.099  84.133  23.434  0.00  0.00     0.233 C 
ATOM      4  O   UNK d   1      50.553  84.427  22.387  0.00  0.00    -0.273 OA
ATOM      5  N   UNK d   1      51.239  85.000  24.583  0.00  0.00    -0.334 N 
ATOM      6  C   UNK d   1      51.517  84.285  25.842  0.00  0.00     0.105 C 
ATOM      7  N   UNK d   1      50.544  83.184  25.824  0.00  0.00    -0.334 N 
ATOM      8  C   UNK d   1      50.846  82.233  24.783  0.00  0.00     0.233 C 
ATOM      9  O   UNK d   1      50.405  81.069  24.763  0.00  0.00    -0.273 OA
ATOM     10  C   UNK d   1      52.898  83.600  25.655  0.00  0.00     0.064 C 
ATOM     11  C   UNK d   1      51.469  85.099  27.059  0.00  0.00     0.063 C 
ATOM     12  H   UNK d   1      51.172  86.020  24.540  0.00  0.00     0.165 HD
ATOM     13  H   UNK d   1      49.753  83.118  26.475  0.00  0.00     0.165 HD
ENDROOT
BRANCH   1  14
ATOM     14  C   UNK d   1      53.504  84.261  23.274  0.00  0.00    -0.018 A 
ATOM     15  C   UNK d   1      53.386  83.883  21.930  0.00  0.00     0.029 A 
ATOM     16  C   UNK d   1      53.832  84.717  20.902  0.00  0.00     0.011 A 
ATOM     17 Br   UNK d   1      53.666  84.165  19.089  0.00  0.00    -0.051 Br
ATOM     18  C   UNK d   1      54.393  85.925  21.166  0.00  0.00     0.022 A 
ATOM     19  C   UNK d   1      54.516  86.309  22.472  0.00  0.00     0.038 A 
ATOM     20  C   UNK d   1      54.080  85.497  23.505  0.00  0.00     0.074 A 
BRANCH  20  21
ATOM     21  O   UNK d   1      54.178  85.856  24.820  0.00  0.00    -0.355 OA
ATOM     22  C   UNK d   1      54.815  87.054  25.173  0.00  0.00     0.210 C 
ENDBRANCH  20  21
ENDBRANCH   1  14
TORSDOF 2
ENDMDL
