MODEL 1
REMARK VINA RESULT:    -6.908      0.000      0.000
REMARK INTER + INTRA:          -9.281
REMARK INTER:                  -8.725
REMARK INTRA:                  -0.557
REMARK UNBOUND:                -0.557
REMARK  5 active torsions:
REMARK  status: ('A' for Active; 'I' for Inactive)
REMARK    1  A    between atoms: C_11  and  C_23 
REMARK    2  A    between atoms: N_16  and  C_19 
REMARK    3  A    between atoms: C_19  and  C_20 
REMARK    4  A    between atoms: C_20  and  O_21 
REMARK    5  A    between atoms: C_23  and  O_24 
ROOT
ATOM      1 Cl   UNK d   1      50.347  83.355  24.454  0.00  0.00    -0.082 Cl
ATOM      2  C   UNK d   1      51.772  84.032  25.237  0.00  0.00     0.061 A 
ATOM      3  C   UNK d   1      52.781  84.575  24.421  0.00  0.00     0.066 A 
ATOM      4  C   UNK d   1      53.879  85.102  25.031  0.00  0.00     0.020 A 
ATOM      5  C   UNK d   1      54.020  85.107  26.412  0.00  0.00     0.019 A 
ATOM      6  C   UNK d   1      53.018  84.567  27.184  0.00  0.00    -0.060 A 
ATOM      7  C   UNK d   1      51.889  84.028  26.610  0.00  0.00     0.033 A 
ATOM      8  C   UNK d   1      53.196  84.585  28.679  0.00  0.00     0.048 C 
ATOM      9  C   UNK d   1      54.723  85.718  23.961  0.00  0.00     0.279 C 
ATOM     10  N   UNK d   1      56.113  85.586  24.144  0.00  0.00     0.116 N 
ATOM     11  C   UNK d   1      56.540  86.716  24.918  0.00  0.00     0.264 C 
ATOM     12  C   UNK d   1      55.435  87.689  25.007  0.00  0.00     0.130 C 
ATOM     13  C   UNK d   1      54.505  87.197  23.895  0.00  0.00     0.147 C 
ATOM     14  C   UNK d   1      55.106  87.828  22.734  0.00  0.00     0.235 C 
ATOM     15  O   UNK d   1      55.287  87.462  21.552  0.00  0.00    -0.272 OA
ATOM     16  N   UNK d   1      55.530  89.135  23.204  0.00  0.00    -0.286 N 
ATOM     17  C   UNK d   1      55.708  89.065  24.610  0.00  0.00     0.233 C 
ATOM     18  O   UNK d   1      56.035  90.013  25.337  0.00  0.00    -0.272 OA
ATOM     19  C   UNK d   1      54.199  85.123  22.734  0.00  0.00     0.267 C 
ATOM     20  O   UNK d   1      54.693  85.041  21.566  0.00  0.00    -0.270 OA
ATOM     21  N   UNK d   1      52.930  84.575  23.006  0.00  0.00    -0.323 N 
ATOM     22  H   UNK d   1      56.385  84.681  24.599  0.00  0.00     0.318 HD
ATOM     23  H   UNK d   1      52.195  84.220  22.344  0.00  0.00     0.169 HD
ENDROOT
BRANCH  11  24
ATOM     24  C   UNK d   1      57.868  87.272  24.439  0.00  0.00     0.148 C 
ATOM     25  C   UNK d   1      58.308  86.520  23.227  0.00  0.00     0.041 C 
BRANCH  24  26
ATOM     26  O   UNK d   1      58.805  87.455  25.412  0.00  0.00    -0.394 OA
ATOM     27  H   UNK d   1      59.371  88.260  25.294  0.00  0.00     0.210 HD
ENDBRANCH  24  26
ENDBRANCH  11  24
BRANCH  16  28
ATOM     28  C   UNK d   1      55.738  90.330  22.429  0.00  0.00     0.161 C 
BRANCH  28  29
ATOM     29  C   UNK d   1      54.611  90.735  21.554  0.00  0.00     0.187 C 
BRANCH  29  30
ATOM     30  O   UNK d   1      54.203  92.034  21.601  0.00  0.00    -0.394 OA
ATOM     31  C   UNK d   1      55.080  92.905  22.216  0.00  0.00     0.201 C 
ENDBRANCH  29  30
ENDBRANCH  28  29
ENDBRANCH  16  28
TORSDOF 5
ENDMDL
