MODEL 1
REMARK VINA RESULT:    -8.440      0.000      0.000
REMARK INTER + INTRA:         -12.229
REMARK INTER:                 -10.907
REMARK INTRA:                  -1.322
REMARK UNBOUND:                -1.322
REMARK  5 active torsions:
REMARK  status: ('A' for Active; 'I' for Inactive)
REMARK    1  A    between atoms: C_4  and  C_10 
REMARK    2  A    between atoms: C_5  and  O_8 
REMARK    3  A    between atoms: C_18  and  C_19 
REMARK    4  A    between atoms: C_19  and  N_20 
REMARK    5  A    between atoms: N_23  and  C_26 
ROOT
ATOM      1  C   UNK d   1      52.383  85.909  18.610  0.00  0.00     0.055 C 
ATOM      2  C   UNK d   1      52.827  87.074  18.956  0.00  0.00     0.128 A 
ATOM      3  O   UNK d   1      53.867  87.333  19.805  0.00  0.00    -0.305 OA
ATOM      4  C   UNK d   1      54.035  88.713  19.910  0.00  0.00     0.101 A 
ATOM      5  C   UNK d   1      53.134  89.398  19.161  0.00  0.00     0.051 A 
ATOM      6  C   UNK d   1      53.144  90.796  19.114  0.00  0.00     0.021 A 
ATOM      7  C   UNK d   1      54.053  91.543  19.818  0.00  0.00     0.041 A 
ATOM      8  C   UNK d   1      54.961  90.789  20.583  0.00  0.00     0.118 A 
ATOM      9  C   UNK d   1      54.981  89.437  20.645  0.00  0.00     0.039 A 
ATOM     10  O   UNK d   1      55.863  91.603  21.301  0.00  0.00    -0.191 OA
ATOM     11  C   UNK d   1      52.312  88.370  18.512  0.00  0.00     0.218 A 
ATOM     12  O   UNK d   1      51.347  88.573  17.719  0.00  0.00    -0.284 OA
ENDROOT
BRANCH   1  13
ATOM     13  C   UNK d   1      52.887  84.614  19.043  0.00  0.00     0.001 A 
ATOM     14  C   UNK d   1      52.600  84.145  20.298  0.00  0.00     0.033 A 
ATOM     15  C   UNK d   1      53.115  82.912  20.738  0.00  0.00     0.011 A 
ATOM     16 Br   UNK d   1      52.736  82.224  22.465  0.00  0.00    -0.051 Br
ATOM     17  C   UNK d   1      53.917  82.177  19.893  0.00  0.00     0.022 A 
ATOM     18  C   UNK d   1      54.205  82.642  18.651  0.00  0.00     0.039 A 
ATOM     19  C   UNK d   1      53.691  83.871  18.209  0.00  0.00     0.078 A 
BRANCH  19  20
ATOM     20  O   UNK d   1      53.942  84.387  16.985  0.00  0.00    -0.355 OA
ATOM     21  C   UNK d   1      54.374  83.711  15.855  0.00  0.00     0.210 C 
ENDBRANCH  19  20
ENDBRANCH   1  13
BRANCH   9  22
ATOM     22  C   UNK d   1      55.899  88.646  21.485  0.00  0.00     0.279 C 
BRANCH  22  23
ATOM     23  N   UNK d   1      55.181  87.853  22.455  0.00  0.00    -0.064 N 
ATOM     24  C   UNK d   1      55.205  88.531  23.739  0.00  0.00     0.254 C 
ATOM     25  C   UNK d   1      55.376  87.650  24.903  0.00  0.00     0.144 C 
ATOM     26  N   UNK d   1      54.839  86.332  24.783  0.00  0.00    -0.410 N 
ATOM     27  C   UNK d   1      54.382  85.919  23.535  0.00  0.00     0.144 C 
ATOM     28  C   UNK d   1      55.313  86.478  22.426  0.00  0.00     0.254 C 
ATOM     29  H   UNK d   1      54.127  88.033  22.118  0.00  0.00     0.280 HD
BRANCH  26  30
ATOM     30  C   UNK d   1      55.348  85.353  25.667  0.00  0.00     0.112 C 
ATOM     31  C   UNK d   1      54.646  84.041  25.647  0.00  0.00     0.026 C 
ENDBRANCH  26  30
ENDBRANCH  22  23
ENDBRANCH   9  22
TORSDOF 5
ENDMDL
