MODEL 1
REMARK VINA RESULT:    -8.489      0.000      0.000
REMARK INTER + INTRA:         -11.504
REMARK INTER:                 -10.970
REMARK INTRA:                  -0.534
REMARK UNBOUND:                -0.534
REMARK  5 active torsions:
REMARK  status: ('A' for Active; 'I' for Inactive)
REMARK    1  A    between atoms: S_1  and  N_4 
REMARK    2  A    between atoms: S_1  and  C_24 
REMARK       I    between atoms: N_7  and  C_10 
REMARK    3  A    between atoms: C_10  and  C_12 
REMARK    4  A    between atoms: C_12  and  S_13 
REMARK    5  A    between atoms: S_13  and  C_14 
ROOT
ATOM      1  N   UNK d   1      49.442 102.330  29.925  0.00  0.00    -0.203 NA
ATOM      2  C   UNK d   1      48.701 102.016  28.719  0.00  0.00     0.127 C 
ATOM      3  C   UNK d   1      49.600 101.309  27.713  0.00  0.00     0.141 C 
ATOM      4  N   UNK d   1      50.071 100.070  28.332  0.00  0.00    -0.349 N 
ATOM      5  C   UNK d   1      49.807  99.956  29.736  0.00  0.00     0.141 C 
ATOM      6  C   UNK d   1      50.243 101.239  30.392  0.00  0.00     0.127 C 
ATOM      7  C   UNK d   1      50.708  99.109  27.540  0.00  0.00     0.229 C 
ATOM      8  O   UNK d   1      50.858  99.346  26.273  0.00  0.00    -0.273 OA
ENDROOT
BRANCH   7   9
ATOM      9  C   UNK d   1      51.257  97.811  27.944  0.00  0.00     0.183 C 
BRANCH   9  10
ATOM     10  S   UNK d   1      53.036  97.780  28.122  0.00  0.00    -0.100 SA
BRANCH  10  11
ATOM     11  C   UNK d   1      53.865  96.685  26.983  0.00  0.00     0.110 A 
ATOM     12  N   UNK d   1      53.281  95.579  26.541  0.00  0.00    -0.234 NA
ATOM     13  C   UNK d   1      53.851  94.737  25.675  0.00  0.00     0.236 A 
ATOM     14  N   UNK d   1      55.109  95.031  25.221  0.00  0.00    -0.222 NA
ATOM     15  C   UNK d   1      55.726  96.138  25.648  0.00  0.00     0.161 A 
ATOM     16  N   UNK d   1      56.952  96.657  25.349  0.00  0.00    -0.256 N 
ATOM     17  C   UNK d   1      55.131  97.007  26.544  0.00  0.00     0.066 A 
ATOM     18  N   UNK d   1      57.103  97.779  26.022  0.00  0.00    -0.182 NA
ATOM     19  C   UNK d   1      57.904  96.079  24.446  0.00  0.00     0.182 C 
ATOM     20  C   UNK d   1      56.019  98.027  26.760  0.00  0.00     0.157 A 
ENDBRANCH  10  11
ENDBRANCH   9  10
ENDBRANCH   7   9
BRANCH   1  21
ATOM     21  S   UNK d   1      48.368 102.876  31.151  0.00  0.00     0.243 S 
ATOM     22  O   UNK d   1      47.525 103.971  30.538  0.00  0.00    -0.206 OA
ATOM     23  O   UNK d   1      47.434 101.805  31.601  0.00  0.00    -0.206 OA
BRANCH  21  24
ATOM     24  C   UNK d   1      49.288 103.511  32.496  0.00  0.00     0.074 A 
ATOM     25  C   UNK d   1      48.991 103.274  33.819  0.00  0.00     0.026 A 
ATOM     26  C   UNK d   1      49.749 103.809  34.832  0.00  0.00     0.025 A 
ATOM     27  C   UNK d   1      50.849 104.612  34.533  0.00  0.00     0.034 A 
ATOM     28  C   UNK d   1      51.163 104.862  33.193  0.00  0.00     0.025 A 
ATOM     29 Cl   UNK d   1      51.802 105.284  35.830  0.00  0.00    -0.084 Cl
ATOM     30  C   UNK d   1      50.388 104.314  32.194  0.00  0.00     0.026 A 
ENDBRANCH  21  24
ENDBRANCH   1  21
TORSDOF 5
ENDMDL
