MODEL 1
REMARK VINA RESULT:    -9.642      0.000      0.000
REMARK INTER + INTRA:         -12.147
REMARK INTER:                 -11.333
REMARK INTRA:                  -0.814
REMARK UNBOUND:                -0.814
REMARK  3 active torsions:
REMARK  status: ('A' for Active; 'I' for Inactive)
REMARK    1  A    between atoms: S_1  and  N_4 
REMARK    2  A    between atoms: S_1  and  C_24 
REMARK    3  A    between atoms: C_10  and  C_12 
ROOT
ATOM      1  N   UNK d   1      55.688  86.428  25.492  0.00  0.00    -0.304 N 
ATOM      2  C   UNK d   1      55.266  87.776  25.201  0.00  0.00     0.155 C 
ATOM      3  C   UNK d   1      56.201  88.338  24.133  0.00  0.00     0.145 C 
ATOM      4  N   UNK d   1      56.458  87.347  23.159  0.00  0.00    -0.356 N 
ATOM      5  C   UNK d   1      57.424  86.299  23.716  0.00  0.00     0.145 C 
ATOM      6  C   UNK d   1      57.020  86.108  25.134  0.00  0.00     0.155 C 
ATOM      7  C   UNK d   1      55.978  87.147  21.898  0.00  0.00     0.179 C 
ATOM      8  O   UNK d   1      56.678  86.128  21.292  0.00  0.00    -0.172 OA
ENDROOT
BRANCH   7   9
ATOM      9  C   UNK d   1      55.005  87.636  21.001  0.00  0.00     0.090 C 
ATOM     10  C   UNK d   1      54.641  88.721  20.402  0.00  0.00     0.063 A 
ATOM     11  N   UNK d   1      55.289  89.956  20.556  0.00  0.00    -0.297 N 
ATOM     12  C   UNK d   1      53.506  88.682  19.430  0.00  0.00     0.008 A 
ATOM     13  N   UNK d   1      54.944  91.138  19.864  0.00  0.00    -0.265 N 
ATOM     14  H   UNK d   1      56.045  90.070  21.234  0.00  0.00     0.187 HD
ATOM     15  C   UNK d   1      53.883  91.105  18.953  0.00  0.00     0.271 A 
ATOM     16  H   UNK d   1      55.511  92.015  20.065  0.00  0.00     0.190 HD
ATOM     17  O   UNK d   1      53.565  92.151  18.330  0.00  0.00    -0.266 OA
ATOM     18  C   UNK d   1      53.163  89.835  18.750  0.00  0.00     0.046 A 
ATOM     19  C   UNK d   1      52.124  89.866  17.836  0.00  0.00     0.018 A 
ATOM     20  C   UNK d   1      51.395  88.725  17.581  0.00  0.00     0.001 A 
ATOM     21  C   UNK d   1      51.740  87.583  18.259  0.00  0.00     0.001 A 
ATOM     22  C   UNK d   1      52.791  87.555  19.182  0.00  0.00     0.015 A 
ENDBRANCH   7   9
BRANCH   1  23
ATOM     23  S   UNK d   1      54.521  85.240  25.271  0.00  0.00     0.260 S 
ATOM     24  O   UNK d   1      53.838  85.503  23.935  0.00  0.00    -0.200 OA
ATOM     25  O   UNK d   1      55.231  83.905  25.083  0.00  0.00    -0.200 OA
BRANCH  23  26
ATOM     26  C   UNK d   1      53.385  85.060  26.549  0.00  0.00     0.079 A 
ATOM     27  C   UNK d   1      52.036  85.197  26.333  0.00  0.00     0.027 A 
ATOM     28  C   UNK d   1      51.141  85.047  27.377  0.00  0.00     0.025 A 
ATOM     29  C   UNK d   1      51.557  84.760  28.658  0.00  0.00     0.034 A 
ATOM     30  C   UNK d   1      52.917  84.622  28.883  0.00  0.00     0.025 A 
ATOM     31 Cl   UNK d   1      50.382  84.581  29.946  0.00  0.00    -0.084 Cl
ATOM     32  C   UNK d   1      53.808  84.774  27.822  0.00  0.00     0.027 A 
ENDBRANCH  23  26
ENDBRANCH   1  23
TORSDOF 3
ENDMDL
