/Users/jonathanwahrer/Desktop/Msc/3_Semester/Drug_Design_Praktikum/waehrer_HTS_screening/HTS_experiment/out/docking_results/vina_output/3npc/2043_docked.pdbqt
 OpenBabel03192220583D

 32 35  0  0  0  0  0  0  0  0999 V2000
   55.6880   86.4280   25.4920 N   0  0  0  0  0  0  0  0  0  0  0  0
   55.2660   87.7760   25.2010 C   0  0  0  0  0  2  0  0  0  0  0  0
   56.2010   88.3380   24.1330 C   0  0  0  0  0  2  0  0  0  0  0  0
   56.4580   87.3470   23.1590 N   0  0  0  0  0  0  0  0  0  0  0  0
   57.4240   86.2990   23.7160 C   0  0  0  0  0  2  0  0  0  0  0  0
   57.0200   86.1080   25.1340 C   0  0  0  0  0  2  0  0  0  0  0  0
   55.9780   87.1470   21.8980 C   0  0  0  0  0  0  0  0  0  0  0  0
   56.6780   86.1280   21.2920 O   0  0  0  0  0  0  0  0  0  0  0  0
   55.0050   87.6360   21.0010 C   0  0  0  0  0  3  0  0  0  0  0  0
   54.6410   88.7210   20.4020 C   0  0  0  0  0  0  0  0  0  0  0  0
   55.2890   89.9560   20.5560 N   0  0  0  0  0  0  0  0  0  0  0  0
   53.5060   88.6820   19.4300 C   0  0  0  0  0  0  0  0  0  0  0  0
   54.9440   91.1380   19.8640 N   0  0  0  0  0  0  0  0  0  0  0  0
   56.0450   90.0700   21.2340 H   0  0  0  0  0  0  0  0  0  0  0  0
   53.8830   91.1050   18.9530 C   0  0  0  0  0  0  0  0  0  0  0  0
   55.5110   92.0150   20.0650 H   0  0  0  0  0  0  0  0  0  0  0  0
   53.5650   92.1510   18.3300 O   0  0  0  0  0  0  0  0  0  0  0  0
   53.1630   89.8350   18.7500 C   0  0  0  0  0  0  0  0  0  0  0  0
   52.1240   89.8660   17.8360 C   0  0  0  0  0  3  0  0  0  0  0  0
   51.3950   88.7250   17.5810 C   0  0  0  0  0  3  0  0  0  0  0  0
   51.7400   87.5830   18.2590 C   0  0  0  0  0  3  0  0  0  0  0  0
   52.7910   87.5550   19.1820 C   0  0  0  0  0  3  0  0  0  0  0  0
   54.5210   85.2400   25.2710 S   0  0  0  0  0  0  0  0  0  0  0  0
   53.8380   85.5030   23.9350 O   0  0  0  0  0  0  0  0  0  0  0  0
   55.2310   83.9050   25.0830 O   0  0  0  0  0  0  0  0  0  0  0  0
   53.3850   85.0600   26.5490 C   0  0  0  0  0  0  0  0  0  0  0  0
   52.0360   85.1970   26.3330 C   0  0  0  0  0  3  0  0  0  0  0  0
   51.1410   85.0470   27.3770 C   0  0  0  0  0  3  0  0  0  0  0  0
   51.5570   84.7600   28.6580 C   0  0  0  0  0  0  0  0  0  0  0  0
   52.9170   84.6220   28.8830 C   0  0  0  0  0  3  0  0  0  0  0  0
   50.3820   84.5810   29.9460 Cl  0  0  0  0  0  0  0  0  0  0  0  0
   53.8080   84.7740   27.8220 C   0  0  0  0  0  3  0  0  0  0  0  0
  2  1  1  0  0  0  0
  3  2  1  0  0  0  0
  4  5  1  0  0  0  0
  4  3  1  0  0  0  0
  5  6  1  0  0  0  0
  6  1  1  0  0  0  0
  7  4  1  0  0  0  0
  8  7  2  0  0  0  0
  9  7  1  0  0  0  0
 10 11  1  0  0  0  0
 10  9  2  0  0  0  0
 11 14  1  0  0  0  0
 12 10  1  0  0  0  0
 13 16  1  0  0  0  0
 13 11  1  0  0  0  0
 15 13  1  0  0  0  0
 17 15  2  0  0  0  0
 18 15  1  0  0  0  0
 18 12  2  0  0  0  0
 19 18  1  0  0  0  0
 20 19  2  0  0  0  0
 20 21  1  0  0  0  0
 21 22  2  0  0  0  0
 22 12  1  0  0  0  0
 23  1  1  0  0  0  0
 23 26  1  0  0  0  0
 24 23  2  0  0  0  0
 25 23  2  0  0  0  0
 26 32  1  0  0  0  0
 27 26  2  0  0  0  0
 27 28  1  0  0  0  0
 28 29  2  0  0  0  0
 29 30  1  0  0  0  0
 29 31  1  0  0  0  0
 32 30  2  0  0  0  0
M  END
>  <Pose>
1

>  <Score>
-9.642

$$$$
