MODEL 1
REMARK VINA RESULT:    -9.083      0.000      0.000
REMARK INTER + INTRA:         -12.972
REMARK INTER:                 -12.269
REMARK INTRA:                  -0.703
REMARK UNBOUND:                -0.703
REMARK  8 active torsions:
REMARK  status: ('A' for Active; 'I' for Inactive)
REMARK    1  A    between atoms: C_5  and  C_8 
REMARK    2  A    between atoms: C_15  and  O_17 
REMARK    3  A    between atoms: O_17  and  C_18 
REMARK    4  A    between atoms: C_20  and  C_27 
REMARK    5  A    between atoms: C_21  and  O_26 
REMARK    6  A    between atoms: C_22  and  O_25 
REMARK    7  A    between atoms: C_23  and  O_24 
REMARK    8  A    between atoms: C_27  and  O_28 
ROOT
ATOM      1  C   UNK d   1      52.053  98.497  28.052  0.00  0.00     0.048 A 
ATOM      2  C   UNK d   1      51.920  98.568  29.436  0.00  0.00     0.159 A 
ATOM      3  O   UNK d   1      51.053  99.359  30.022  0.00  0.00    -0.321 OA
ATOM      4  C   UNK d   1      50.243 100.147  29.355  0.00  0.00     0.091 A 
ATOM      5  C   UNK d   1      50.302 100.146  27.981  0.00  0.00     0.049 A 
ATOM      6  C   UNK d   1      49.436 100.986  27.324  0.00  0.00     0.021 A 
ATOM      7  C   UNK d   1      48.541 101.802  27.968  0.00  0.00     0.038 A 
ATOM      8  C   UNK d   1      48.465 101.817  29.375  0.00  0.00     0.074 A 
ATOM      9  C   UNK d   1      49.334 100.975  30.026  0.00  0.00     0.075 A 
ATOM     10  C   UNK d   1      51.201  99.327  27.333  0.00  0.00     0.197 A 
ATOM     11  O   UNK d   1      51.255  99.326  26.075  0.00  0.00    -0.286 OA
ENDROOT
BRANCH   8  12
ATOM     12  O   UNK d   1      47.551 102.653  29.984  0.00  0.00    -0.318 OA
BRANCH  12  13
ATOM     13  C   UNK d   1      47.593 103.104  31.271  0.00  0.00     0.298 C 
ATOM     14  O   UNK d   1      46.365 102.936  31.964  0.00  0.00    -0.348 OA
ATOM     15  C   UNK d   1      46.696 102.926  33.302  0.00  0.00     0.179 C 
ATOM     16  C   UNK d   1      47.272 104.211  33.808  0.00  0.00     0.180 C 
ATOM     17  C   UNK d   1      48.282 104.806  32.856  0.00  0.00     0.183 C 
ATOM     18  C   UNK d   1      47.891 104.586  31.409  0.00  0.00     0.205 C 
BRANCH  15  19
ATOM     19  C   UNK d   1      45.556 102.493  34.188  0.00  0.00     0.198 C 
BRANCH  19  20
ATOM     20  O   UNK d   1      45.174 101.175  33.944  0.00  0.00    -0.398 OA
ATOM     21  H   UNK d   1      45.038 100.765  34.854  0.00  0.00     0.209 HD
ENDBRANCH  19  20
ENDBRANCH  15  19
BRANCH  16  22
ATOM     22  O   UNK d   1      47.966 103.915  34.993  0.00  0.00    -0.390 OA
ATOM     23  H   UNK d   1      47.655 103.057  35.375  0.00  0.00     0.210 HD
ENDBRANCH  16  22
BRANCH  17  24
ATOM     24  O   UNK d   1      48.470 106.148  33.157  0.00  0.00    -0.390 OA
ATOM     25  H   UNK d   1      47.681 106.711  32.888  0.00  0.00     0.210 HD
ENDBRANCH  17  24
BRANCH  18  26
ATOM     26  O   UNK d   1      48.962 104.971  30.612  0.00  0.00    -0.388 OA
ATOM     27  H   UNK d   1      49.809 104.928  31.116  0.00  0.00     0.210 HD
ENDBRANCH  18  26
ENDBRANCH  12  13
ENDBRANCH   8  12
BRANCH   1  28
ATOM     28  C   UNK d   1      53.017  97.617  27.426  0.00  0.00    -0.020 A 
ATOM     29  C   UNK d   1      54.327  97.978  27.189  0.00  0.00     0.014 A 
ATOM     30  C   UNK d   1      55.202  97.084  26.584  0.00  0.00     0.020 A 
ATOM     31  C   UNK d   1      54.811  95.822  26.200  0.00  0.00     0.011 A 
ATOM     32 Br   UNK d   1      56.027  94.602  25.368  0.00  0.00    -0.051 Br
ATOM     33  C   UNK d   1      53.493  95.458  26.438  0.00  0.00     0.020 A 
ATOM     34  C   UNK d   1      52.626  96.346  27.039  0.00  0.00     0.014 A 
ENDBRANCH   1  28
TORSDOF 8
ENDMDL
