/Users/jonathanwahrer/Desktop/Msc/3_Semester/Drug_Design_Praktikum/waehrer_HTS_screening/HTS_experiment/out/docking_results/vina_output/3npc/2063_docked.pdbqt
 OpenBabel03192220593D

 34 37  0  0  1  0  0  0  0  0999 V2000
   52.0530   98.4970   28.0520 C   0  0  0  0  0  0  0  0  0  0  0  0
   51.9200   98.5680   29.4360 C   0  0  0  0  0  3  0  0  0  0  0  0
   51.0530   99.3590   30.0220 O   0  0  0  0  0  0  0  0  0  0  0  0
   50.2430  100.1470   29.3550 C   0  0  0  0  0  0  0  0  0  0  0  0
   50.3020  100.1460   27.9810 C   0  0  0  0  0  0  0  0  0  0  0  0
   49.4360  100.9860   27.3240 C   0  0  0  0  0  3  0  0  0  0  0  0
   48.5410  101.8020   27.9680 C   0  0  0  0  0  3  0  0  0  0  0  0
   48.4650  101.8170   29.3750 C   0  0  0  0  0  0  0  0  0  0  0  0
   49.3340  100.9750   30.0260 C   0  0  0  0  0  3  0  0  0  0  0  0
   51.2010   99.3270   27.3330 C   0  0  0  0  0  0  0  0  0  0  0  0
   51.2550   99.3260   26.0750 O   0  0  0  0  0  0  0  0  0  0  0  0
   47.5510  102.6530   29.9840 O   0  0  0  0  0  0  0  0  0  0  0  0
   47.5930  103.1040   31.2710 C   0  0  2  0  0  3  0  0  0  0  0  0
   46.3650  102.9360   31.9640 O   0  0  0  0  0  0  0  0  0  0  0  0
   46.6960  102.9260   33.3020 C   0  0  1  0  0  3  0  0  0  0  0  0
   47.2720  104.2110   33.8080 C   0  0  2  0  0  3  0  0  0  0  0  0
   48.2820  104.8060   32.8560 C   0  0  1  0  0  3  0  0  0  0  0  0
   47.8910  104.5860   31.4090 C   0  0  1  0  0  3  0  0  0  0  0  0
   45.5560  102.4930   34.1880 C   0  0  0  0  0  2  0  0  0  0  0  0
   45.1740  101.1750   33.9440 O   0  0  0  0  0  0  0  0  0  0  0  0
   45.0380  100.7650   34.8540 H   0  0  0  0  0  0  0  0  0  0  0  0
   47.9660  103.9150   34.9930 O   0  0  0  0  0  0  0  0  0  0  0  0
   47.6550  103.0570   35.3750 H   0  0  0  0  0  0  0  0  0  0  0  0
   48.4700  106.1480   33.1570 O   0  0  0  0  0  0  0  0  0  0  0  0
   47.6810  106.7110   32.8880 H   0  0  0  0  0  0  0  0  0  0  0  0
   48.9620  104.9710   30.6120 O   0  0  0  0  0  0  0  0  0  0  0  0
   49.8090  104.9280   31.1160 H   0  0  0  0  0  0  0  0  0  0  0  0
   53.0170   97.6170   27.4260 C   0  0  0  0  0  0  0  0  0  0  0  0
   54.3270   97.9780   27.1890 C   0  0  0  0  0  3  0  0  0  0  0  0
   55.2020   97.0840   26.5840 C   0  0  0  0  0  3  0  0  0  0  0  0
   54.8110   95.8220   26.2000 C   0  0  0  0  0  0  0  0  0  0  0  0
   56.0270   94.6020   25.3680 Br  0  0  0  0  0  0  0  0  0  0  0  0
   53.4930   95.4580   26.4380 C   0  0  0  0  0  3  0  0  0  0  0  0
   52.6260   96.3460   27.0390 C   0  0  0  0  0  3  0  0  0  0  0  0
  1  2  2  0  0  0  0
  2  3  1  0  0  0  0
  4  3  1  0  0  0  0
  4  9  1  0  0  0  0
  5  4  2  0  0  0  0
  6  7  2  0  0  0  0
  6  5  1  0  0  0  0
  7  8  1  0  0  0  0
  8 12  1  0  0  0  0
  8  9  2  0  0  0  0
 10  5  1  0  0  0  0
 10  1  1  0  0  0  0
 11 10  2  0  0  0  0
 13 12  1  6  0  0  0
 13 18  1  0  0  0  0
 13 14  1  0  0  0  0
 14 15  1  0  0  0  0
 15 16  1  0  0  0  0
 15 19  1  1  0  0  0
 16 22  1  1  0  0  0
 17 24  1  1  0  0  0
 17 16  1  0  0  0  0
 18 26  1  6  0  0  0
 18 17  1  0  0  0  0
 20 19  1  0  0  0  0
 20 21  1  0  0  0  0
 22 23  1  0  0  0  0
 25 24  1  0  0  0  0
 26 27  1  0  0  0  0
 28  1  1  0  0  0  0
 29 28  1  0  0  0  0
 30 29  2  0  0  0  0
 31 33  2  0  0  0  0
 31 30  1  0  0  0  0
 32 31  1  0  0  0  0
 33 34  1  0  0  0  0
 34 28  2  0  0  0  0
M  END
>  <Pose>
1

>  <Score>
-9.083

$$$$
