MODEL 1
REMARK VINA RESULT:    -9.062      0.000      0.000
REMARK INTER + INTRA:         -12.403
REMARK INTER:                 -11.711
REMARK INTRA:                  -0.692
REMARK UNBOUND:                -0.692
REMARK  5 active torsions:
REMARK  status: ('A' for Active; 'I' for Inactive)
REMARK    1  A    between atoms: S_1  and  N_4 
REMARK    2  A    between atoms: S_1  and  C_22 
REMARK    3  A    between atoms: N_7  and  C_10 
REMARK    4  A    between atoms: C_10  and  C_11 
REMARK    5  A    between atoms: C_11  and  N_12 
ROOT
ATOM      1  N   UNK d   1      50.345 100.695  28.978  0.00  0.00    -0.203 NA
ATOM      2  C   UNK d   1      50.979 100.785  27.714  0.00  0.00     0.138 C 
ATOM      3  C   UNK d   1      51.951  99.701  27.346  0.00  0.00     0.288 C 
ATOM      4  N   UNK d   1      51.529  98.473  27.936  0.00  0.00     0.092 N 
ATOM      5  C   UNK d   1      51.658  98.655  29.381  0.00  0.00     0.288 C 
ATOM      6  C   UNK d   1      50.614  99.610  29.825  0.00  0.00     0.138 C 
ENDROOT
BRANCH   4   7
ATOM      7  C   UNK d   1      52.231  97.316  27.497  0.00  0.00     0.294 C 
BRANCH   7   8
ATOM      8  C   UNK d   1      53.547  97.167  28.181  0.00  0.00     0.186 C 
BRANCH   8   9
ATOM      9  N   UNK d   1      54.647  97.069  27.246  0.00  0.00    -0.216 N 
ATOM     10  N   UNK d   1      55.455  98.049  26.843  0.00  0.00    -0.149 NA
ATOM     11  C   UNK d   1      56.367  97.578  25.982  0.00  0.00     0.158 A 
ATOM     12  N   UNK d   1      56.133  96.268  25.835  0.00  0.00    -0.256 N 
ATOM     13  C   UNK d   1      57.419  98.127  25.270  0.00  0.00     0.053 A 
ATOM     14  C   UNK d   1      56.898  95.505  25.017  0.00  0.00     0.103 A 
ATOM     15  C   UNK d   1      55.062  95.964  26.625  0.00  0.00     0.350 A 
ATOM     16  C   UNK d   1      57.949  96.028  24.299  0.00  0.00     0.018 A 
ATOM     17  C   UNK d   1      58.214  97.377  24.431  0.00  0.00     0.005 A 
ATOM     18  O   UNK d   1      54.608  94.796  26.689  0.00  0.00    -0.244 OA
ENDBRANCH   8   9
ENDBRANCH   7   8
ENDBRANCH   4   7
BRANCH   1  19
ATOM     19  S   UNK d   1      48.644 100.873  28.774  0.00  0.00     0.250 S 
ATOM     20  O   UNK d   1      48.387 101.482  27.414  0.00  0.00    -0.205 OA
ATOM     21  O   UNK d   1      47.942  99.568  28.827  0.00  0.00    -0.205 OA
BRANCH  19  22
ATOM     22  C   UNK d   1      47.980 101.903  30.051  0.00  0.00     0.116 A 
ATOM     23  S   UNK d   1      48.739 103.139  30.946  0.00  0.00    -0.070 SA
ATOM     24  C   UNK d   1      47.433 103.605  31.934  0.00  0.00     0.052 A 
ATOM     25  C   UNK d   1      46.426 102.770  31.532  0.00  0.00     0.028 A 
ATOM     26 Br   UNK d   1      47.356 104.969  33.295  0.00  0.00    -0.043 Br
ATOM     27  C   UNK d   1      46.707 101.893  30.561  0.00  0.00     0.034 A 
ENDBRANCH  19  22
ENDBRANCH   1  19
TORSDOF 5
ENDMDL
