MODEL 1
REMARK VINA RESULT:   -10.051      0.000      0.000
REMARK INTER + INTRA:         -13.843
REMARK INTER:                 -13.282
REMARK INTRA:                  -0.561
REMARK UNBOUND:                -0.561
REMARK  6 active torsions:
REMARK  status: ('A' for Active; 'I' for Inactive)
REMARK    1  A    between atoms: C_5  and  C_8 
REMARK    2  A    between atoms: C_12  and  C_17 
REMARK    3  A    between atoms: C_17  and  N_18 
REMARK    4  A    between atoms: N_21  and  C_24 
REMARK    5  A    between atoms: C_24  and  C_25 
REMARK    6  A    between atoms: C_25  and  O_26 
ROOT
ATOM      1  C   UNK d   1      52.944  97.163  27.415  0.00  0.00     0.051 A 
ATOM      2  C   UNK d   1      51.754  96.505  27.203  0.00  0.00     0.032 A 
ATOM      3  C   UNK d   1      50.585  97.024  27.777  0.00  0.00    -0.000 A 
ATOM      4  C   UNK d   1      50.609  98.167  28.546  0.00  0.00     0.100 A 
ATOM      5  C   UNK d   1      49.502  98.759  29.154  0.00  0.00     0.039 A 
ATOM      6  C   UNK d   1      48.288  98.071  28.903  0.00  0.00     0.118 A 
ATOM      7  C   UNK d   1      48.221  96.917  28.128  0.00  0.00     0.041 A 
ATOM      8  C   UNK d   1      49.380  96.404  27.567  0.00  0.00     0.017 A 
ATOM      9  O   UNK d   1      47.072  98.489  29.407  0.00  0.00    -0.191 OA
ATOM     10  O   UNK d   1      51.731  98.741  28.716  0.00  0.00    -0.273 OA
ATOM     11  C   UNK d   1      52.895  98.327  28.209  0.00  0.00     0.299 A 
ATOM     12  O   UNK d   1      53.951  98.934  28.422  0.00  0.00    -0.259 OA
ENDROOT
BRANCH   5  13
ATOM     13  C   UNK d   1      49.423 100.012  29.819  0.00  0.00     0.279 C 
BRANCH  13  14
ATOM     14  N   UNK d   1      50.063 101.222  29.371  0.00  0.00    -0.064 N 
ATOM     15  C   UNK d   1      49.221 101.952  28.382  0.00  0.00     0.265 C 
ATOM     16  C   UNK d   1      47.793 101.897  28.794  0.00  0.00     0.300 C 
ATOM     17  N   UNK d   1      47.497 102.492  30.078  0.00  0.00     0.093 N 
ATOM     18  C   UNK d   1      48.594 102.437  30.984  0.00  0.00     0.300 C 
ATOM     19  C   UNK d   1      49.946 102.205  30.495  0.00  0.00     0.265 C 
ATOM     20  H   UNK d   1      51.026 101.225  29.127  0.00  0.00     0.280 HD
BRANCH  17  21
ATOM     21  C   UNK d   1      46.313 101.854  30.673  0.00  0.00     0.298 C 
BRANCH  21  22
ATOM     22  C   UNK d   1      45.878 102.538  31.948  0.00  0.00     0.194 C 
BRANCH  22  23
ATOM     23  O   UNK d   1      44.710 103.270  31.791  0.00  0.00    -0.399 OA
ATOM     24  H   UNK d   1      44.920 104.076  31.220  0.00  0.00     0.209 HD
ENDBRANCH  22  23
ENDBRANCH  21  22
ENDBRANCH  17  21
ENDBRANCH  13  14
ENDBRANCH   5  13
BRANCH   1  25
ATOM     25  C   UNK d   1      54.191  96.743  26.746  0.00  0.00    -0.020 A 
ATOM     26  C   UNK d   1      54.260  95.403  26.319  0.00  0.00     0.014 A 
ATOM     27  C   UNK d   1      55.377  94.952  25.638  0.00  0.00     0.024 A 
ATOM     28  C   UNK d   1      56.455  95.783  25.357  0.00  0.00     0.034 A 
ATOM     29 Cl   UNK d   1      57.860  95.246  24.403  0.00  0.00    -0.084 Cl
ATOM     30  C   UNK d   1      56.381  97.096  25.785  0.00  0.00     0.024 A 
ATOM     31  C   UNK d   1      55.255  97.524  26.465  0.00  0.00     0.014 A 
ENDBRANCH   1  25
TORSDOF 6
ENDMDL
