/Users/jonathanwahrer/Desktop/Msc/3_Semester/Drug_Design_Praktikum/waehrer_HTS_screening/HTS_experiment/out/docking_results/vina_output/3npc/2087_docked.pdbqt
 OpenBabel03192221003D

 32 35  0  0  0  0  0  0  0  0999 V2000
   53.2010   86.0950   20.4230 N   0  0  0  0  0  0  0  0  0  0  0  0
   53.8350   87.3080   20.3170 C   0  0  0  0  0  0  0  0  0  0  0  0
   54.7270   87.4560   21.3600 C   0  0  0  0  0  0  0  0  0  0  0  0
   54.6160   86.3350   22.0790 N   0  0  0  0  0  0  0  0  0  0  0  0
   53.6850   85.5020   21.5150 C   0  0  0  0  0  0  0  0  0  0  0  0
   55.4710   88.5720   21.4850 N   0  0  0  0  0  0  0  0  0  0  0  0
   55.3220   89.5390   20.5690 C   0  0  0  0  0  0  0  0  0  0  0  0
   56.0210   90.5760   20.6950 O   0  0  0  0  0  0  0  0  0  0  0  0
   54.4680   89.4340   19.5450 N   0  0  0  0  0  0  0  0  0  0  0  0
   53.6970   88.3160   19.3860 C   0  0  0  0  0  0  0  0  0  0  0  0
   52.9030   88.2500   18.4170 O   0  0  0  0  0  0  0  0  0  0  0  0
   56.4010   88.6840   22.5940 C   0  0  0  0  0  1  0  0  0  0  0  0
   54.3620   90.2040   18.8370 H   0  0  0  0  0  0  0  0  0  0  0  0
   53.3060   84.2970   22.1270 N   0  0  0  0  0  0  0  0  0  0  0  0
   53.3050   82.9740   21.6150 C   0  0  0  0  0  2  0  0  0  0  0  0
   52.2400   82.0950   22.2810 C   0  0  0  0  0  2  0  0  0  0  0  0
   51.1470   82.7790   22.8360 N   0  0  0  0  0  0  0  0  0  0  0  0
   51.4240   83.9020   23.6430 C   0  0  0  0  0  2  0  0  0  0  0  0
   52.8510   84.3910   23.5410 C   0  0  0  0  0  2  0  0  0  0  0  0
   49.8660   82.6390   22.2780 C   0  0  0  0  0  2  0  0  0  0  0  0
   48.9450   81.6900   22.9220 C   0  0  0  0  0  0  0  0  0  0  0  0
   48.6620   80.5700   22.4190 O   0  0  0  0  0  0  0  0  0  0  0  0
   48.3560   82.0160   24.1250 O   0  0  0  0  0  0  0  0  0  0  0  0
   48.9430   81.7130   25.3610 C   0  0  0  0  0  1  0  0  0  0  0  0
   52.2290   85.6100   19.4770 C   0  0  0  0  0  2  0  0  0  0  0  0
   52.8490   84.6130   18.5150 C   0  0  0  0  0  0  0  0  0  0  0  0
   52.4460   83.3150   18.6210 C   0  0  0  0  0  3  0  0  0  0  0  0
   52.9640   82.3700   17.7330 C   0  0  0  0  0  3  0  0  0  0  0  0
   53.8690   82.7490   16.7670 C   0  0  0  0  0  0  0  0  0  0  0  0
   54.5900   81.4770   15.5420 Br  0  0  0  0  0  0  0  0  0  0  0  0
   54.2560   84.0760   16.6890 C   0  0  0  0  0  3  0  0  0  0  0  0
   53.7450   85.0050   17.5630 C   0  0  0  0  0  3  0  0  0  0  0  0
  1  5  1  0  0  0  0
  2  1  1  0  0  0  0
  2  3  2  0  0  0  0
  3  6  1  0  0  0  0
  3  4  1  0  0  0  0
  5  4  2  0  0  0  0
  5 14  1  0  0  0  0
  6 12  1  0  0  0  0
  7  8  2  0  0  0  0
  7  6  1  0  0  0  0
  9  7  1  0  0  0  0
 10  9  1  0  0  0  0
 10  2  1  0  0  0  0
 11 10  2  0  0  0  0
 13  9  1  0  0  0  0
 14 19  1  0  0  0  0
 15 14  1  0  0  0  0
 15 16  1  0  0  0  0
 16 17  1  0  0  0  0
 17 18  1  0  0  0  0
 19 18  1  0  0  0  0
 20 17  1  0  0  0  0
 20 21  1  0  0  0  0
 21 23  1  0  0  0  0
 22 21  2  0  0  0  0
 23 24  1  0  0  0  0
 25  1  1  0  0  0  0
 26 27  1  0  0  0  0
 26 25  1  0  0  0  0
 28 27  2  0  0  0  0
 29 28  1  0  0  0  0
 30 29  1  0  0  0  0
 31 29  2  0  0  0  0
 31 32  1  0  0  0  0
 32 26  2  0  0  0  0
M  END
>  <Pose>
1

>  <Score>
-8.100

$$$$
