MODEL 1
REMARK VINA RESULT:    -8.492      0.000      0.000
REMARK INTER + INTRA:         -10.662
REMARK INTER:                  -9.981
REMARK INTRA:                  -0.681
REMARK UNBOUND:                -0.681
REMARK  3 active torsions:
REMARK  status: ('A' for Active; 'I' for Inactive)
REMARK    1  A    between atoms: C_5  and  C_8 
REMARK    2  A    between atoms: C_8  and  N_9 
REMARK    3  A    between atoms: C_13  and  N_14 
ROOT
ATOM      1  N   UNK d   1      53.432  87.110  20.098  0.00  0.00    -0.168 N 
ATOM      2  C   UNK d   1      52.993  88.146  19.369  0.00  0.00     0.167 A 
ATOM      3  C   UNK d   1      53.780  89.244  19.633  0.00  0.00     0.185 A 
ATOM      4  N   UNK d   1      54.679  88.841  20.519  0.00  0.00    -0.044 NA
ATOM      5  C   UNK d   1      54.494  87.548  20.820  0.00  0.00     0.707 A 
ATOM      6  N   UNK d   1      53.603  90.454  19.047  0.00  0.00    -0.286 N 
ATOM      7  C   UNK d   1      52.599  90.558  18.161  0.00  0.00     0.330 A 
ATOM      8  O   UNK d   1      52.447  91.686  17.629  0.00  0.00    -0.246 OA
ATOM      9  N   UNK d   1      51.797  89.522  17.858  0.00  0.00    -0.273 N 
ATOM     10  C   UNK d   1      51.964  88.317  18.435  0.00  0.00     0.280 A 
ATOM     11  O   UNK d   1      51.246  87.342  18.176  0.00  0.00    -0.265 OA
ATOM     12  C   UNK d   1      54.480  91.554  19.391  0.00  0.00     0.163 C 
ATOM     13  H   UNK d   1      51.022  89.611  17.167  0.00  0.00     0.173 HD
ENDROOT
BRANCH   1  14
ATOM     14  C   UNK d   1      52.880  85.777  20.125  0.00  0.00     0.186 C 
BRANCH  14  15
ATOM     15  C   UNK d   1      53.439  84.791  19.222  0.00  0.00    -0.039 A 
ATOM     16  C   UNK d   1      53.504  84.879  17.866  0.00  0.00     0.010 A 
ATOM     17  C   UNK d   1      54.094  83.908  17.060  0.00  0.00     0.019 A 
ATOM     18  C   UNK d   1      54.653  82.782  17.655  0.00  0.00     0.011 A 
ATOM     19 Br   UNK d   1      55.492  81.412  16.629  0.00  0.00    -0.051 Br
ATOM     20  C   UNK d   1      54.611  82.651  19.024  0.00  0.00     0.019 A 
ATOM     21  C   UNK d   1      54.017  83.634  19.779  0.00  0.00     0.010 A 
ENDBRANCH  14  15
ENDBRANCH   1  14
BRANCH   5  22
ATOM     22  N   UNK d   1      55.264  86.759  21.737  0.00  0.00    -0.213 N 
ATOM     23  C   UNK d   1      54.556  86.081  22.801  0.00  0.00     0.160 C 
ATOM     24  C   UNK d   1      55.015  86.682  24.121  0.00  0.00     0.136 C 
ATOM     25  N   UNK d   1      56.301  87.291  24.037  0.00  0.00    -0.414 N 
ATOM     26  C   UNK d   1      57.209  86.713  23.103  0.00  0.00     0.136 C 
ATOM     27  C   UNK d   1      56.377  88.689  24.231  0.00  0.00     0.143 C 
ATOM     28  C   UNK d   1      56.693  86.602  21.691  0.00  0.00     0.160 C 
ENDBRANCH   5  22
TORSDOF 3
ENDMDL
