MODEL 1
REMARK VINA RESULT:    -7.836      0.000      0.000
REMARK INTER + INTRA:          -8.065
REMARK INTER:                  -8.065
REMARK INTRA:                   0.000
REMARK UNBOUND:                 0.000
REMARK  1 active torsions:
REMARK  status: ('A' for Active; 'I' for Inactive)
REMARK    1  A    between atoms: C_12  and  N_16 
ROOT
ATOM      1 Cl   UNK d   1      52.784  85.135  25.724  0.00  0.00    -0.082 Cl
ATOM      2  C   UNK d   1      52.382  84.116  27.090  0.00  0.00     0.061 A 
ATOM      3  C   UNK d   1      51.305  84.431  27.919  0.00  0.00     0.065 A 
ATOM      4  C   UNK d   1      50.960  83.664  28.992  0.00  0.00    -0.002 A 
ATOM      5  C   UNK d   1      51.739  82.538  29.225  0.00  0.00     0.011 A 
ATOM      6  C   UNK d   1      52.805  82.209  28.416  0.00  0.00     0.002 A 
ATOM      7  C   UNK d   1      53.138  82.997  27.337  0.00  0.00     0.026 A 
ATOM      8  C   UNK d   1      49.787  84.268  29.657  0.00  0.00     0.146 A 
ATOM      9  C   UNK d   1      50.142  84.686  31.062  0.00  0.00     0.071 A 
ATOM     10  C   UNK d   1      49.497  84.277  32.118  0.00  0.00     0.060 A 
ATOM     11  N   UNK d   1      48.387  83.386  32.023  0.00  0.00    -0.342 N 
ATOM     12  C   UNK d   1      47.987  82.943  30.739  0.00  0.00     0.118 A 
ATOM     13  C   UNK d   1      48.629  83.349  29.668  0.00  0.00     0.093 A 
ATOM     14  C   UNK d   1      48.184  82.868  28.367  0.00  0.00     0.101 C 
ATOM     15  N   UNK d   1      47.845  82.492  27.327  0.00  0.00    -0.191 NA
ATOM     16  C   UNK d   1      50.111  84.883  33.318  0.00  0.00     0.106 A 
ATOM     17  O   UNK d   1      51.146  85.660  32.857  0.00  0.00    -0.301 OA
ATOM     18  C   UNK d   1      51.213  85.579  31.485  0.00  0.00     0.294 A 
ATOM     19  O   UNK d   1      52.042  86.161  30.702  0.00  0.00    -0.259 OA
ATOM     20  C   UNK d   1      50.533  83.781  34.264  0.00  0.00     0.053 C 
ATOM     21  C   UNK d   1      49.135  85.775  34.063  0.00  0.00     0.053 C 
ATOM     22  C   UNK d   1      49.487  85.474  28.851  0.00  0.00     0.246 A 
ATOM     23  O   UNK d   1      48.541  86.315  29.058  0.00  0.00    -0.271 OA
ATOM     24  N   UNK d   1      50.430  85.541  27.805  0.00  0.00    -0.324 N 
ATOM     25  H   UNK d   1      47.868  83.056  32.863  0.00  0.00     0.167 HD
ATOM     26  H   UNK d   1      50.446  86.312  27.071  0.00  0.00     0.169 HD
ENDROOT
BRANCH  12  27
ATOM     27  N   UNK d   1      46.883  82.050  30.563  0.00  0.00    -0.384 N 
ATOM     28  H   UNK d   1      47.032  81.089  30.227  0.00  0.00     0.157 HD
ATOM     29  H   UNK d   1      45.939  82.391  30.780  0.00  0.00     0.157 HD
ENDBRANCH  12  27
TORSDOF 1
ENDMDL
