MODEL 1
REMARK VINA RESULT:    -8.253      0.000      0.000
REMARK INTER + INTRA:          -8.993
REMARK INTER:                  -8.735
REMARK INTRA:                  -0.258
REMARK UNBOUND:                -0.258
REMARK  1 active torsions:
REMARK  status: ('A' for Active; 'I' for Inactive)
REMARK    1  A    between atoms: C_5  and  N_8 
ROOT
ATOM      1  N   UNK d   1      49.688 100.085  28.242  0.00  0.00    -0.250 N 
ATOM      2  C   UNK d   1      48.354  99.851  28.716  0.00  0.00     0.263 C 
ATOM      3  O   UNK d   1      47.893  98.756  29.124  0.00  0.00    -0.270 OA
ATOM      4  C   UNK d   1      47.571 101.106  28.656  0.00  0.00     0.259 C 
ATOM      5  O   UNK d   1      46.938 101.399  29.859  0.00  0.00    -0.266 OA
ATOM      6  N   UNK d   1      47.870 101.663  30.760  0.00  0.00    -0.288 N 
ATOM      7  C   UNK d   1      49.052 102.094  30.156  0.00  0.00     0.125 C 
ATOM      8  C   UNK d   1      48.692 102.140  28.670  0.00  0.00     0.144 C 
ATOM      9  C   UNK d   1      49.716 101.455  27.846  0.00  0.00     0.240 C 
ATOM     10  O   UNK d   1      50.490 101.927  26.960  0.00  0.00    -0.272 OA
ATOM     11  C   UNK d   1      49.697 103.327  30.626  0.00  0.00     0.028 C 
ATOM     12  C   UNK d   1      49.094 104.032  31.777  0.00  0.00     0.004 C 
ATOM     13  C   UNK d   1      48.492 103.008  32.714  0.00  0.00     0.022 C 
ATOM     14  C   UNK d   1      47.422 102.292  31.933  0.00  0.00     0.150 C 
ENDROOT
BRANCH   1  15
ATOM     15  C   UNK d   1      50.773  99.157  28.172  0.00  0.00     0.045 A 
ATOM     16  C   UNK d   1      50.661  97.905  27.608  0.00  0.00     0.032 A 
ATOM     17  C   UNK d   1      51.718  97.012  27.545  0.00  0.00     0.026 A 
ATOM     18  C   UNK d   1      52.951  97.358  28.057  0.00  0.00     0.034 A 
ATOM     19 Cl   UNK d   1      54.298  96.236  27.982  0.00  0.00    -0.084 Cl
ATOM     20  C   UNK d   1      53.075  98.610  28.624  0.00  0.00     0.026 A 
ATOM     21  C   UNK d   1      52.017  99.497  28.684  0.00  0.00     0.032 A 
ENDBRANCH   1  15
TORSDOF 1
ENDMDL
