/Users/jonathanwahrer/Desktop/Msc/3_Semester/Drug_Design_Praktikum/waehrer_HTS_screening/HTS_experiment/out/docking_results/vina_output/3npc/2116_docked.pdbqt
 OpenBabel03192221013D

 33 36  0  0  0  0  0  0  0  0999 V2000
   52.6420   86.4790   19.1760 C   0  0  0  0  0  0  0  0  0  0  0  0
   53.3740   86.5630   20.2750 N   0  0  0  0  0  4  0  0  0  0  0  0
   54.0800   87.6490   20.6340 C   0  0  0  0  0  0  0  0  0  0  0  0
   54.0230   88.7110   19.8010 N   0  0  0  0  0  0  0  0  0  0  0  0
   53.2890   88.6850   18.6570 C   0  0  0  0  0  0  0  0  0  0  0  0
   52.6010   87.5540   18.3610 N   0  0  0  0  0  2  0  0  0  0  0  0
   51.9530   85.2750   18.8620 N   0  0  0  0  0  0  0  0  0  0  0  0
   50.9370   85.2250   18.9990 H   0  0  0  0  0  0  0  0  0  0  0  0
   52.6430   84.1750   18.3780 N   0  0  0  0  0  0  0  0  0  0  0  0
   53.4860   84.2210   17.4050 C   0  0  0  0  0  3  0  0  0  0  0  0
   54.1810   83.0410   16.9320 C   0  0  0  0  0  0  0  0  0  0  0  0
   54.9600   82.2920   17.8130 C   0  0  0  0  0  0  0  0  0  0  0  0
   55.6580   81.1790   17.4220 C   0  0  0  0  0  3  0  0  0  0  0  0
   55.6200   80.7330   16.1150 C   0  0  0  0  0  0  0  0  0  0  0  0
   54.8500   81.4600   15.2220 C   0  0  0  0  0  0  0  0  0  0  0  0
   54.7700   80.8700   13.4160 Br  0  0  0  0  0  0  0  0  0  0  0  0
   54.1550   82.5820   15.6340 C   0  0  0  0  0  3  0  0  0  0  0  0
   55.0020   82.7370   19.1390 O   0  0  0  0  0  0  0  0  0  0  0  0
   54.2000   83.2440   19.5010 H   0  0  0  0  0  0  0  0  0  0  0  0
   56.3320   79.5990   15.7290 O   0  0  0  0  0  0  0  0  0  0  0  0
   56.1200   79.0580   14.9050 H   0  0  0  0  0  0  0  0  0  0  0  0
   54.8650   87.6920   21.8380 N   0  0  0  0  0  0  0  0  0  0  0  0
   55.5820   88.8740   22.2200 C   0  0  0  0  0  2  0  0  0  0  0  0
   56.1440   88.8970   23.5880 C   0  0  0  0  0  2  0  0  0  0  0  0
   56.2280   87.6540   24.1990 O   0  0  0  0  0  0  0  0  0  0  0  0
   55.0410   86.9410   24.0980 C   0  0  0  0  0  2  0  0  0  0  0  0
   54.9120   86.5150   22.6560 C   0  0  0  0  0  2  0  0  0  0  0  0
   53.2510   89.7950   17.7890 N   0  0  0  0  0  0  0  0  0  0  0  0
   52.2840   90.8490   17.9600 C   0  0  0  0  0  2  0  0  0  0  0  0
   53.1030   92.1470   18.0050 C   0  0  0  0  0  2  0  0  0  0  0  0
   53.9170   92.2020   16.8920 O   0  0  0  0  0  0  0  0  0  0  0  0
   54.9280   91.2460   16.9770 C   0  0  0  0  0  2  0  0  0  0  0  0
   54.2070   89.9060   16.7160 C   0  0  0  0  0  2  0  0  0  0  0  0
  1  2  2  0  0  0  0
  2  3  2  0  0  0  0
  3 22  1  0  0  0  0
  4  3  1  0  0  0  0
  5  4  2  0  0  0  0
  6  5  1  0  0  0  0
  6  1  1  0  0  0  0
  7  8  1  0  0  0  0
  7  1  1  0  0  0  0
  9  7  1  0  0  0  0
 10  9  2  0  0  0  0
 11 10  1  0  0  0  0
 11 12  1  0  0  0  0
 12 18  1  0  0  0  0
 13 12  2  0  0  0  0
 14 13  1  0  0  0  0
 15 17  1  0  0  0  0
 15 14  2  0  0  0  0
 16 15  1  0  0  0  0
 17 11  2  0  0  0  0
 18 19  1  0  0  0  0
 20 14  1  0  0  0  0
 21 20  1  0  0  0  0
 22 23  1  0  0  0  0
 22 27  1  0  0  0  0
 23 24  1  0  0  0  0
 24 25  1  0  0  0  0
 26 25  1  0  0  0  0
 27 26  1  0  0  0  0
 28 29  1  0  0  0  0
 28  5  1  0  0  0  0
 29 30  1  0  0  0  0
 31 32  1  0  0  0  0
 31 30  1  0  0  0  0
 33 32  1  0  0  0  0
 33 28  1  0  0  0  0
M  END
>  <Pose>
1

>  <Score>
-8.958

$$$$
