MODEL 1
REMARK VINA RESULT:    -8.225      0.000      0.000
REMARK INTER + INTRA:         -10.526
REMARK INTER:                  -9.427
REMARK INTRA:                  -1.099
REMARK UNBOUND:                -1.099
REMARK  3 active torsions:
REMARK  status: ('A' for Active; 'I' for Inactive)
REMARK    1  A    between atoms: C_7  and  C_9 
REMARK       I    between atoms: C_9  and  N_11 
REMARK    2  A    between atoms: C_14  and  N_19 
REMARK    3  A    between atoms: C_15  and  O_18 
REMARK       I    between atoms: N_22  and  C_25 
ROOT
ATOM      1  C   UNK d   1      53.238  84.059  20.788  0.00  0.00     0.203 C 
ATOM      2  O   UNK d   1      54.538  83.763  20.914  0.00  0.00    -0.170 OA
ATOM      3  N   UNK d   1      52.406  83.050  21.225  0.00  0.00    -0.358 N 
ATOM      4  C   UNK d   1      53.184  81.902  21.768  0.00  0.00     0.127 C 
ATOM      5  C   UNK d   1      53.409  82.116  23.252  0.00  0.00     0.058 C 
ATOM      6  C   UNK d   1      52.374  83.058  23.737  0.00  0.00     0.253 C 
ATOM      7  C   UNK d   1      50.999  82.521  23.501  0.00  0.00     0.153 C 
ATOM      8  C   UNK d   1      50.338  83.476  22.493  0.00  0.00     0.054 C 
ATOM      9  C   UNK d   1      50.987  83.093  21.149  0.00  0.00     0.127 C 
ENDROOT
BRANCH   1  10
ATOM     10  C   UNK d   1      53.010  85.363  20.227  0.00  0.00     0.088 A 
ATOM     11  N   UNK d   1      52.084  85.787  19.363  0.00  0.00    -0.352 N 
ATOM     12  C   UNK d   1      52.261  87.111  19.071  0.00  0.00     0.043 A 
ATOM     13  H   UNK d   1      51.307  85.258  18.946  0.00  0.00     0.166 HD
ATOM     14  C   UNK d   1      53.334  87.534  19.775  0.00  0.00    -0.005 A 
ATOM     15  C   UNK d   1      51.594  87.986  18.256  0.00  0.00     0.032 A 
ATOM     16  C   UNK d   1      53.803  88.851  19.708  0.00  0.00     0.037 A 
ATOM     17  C   UNK d   1      53.818  86.465  20.503  0.00  0.00     0.048 A 
ATOM     18  C   UNK d   1      53.131  89.706  18.895  0.00  0.00     0.035 A 
ATOM     19 Cl   UNK d   1      53.695  91.375  18.782  0.00  0.00    -0.084 Cl
ATOM     20  C   UNK d   1      52.033  89.298  18.166  0.00  0.00     0.026 A 
ENDBRANCH   1  10
BRANCH   6  21
ATOM     21  N   UNK d   1      52.490  83.560  25.069  0.00  0.00     0.098 N 
ATOM     22  C   UNK d   1      52.409  84.994  25.188  0.00  0.00     0.293 C 
ATOM     23  C   UNK d   1      53.536  85.671  24.505  0.00  0.00     0.156 C 
ATOM     24  N   UNK d   1      54.767  85.113  25.077  0.00  0.00    -0.349 N 
ATOM     25  C   UNK d   1      54.586  84.133  26.117  0.00  0.00     0.156 C 
ATOM     26  C   UNK d   1      56.039  85.563  24.611  0.00  0.00     0.215 C 
ATOM     27  C   UNK d   1      53.619  83.035  25.788  0.00  0.00     0.293 C 
ATOM     28  O   UNK d   1      57.071  85.075  25.090  0.00  0.00    -0.274 OA
ATOM     29  C   UNK d   1      56.077  86.618  23.550  0.00  0.00     0.117 C 
ENDBRANCH   6  21
BRANCH   7  30
ATOM     30  O   UNK d   1      50.232  82.401  24.658  0.00  0.00    -0.393 OA
ATOM     31  H   UNK d   1      50.011  83.348  24.935  0.00  0.00     0.210 HD
ENDBRANCH   7  30
TORSDOF 3
ENDMDL
