MODEL 1
REMARK VINA RESULT:    -7.927      0.000      0.000
REMARK INTER + INTRA:          -8.848
REMARK INTER:                  -8.853
REMARK INTRA:                   0.006
REMARK UNBOUND:                 0.006
REMARK  2 active torsions:
REMARK  status: ('A' for Active; 'I' for Inactive)
REMARK    1  A    between atoms: C_5  and  N_8 
REMARK    2  A    between atoms: C_12  and  C_21 
ROOT
ATOM      1  N   UNK d   1      50.114 100.900  29.339  0.00  0.00    -0.252 N 
ATOM      2  C   UNK d   1      50.950  99.790  29.629  0.00  0.00     0.239 C 
ATOM      3  O   UNK d   1      50.773  98.973  30.571  0.00  0.00    -0.272 OA
ATOM      4  C   UNK d   1      52.088  99.721  28.652  0.00  0.00     0.138 C 
ATOM      5  C   UNK d   1      52.113  98.405  27.948  0.00  0.00     0.142 C 
ATOM      6  O   UNK d   1      52.187  98.738  26.573  0.00  0.00    -0.355 OA
ATOM      7  C   UNK d   1      51.064  99.605  26.562  0.00  0.00     0.089 C 
ATOM      8  C   UNK d   1      51.591 100.653  27.538  0.00  0.00     0.133 C 
ATOM      9  C   UNK d   1      50.553 101.489  28.122  0.00  0.00     0.239 C 
ATOM     10  O   UNK d   1      50.131 102.558  27.610  0.00  0.00    -0.272 OA
ATOM     11  C   UNK d   1      50.042  98.729  27.181  0.00  0.00     0.010 C 
ATOM     12  C   UNK d   1      50.714  97.871  27.975  0.00  0.00     0.016 C 
ATOM     13  C   UNK d   1      50.719 100.131  25.231  0.00  0.00     0.051 C 
ENDROOT
BRANCH   1  14
ATOM     14  C   UNK d   1      49.002 101.422  30.073  0.00  0.00     0.045 A 
ATOM     15  C   UNK d   1      47.694 101.211  29.708  0.00  0.00     0.032 A 
ATOM     16  C   UNK d   1      46.626 101.722  30.425  0.00  0.00     0.026 A 
ATOM     17  C   UNK d   1      46.851 102.476  31.551  0.00  0.00     0.034 A 
ATOM     18 Cl   UNK d   1      45.519 103.152  32.493  0.00  0.00    -0.084 Cl
ATOM     19  C   UNK d   1      48.157 102.696  31.928  0.00  0.00     0.026 A 
ATOM     20  C   UNK d   1      49.231 102.180  31.206  0.00  0.00     0.032 A 
ENDBRANCH   1  14
BRANCH   5  21
ATOM     21  C   UNK d   1      53.137  97.441  28.367  0.00  0.00     0.298 C 
ATOM     22  O   UNK d   1      53.018  96.296  27.576  0.00  0.00    -0.356 OA
ATOM     23  C   UNK d   1      53.779  96.473  26.448  0.00  0.00     0.197 C 
ATOM     24  C   UNK d   1      54.846  97.428  26.914  0.00  0.00     0.197 C 
ATOM     25  O   UNK d   1      54.405  97.961  28.104  0.00  0.00    -0.356 OA
ENDBRANCH   5  21
TORSDOF 2
ENDMDL
