/Users/jonathanwahrer/Desktop/Msc/3_Semester/Drug_Design_Praktikum/waehrer_HTS_screening/HTS_experiment/out/docking_results/vina_output/3npc/2124_docked.pdbqt
 OpenBabel03192221013D

 25 29  0  0  1  0  0  0  0  0999 V2000
   50.1140  100.9000   29.3390 N   0  0  0  0  0  0  0  0  0  0  0  0
   50.9500   99.7900   29.6290 C   0  0  0  0  0  0  0  0  0  0  0  0
   50.7730   98.9730   30.5710 O   0  0  0  0  0  0  0  0  0  0  0  0
   52.0880   99.7210   28.6520 C   0  0  1  0  0  3  0  0  0  0  0  0
   52.1130   98.4050   27.9480 C   0  0  2  0  0  0  0  0  0  0  0  0
   52.1870   98.7380   26.5730 O   0  0  0  0  0  0  0  0  0  0  0  0
   51.0640   99.6050   26.5620 C   0  0  2  0  0  0  0  0  0  0  0  0
   51.5910  100.6530   27.5380 C   0  0  1  0  0  3  0  0  0  0  0  0
   50.5530  101.4890   28.1220 C   0  0  0  0  0  0  0  0  0  0  0  0
   50.1310  102.5580   27.6100 O   0  0  0  0  0  0  0  0  0  0  0  0
   50.0420   98.7290   27.1810 C   0  0  0  0  0  2  0  0  0  0  0  0
   50.7140   97.8710   27.9750 C   0  0  0  0  0  2  0  0  0  0  0  0
   50.7190  100.1310   25.2310 C   0  0  0  0  0  1  0  0  0  0  0  0
   49.0020  101.4220   30.0730 C   0  0  0  0  0  0  0  0  0  0  0  0
   47.6940  101.2110   29.7080 C   0  0  0  0  0  3  0  0  0  0  0  0
   46.6260  101.7220   30.4250 C   0  0  0  0  0  3  0  0  0  0  0  0
   46.8510  102.4760   31.5510 C   0  0  0  0  0  0  0  0  0  0  0  0
   45.5190  103.1520   32.4930 Cl  0  0  0  0  0  0  0  0  0  0  0  0
   48.1570  102.6960   31.9280 C   0  0  0  0  0  3  0  0  0  0  0  0
   49.2310  102.1800   31.2060 C   0  0  0  0  0  3  0  0  0  0  0  0
   53.1370   97.4410   28.3670 C   0  0  0  0  0  3  0  0  0  0  0  0
   53.0180   96.2960   27.5760 O   0  0  0  0  0  0  0  0  0  0  0  0
   53.7790   96.4730   26.4480 C   0  0  0  0  0  2  0  0  0  0  0  0
   54.8460   97.4280   26.9140 C   0  0  0  0  0  2  0  0  0  0  0  0
   54.4050   97.9610   28.1040 O   0  0  0  0  0  0  0  0  0  0  0  0
  1  2  1  0  0  0  0
  1 14  1  0  0  0  0
  2  3  2  0  0  0  0
  4  2  1  1  0  0  0
  5 12  1  0  0  0  0
  5 21  1  1  0  0  0
  5  4  1  0  0  0  0
  6  5  1  0  0  0  0
  7 13  1  6  0  0  0
  7  6  1  0  0  0  0
  7 11  1  0  0  0  0
  7  8  1  0  0  0  0
  8  9  1  1  0  0  0
  8  4  1  0  0  0  0
  9  1  1  0  0  0  0
 10  9  2  0  0  0  0
 11 12  1  0  0  0  0
 14 20  1  0  0  0  0
 15 14  2  0  0  0  0
 15 16  1  0  0  0  0
 16 17  2  0  0  0  0
 17 19  1  0  0  0  0
 17 18  1  0  0  0  0
 20 19  2  0  0  0  0
 22 21  1  0  0  0  0
 23 24  1  0  0  0  0
 23 22  1  0  0  0  0
 24 25  1  0  0  0  0
 25 21  1  0  0  0  0
M  END
>  <Pose>
1

>  <Score>
-7.927

$$$$
