MODEL 1
REMARK VINA RESULT:   -10.841      0.000      0.000
REMARK INTER + INTRA:         -13.148
REMARK INTER:                 -13.376
REMARK INTRA:                   0.228
REMARK UNBOUND:                 0.228
REMARK  4 active torsions:
REMARK  status: ('A' for Active; 'I' for Inactive)
REMARK    1  A    between atoms: C_5  and  N_8 
REMARK       I    between atoms: N_8  and  C_9 
REMARK       I    between atoms: C_9  and  N_11 
REMARK    2  A    between atoms: N_11  and  N_12 
REMARK       I    between atoms: N_12  and  C_13 
REMARK    3  A    between atoms: C_13  and  C_15 
REMARK    4  A    between atoms: N_17  and  C_26 
ROOT
ATOM      1  C   UNK d   1      54.291  89.430  20.812  0.00  0.00     0.244 A 
ATOM      2  N   UNK d   1      54.495  88.138  20.724  0.00  0.00    -0.127 NA
ATOM      3  N   UNK d   1      53.742  87.551  19.740  0.00  0.00    -0.058 N 
ATOM      4  C   UNK d   1      52.985  88.607  19.148  0.00  0.00     0.756 A 
ATOM      5  N   UNK d   1      52.116  88.637  18.181  0.00  0.00     0.020 NA
ATOM      6  N   UNK d   1      51.488  89.843  17.775  0.00  0.00    -0.258 N 
ATOM      7  C   UNK d   1      51.769  91.074  18.395  0.00  0.00     0.110 A 
ATOM      8  C   UNK d   1      51.183  92.208  18.032  0.00  0.00     0.050 C 
ATOM      9  C   UNK d   1      52.742  91.063  19.481  0.00  0.00     0.295 A 
ATOM     10  O   UNK d   1      53.004  92.134  20.039  0.00  0.00    -0.265 OA
ATOM     11  N   UNK d   1      53.332  89.810  19.831  0.00  0.00    -0.080 N 
ATOM     12  H   UNK d   1      50.807  89.756  16.988  0.00  0.00     0.190 HD
ENDROOT
BRANCH   1  13
ATOM     13  C   UNK d   1      54.948  90.306  21.761  0.00  0.00     0.308 C 
ATOM     14  N   UNK d   1      55.179  91.659  21.415  0.00  0.00    -0.259 N 
ATOM     15  H   UNK d   1      54.873  92.066  20.518  0.00  0.00     0.190 HD
ATOM     16  O   UNK d   1      55.329  89.882  22.899  0.00  0.00    -0.262 OA
BRANCH  14  17
ATOM     17  N   UNK d   1      55.835  92.475  22.329  0.00  0.00    -0.248 N 
ATOM     18  C   UNK d   1      55.243  93.368  23.242  0.00  0.00     0.339 C 
ATOM     19  N   UNK d   1      55.969  94.167  24.143  0.00  0.00    -0.308 N 
ATOM     20  O   UNK d   1      53.985  93.460  23.262  0.00  0.00    -0.245 OA
ATOM     21  H   UNK d   1      57.018  94.119  24.145  0.00  0.00     0.170 HD
ATOM     22  H   UNK d   1      56.903  92.390  22.292  0.00  0.00     0.192 HD
BRANCH  19  23
ATOM     23  C   UNK d   1      55.405  95.066  25.092  0.00  0.00     0.036 A 
ATOM     24  C   UNK d   1      56.055  96.253  25.423  0.00  0.00     0.031 A 
ATOM     25  C   UNK d   1      55.533  97.141  26.337  0.00  0.00     0.026 A 
ATOM     26  C   UNK d   1      54.335  96.809  26.915  0.00  0.00     0.034 A 
ATOM     27 Cl   UNK d   1      53.578  97.884  28.097  0.00  0.00    -0.084 Cl
ATOM     28  C   UNK d   1      53.662  95.654  26.619  0.00  0.00     0.026 A 
ATOM     29  C   UNK d   1      54.195  94.774  25.704  0.00  0.00     0.031 A 
ENDBRANCH  19  23
ENDBRANCH  14  17
ENDBRANCH   1  13
BRANCH   3  30
ATOM     30  C   UNK d   1      53.698  86.162  19.425  0.00  0.00     0.077 A 
ATOM     31  C   UNK d   1      53.400  85.724  18.158  0.00  0.00     0.033 A 
ATOM     32  C   UNK d   1      53.384  84.386  17.787  0.00  0.00     0.009 A 
ATOM     33  C   UNK d   1      53.680  83.411  18.719  0.00  0.00    -0.062 A 
ATOM     34  C   UNK d   1      53.980  83.827  19.999  0.00  0.00     0.009 A 
ATOM     35  C   UNK d   1      53.712  81.962  18.354  0.00  0.00     0.048 C 
ATOM     36  C   UNK d   1      53.987  85.178  20.343  0.00  0.00     0.033 A 
ENDBRANCH   3  30
TORSDOF 4
ENDMDL
