/Users/jonathanwahrer/Desktop/Msc/3_Semester/Drug_Design_Praktikum/waehrer_HTS_screening/HTS_experiment/out/docking_results/vina_output/3npc/2149_docked.pdbqt
 OpenBabel03192221023D

 24 27  0  0  0  0  0  0  0  0999 V2000
   55.8440   88.6230   21.6830 N   0  0  0  0  0  0  0  0  0  0  0  0
   56.0580   88.9970   22.9300 N   0  0  0  0  0  0  0  0  0  0  0  0
   55.6090   88.0950   23.7830 N   0  0  0  0  0  0  0  0  0  0  0  0
   55.0780   87.0860   23.0920 C   0  0  0  0  0  0  0  0  0  0  0  0
   55.2260   87.4180   21.7630 C   0  0  0  0  0  0  0  0  0  0  0  0
   54.7650   86.5540   20.8470 N   0  0  0  0  0  0  0  0  0  0  0  0
   54.1800   85.4010   21.2170 C   0  0  0  0  0  3  0  0  0  0  0  0
   54.0470   85.0990   22.5200 N   0  0  0  0  0  0  0  0  0  0  0  0
   54.4800   85.9080   23.5230 C   0  0  0  0  0  0  0  0  0  0  0  0
   56.1830   89.3260   20.4460 C   0  0  0  0  0  2  0  0  0  0  0  0
   54.9780   90.0790   20.0110 C   0  0  0  0  0  0  0  0  0  0  0  0
   54.2320   89.5520   18.9930 C   0  0  0  0  0  3  0  0  0  0  0  0
   53.0940   90.1890   18.5250 C   0  0  0  0  0  3  0  0  0  0  0  0
   52.7060   91.3740   19.0980 C   0  0  0  0  0  0  0  0  0  0  0  0
   51.2630   92.2000   18.5190 Cl  0  0  0  0  0  0  0  0  0  0  0  0
   53.4660   91.8970   20.1250 C   0  0  0  0  0  3  0  0  0  0  0  0
   54.5930   91.2660   20.5870 C   0  0  0  0  0  3  0  0  0  0  0  0
   54.3440   85.5960   24.8870 N   0  0  0  0  0  0  0  0  0  0  0  0
   53.1790   85.8040   25.7060 C   0  0  0  0  0  2  0  0  0  0  0  0
   52.7440   84.4900   26.2410 C   0  0  0  0  0  2  0  0  0  0  0  0
   53.6580   83.4270   26.2130 N   0  0  0  0  0  0  0  0  0  0  0  0
   55.0310   83.6720   26.0870 C   0  0  0  0  0  2  0  0  0  0  0  0
   53.2440   82.4650   25.2080 C   0  0  0  0  0  1  0  0  0  0  0  0
   55.4520   85.0060   25.5950 C   0  0  0  0  0  2  0  0  0  0  0  0
  1  5  1  0  0  0  0
  1  2  1  0  0  0  0
  2  3  2  0  0  0  0
  4  9  1  0  0  0  0
  4  3  1  0  0  0  0
  5  4  2  0  0  0  0
  6  7  2  0  0  0  0
  6  5  1  0  0  0  0
  7  8  1  0  0  0  0
  8  9  2  0  0  0  0
  9 18  1  0  0  0  0
 10  1  1  0  0  0  0
 11 10  1  0  0  0  0
 11 17  1  0  0  0  0
 12 11  2  0  0  0  0
 13 12  1  0  0  0  0
 13 14  2  0  0  0  0
 14 16  1  0  0  0  0
 15 14  1  0  0  0  0
 16 17  2  0  0  0  0
 18 24  1  0  0  0  0
 18 19  1  0  0  0  0
 19 20  1  0  0  0  0
 21 20  1  0  0  0  0
 22 21  1  0  0  0  0
 23 21  1  0  0  0  0
 24 22  1  0  0  0  0
M  END
>  <Pose>
1

>  <Score>
-7.845

$$$$
