MODEL 1
REMARK VINA RESULT:    -9.729      0.000      0.000
REMARK INTER + INTRA:         -10.659
REMARK INTER:                 -10.866
REMARK INTRA:                   0.207
REMARK UNBOUND:                 0.207
REMARK  2 active torsions:
REMARK  status: ('A' for Active; 'I' for Inactive)
REMARK    1  A    between atoms: C_10  and  N_11 
REMARK    2  A    between atoms: N_14  and  C_17 
ROOT
ATOM      1  N   UNK d   1      55.197  91.801  21.896  0.00  0.00    -0.384 N 
ATOM      2  C   UNK d   1      54.191  92.190  20.937  0.00  0.00     0.142 C 
ATOM      3  C   UNK d   1      54.241  91.223  19.783  0.00  0.00     0.144 C 
ATOM      4  N   UNK d   1      54.341  89.838  20.200  0.00  0.00    -0.362 N 
ATOM      5  C   UNK d   1      55.334  89.478  21.192  0.00  0.00     0.144 C 
ATOM      6  C   UNK d   1      55.213  90.430  22.353  0.00  0.00     0.142 C 
ENDROOT
BRANCH   1   7
ATOM      7  C   UNK d   1      56.111  92.794  22.341  0.00  0.00     0.134 C 
ATOM      8  C   UNK d   1      55.875  93.662  23.296  0.00  0.00     0.124 A 
ATOM      9  N   UNK d   1      54.645  93.704  24.012  0.00  0.00    -0.340 N 
ATOM     10  N   UNK d   1      56.873  94.608  23.650  0.00  0.00    -0.308 N 
ATOM     11  C   UNK d   1      54.356  94.628  25.050  0.00  0.00     0.049 A 
ATOM     12  H   UNK d   1      53.923  93.003  23.741  0.00  0.00     0.167 HD
ATOM     13  C   UNK d   1      55.320  95.552  25.400  0.00  0.00     0.060 A 
ATOM     14  C   UNK d   1      53.166  94.672  25.745  0.00  0.00     0.032 A 
ATOM     15  C   UNK d   1      55.097  96.470  26.397  0.00  0.00     0.043 A 
ATOM     16  C   UNK d   1      56.608  95.534  24.677  0.00  0.00     0.259 A 
ATOM     17  C   UNK d   1      53.902  96.499  27.080  0.00  0.00     0.035 A 
ATOM     18 Cl   UNK d   1      53.657  97.697  28.356  0.00  0.00    -0.084 Cl
ATOM     19  C   UNK d   1      52.928  95.586  26.746  0.00  0.00     0.026 A 
ATOM     20  O   UNK d   1      57.455  96.411  25.047  0.00  0.00    -0.267 OA
ATOM     21  H   UNK d   1      57.801  94.640  23.171  0.00  0.00     0.170 HD
ENDBRANCH   1   7
BRANCH   4  22
ATOM     22  C   UNK d   1      53.470  88.858  19.632  0.00  0.00     0.142 A 
ATOM     23  N   UNK d   1      52.565  89.248  18.712  0.00  0.00    -0.224 NA
ATOM     24  C   UNK d   1      51.715  88.347  18.145  0.00  0.00     0.237 A 
ATOM     25  N   UNK d   1      51.760  87.042  18.494  0.00  0.00    -0.222 NA
ATOM     26  C   UNK d   1      52.635  86.595  19.400  0.00  0.00     0.162 A 
ATOM     27  N   UNK d   1      52.889  85.381  19.921  0.00  0.00    -0.256 N 
ATOM     28  C   UNK d   1      53.498  87.531  19.971  0.00  0.00     0.076 A 
ATOM     29  N   UNK d   1      53.874  85.522  20.790  0.00  0.00    -0.182 NA
ATOM     30  C   UNK d   1      52.217  84.117  19.603  0.00  0.00     0.182 C 
ATOM     31  C   UNK d   1      54.268  86.826  20.843  0.00  0.00     0.158 A 
ENDBRANCH   4  22
TORSDOF 2
ENDMDL
