MODEL 1
REMARK VINA RESULT:    -8.479      0.000      0.000
REMARK INTER + INTRA:         -11.585
REMARK INTER:                 -10.462
REMARK INTRA:                  -1.123
REMARK UNBOUND:                -1.123
REMARK  4 active torsions:
REMARK  status: ('A' for Active; 'I' for Inactive)
REMARK    1  A    between atoms: C_13  and  C_14 
REMARK    2  A    between atoms: C_14  and  N_15 
REMARK    3  A    between atoms: N_18  and  C_21 
REMARK    4  A    between atoms: C_24  and  O_27 
ROOT
ATOM      1  N   UNK d   1      55.851  87.209  24.949  0.00  0.00    -0.064 N 
ATOM      2  C   UNK d   1      55.117  88.217  24.353  0.00  0.00     0.255 C 
ATOM      3  C   UNK d   1      56.059  89.189  23.563  0.00  0.00     0.150 C 
ATOM      4  N   UNK d   1      56.416  88.240  22.403  0.00  0.00    -0.378 N 
ATOM      5  C   UNK d   1      57.208  87.191  22.825  0.00  0.00     0.150 C 
ATOM      6  C   UNK d   1      57.225  87.250  24.369  0.00  0.00     0.255 C 
ATOM      7  H   UNK d   1      56.046  87.510  25.958  0.00  0.00     0.280 HD
ENDROOT
BRANCH   1   8
ATOM      8  C   UNK d   1      55.479  85.864  25.020  0.00  0.00     0.274 C 
BRANCH   8   9
ATOM      9  C   UNK d   1      54.099  85.438  25.308  0.00  0.00    -0.014 A 
ATOM     10  C   UNK d   1      53.428  84.921  24.155  0.00  0.00     0.008 A 
ATOM     11  C   UNK d   1      54.034  84.974  22.949  0.00  0.00     0.041 A 
ATOM     12  C   UNK d   1      52.169  84.404  24.291  0.00  0.00     0.093 A 
ATOM     13  C   UNK d   1      53.408  84.512  21.822  0.00  0.00     0.071 A 
ATOM     14 Cl   UNK d   1      54.109  84.606  20.203  0.00  0.00    -0.081 Cl
ATOM     15  C   UNK d   1      52.123  83.966  21.903  0.00  0.00     0.131 A 
ATOM     16  C   UNK d   1      51.520  83.923  23.129  0.00  0.00     0.080 A 
ATOM     17  O   UNK d   1      51.457  83.454  20.767  0.00  0.00    -0.190 OA
ATOM     18  O   UNK d   1      51.543  84.360  25.433  0.00  0.00    -0.275 OA
ATOM     19  C   UNK d   1      52.125  84.830  26.530  0.00  0.00     0.288 A 
ATOM     20  O   UNK d   1      51.512  84.778  27.604  0.00  0.00    -0.260 OA
ATOM     21  C   UNK d   1      53.422  85.381  26.476  0.00  0.00     0.092 A 
ENDBRANCH   8   9
ENDBRANCH   1   8
BRANCH   4  22
ATOM     22  C   UNK d   1      55.797  88.614  21.190  0.00  0.00     0.030 A 
ATOM     23  C   UNK d   1      54.589  88.207  20.743  0.00  0.00     0.032 A 
ATOM     24  C   UNK d   1      53.950  88.832  19.634  0.00  0.00     0.039 A 
ATOM     25  C   UNK d   1      54.531  89.877  18.967  0.00  0.00     0.068 A 
ATOM     26  C   UNK d   1      55.780  90.298  19.414  0.00  0.00     0.039 A 
ATOM     27  C   UNK d   1      56.396  89.680  20.493  0.00  0.00     0.032 A 
BRANCH  25  28
ATOM     28  O   UNK d   1      53.869  90.452  17.890  0.00  0.00    -0.356 OA
ATOM     29  C   UNK d   1      54.600  91.078  16.824  0.00  0.00     0.210 C 
ENDBRANCH  25  28
ENDBRANCH   4  22
TORSDOF 4
ENDMDL
