/Users/jonathanwahrer/Desktop/Msc/3_Semester/Drug_Design_Praktikum/waehrer_HTS_screening/HTS_experiment/out/docking_results/vina_output/3npc/2195_docked.pdbqt
 OpenBabel03192221043D

 29 32  0  0  1  0  0  0  0  0999 V2000
   55.7370   88.4600   21.1490 C   0  0  0  0  0  0  0  0  0  0  0  0
   54.8360   87.4860   21.0380 N   0  0  0  0  0  0  0  0  0  0  0  0
   54.7240   86.5130   21.9590 C   0  0  0  0  0  0  0  0  0  0  0  0
   53.9140   85.4270   22.0870 N   0  0  0  0  0  0  0  0  0  0  0  0
   54.2670   84.8290   23.2060 N   0  0  0  0  0  0  0  0  0  0  0  0
   55.2560   85.4680   23.8020 N   0  0  0  0  0  0  0  0  0  0  0  0
   55.5760   86.5300   23.0550 C   0  0  0  0  0  0  0  0  0  0  0  0
   56.5170   87.5370   23.1840 C   0  0  0  0  0  0  0  0  0  0  0  0
   56.5470   88.4580   22.2120 N   0  0  0  0  0  0  0  0  0  0  0  0
   55.8840   89.5570   20.1540 C   0  0  1  0  0  3  0  0  0  0  0  0
   54.7280   89.7640   19.2790 C   0  0  0  0  0  2  0  0  0  0  0  0
   53.9050   90.8780   19.4270 N   0  0  0  0  0  0  0  0  0  0  0  0
   53.9920   91.7010   20.5420 C   0  0  0  0  0  2  0  0  0  0  0  0
   55.0310   91.3430   21.5650 C   0  0  0  0  0  2  0  0  0  0  0  0
   56.2470   90.8220   20.8870 C   0  0  0  0  0  2  0  0  0  0  0  0
   52.4030   90.7560   18.6510 S   0  0  0  0  0  0  0  0  0  0  0  0
   51.4390   89.8780   19.3680 O   0  0  0  0  0  0  0  0  0  0  0  0
   52.6420   90.2480   17.2440 O   0  0  0  0  0  0  0  0  0  0  0  0
   51.6510   92.3780   18.4460 C   0  0  0  0  0  1  0  0  0  0  0  0
   57.3770   87.5720   24.2730 O   0  0  0  0  0  0  0  0  0  0  0  0
   57.2880   88.3000   24.9650 H   0  0  0  0  0  0  0  0  0  0  0  0
   52.8850   85.0240   21.1800 C   0  0  0  0  0  2  0  0  0  0  0  0
   53.3990   84.4300   19.9230 C   0  0  0  0  0  0  0  0  0  0  0  0
   53.1140   85.0580   18.7370 C   0  0  0  0  0  0  0  0  0  0  0  0
   53.5580   84.5670   17.5110 C   0  0  0  0  0  3  0  0  0  0  0  0
   52.1620   86.5280   18.7250 Cl  0  0  0  0  0  0  0  0  0  0  0  0
   54.3110   83.4130   17.4650 C   0  0  0  0  0  3  0  0  0  0  0  0
   54.6020   82.7780   18.6510 C   0  0  0  0  0  3  0  0  0  0  0  0
   54.1520   83.2780   19.8710 C   0  0  0  0  0  3  0  0  0  0  0  0
  1  9  1  0  0  0  0
  2  1  2  0  0  0  0
  2  3  1  0  0  0  0
  3  4  1  0  0  0  0
  3  7  2  0  0  0  0
  4  5  1  0  0  0  0
  5  6  2  0  0  0  0
  7  8  1  0  0  0  0
  7  6  1  0  0  0  0
  8 20  1  0  0  0  0
  9  8  2  0  0  0  0
 10 15  1  0  0  0  0
 10  1  1  1  0  0  0
 11 12  1  0  0  0  0
 11 10  1  0  0  0  0
 12 13  1  0  0  0  0
 13 14  1  0  0  0  0
 15 14  1  0  0  0  0
 16 17  2  0  0  0  0
 16 12  1  0  0  0  0
 18 16  2  0  0  0  0
 19 16  1  0  0  0  0
 20 21  1  0  0  0  0
 22  4  1  0  0  0  0
 23 22  1  0  0  0  0
 24 23  2  0  0  0  0
 25 24  1  0  0  0  0
 26 24  1  0  0  0  0
 27 25  2  0  0  0  0
 27 28  1  0  0  0  0
 28 29  2  0  0  0  0
 29 23  1  0  0  0  0
M  END
>  <Pose>
1

>  <Score>
-8.992

$$$$
