MODEL 1
REMARK VINA RESULT:    -8.030      0.000      0.000
REMARK INTER + INTRA:          -9.768
REMARK INTER:                 -10.377
REMARK INTRA:                   0.608
REMARK UNBOUND:                 0.608
REMARK  5 active torsions:
REMARK  status: ('A' for Active; 'I' for Inactive)
REMARK    1  A    between atoms: S_1  and  N_4 
REMARK    2  A    between atoms: S_1  and  C_22 
REMARK    3  A    between atoms: C_6  and  C_10 
REMARK       I    between atoms: C_10  and  N_12 
REMARK    4  A    between atoms: N_15  and  C_18 
REMARK    5  A    between atoms: C_18  and  C_19 
ROOT
ATOM      1  N   UNK d   1      57.026  87.225  23.516  0.00  0.00    -0.202 NA
ATOM      2  C   UNK d   1      56.525  86.219  24.476  0.00  0.00     0.149 C 
ATOM      3  C   UNK d   1      55.054  86.393  24.567  0.00  0.00     0.227 C 
ATOM      4  O   UNK d   1      54.555  87.632  24.730  0.00  0.00    -0.374 OA
ATOM      5  C   UNK d   1      55.315  88.707  24.477  0.00  0.00     0.184 C 
ATOM      6  C   UNK d   1      56.743  88.472  24.125  0.00  0.00     0.134 C 
ENDROOT
BRANCH   3   7
ATOM      7  C   UNK d   1      54.581  85.526  25.685  0.00  0.00     0.250 C 
ATOM      8  O   UNK d   1      54.812  85.923  26.858  0.00  0.00    -0.270 OA
ATOM      9  N   UNK d   1      53.898  84.306  25.523  0.00  0.00    -0.347 N 
ATOM     10  C   UNK d   1      53.562  83.722  24.238  0.00  0.00     0.156 C 
ATOM     11  C   UNK d   1      53.461  83.508  26.679  0.00  0.00     0.156 C 
ATOM     12  C   UNK d   1      52.948  82.364  24.509  0.00  0.00     0.292 C 
ATOM     13  N   UNK d   1      51.733  82.446  25.299  0.00  0.00     0.091 N 
ATOM     14  C   UNK d   1      51.964  83.270  26.442  0.00  0.00     0.292 C 
BRANCH  13  15
ATOM     15  C   UNK d   1      50.671  82.871  24.445  0.00  0.00     0.277 C 
BRANCH  15  16
ATOM     16  C   UNK d   1      50.364  81.910  23.330  0.00  0.00     0.014 A 
ATOM     17  C   UNK d   1      50.226  82.592  21.970  0.00  0.00     0.007 A 
ATOM     18  C   UNK d   1      49.077  81.896  22.631  0.00  0.00     0.007 A 
ENDBRANCH  15  16
ENDBRANCH  13  15
ENDBRANCH   3   7
BRANCH   1  19
ATOM     19  S   UNK d   1      56.471  86.922  21.956  0.00  0.00     0.245 S 
ATOM     20  O   UNK d   1      57.682  86.493  21.115  0.00  0.00    -0.206 OA
ATOM     21  O   UNK d   1      55.531  85.744  21.868  0.00  0.00    -0.206 OA
BRANCH  19  22
ATOM     22  C   UNK d   1      55.822  88.318  21.157  0.00  0.00     0.096 A 
ATOM     23  C   UNK d   1      54.646  88.266  20.441  0.00  0.00     0.056 A 
ATOM     24  C   UNK d   1      54.152  89.358  19.754  0.00  0.00     0.025 A 
ATOM     25 Cl   UNK d   1      53.654  86.795  20.438  0.00  0.00    -0.083 Cl
ATOM     26  C   UNK d   1      54.843  90.543  19.780  0.00  0.00     0.002 A 
ATOM     27  C   UNK d   1      56.028  90.615  20.498  0.00  0.00     0.002 A 
ATOM     28  C   UNK d   1      56.513  89.531  21.174  0.00  0.00     0.026 A 
ENDBRANCH  19  22
ENDBRANCH   1  19
TORSDOF 5
ENDMDL
