/Users/jonathanwahrer/Desktop/Msc/3_Semester/Drug_Design_Praktikum/waehrer_HTS_screening/HTS_experiment/out/docking_results/vina_output/3npc/2197_docked.pdbqt
 OpenBabel03192221043D

 28 31  0  0  1  0  0  0  0  0999 V2000
   57.0260   87.2250   23.5160 N   0  0  0  0  0  0  0  0  0  0  0  0
   56.5250   86.2190   24.4760 C   0  0  0  0  0  2  0  0  0  0  0  0
   55.0540   86.3930   24.5670 C   0  0  2  0  0  3  0  0  0  0  0  0
   54.5550   87.6320   24.7300 O   0  0  0  0  0  0  0  0  0  0  0  0
   55.3150   88.7070   24.4770 C   0  0  0  0  0  2  0  0  0  0  0  0
   56.7430   88.4720   24.1250 C   0  0  0  0  0  2  0  0  0  0  0  0
   54.5810   85.5260   25.6850 C   0  0  0  0  0  0  0  0  0  0  0  0
   54.8120   85.9230   26.8580 O   0  0  0  0  0  0  0  0  0  0  0  0
   53.8980   84.3060   25.5230 N   0  0  0  0  0  0  0  0  0  0  0  0
   53.5620   83.7220   24.2380 C   0  0  0  0  0  2  0  0  0  0  0  0
   53.4610   83.5080   26.6790 C   0  0  0  0  0  2  0  0  0  0  0  0
   52.9480   82.3640   24.5090 C   0  0  0  0  0  2  0  0  0  0  0  0
   51.7330   82.4460   25.2990 N   0  0  0  0  0  0  0  0  0  0  0  0
   51.9640   83.2700   26.4420 C   0  0  0  0  0  2  0  0  0  0  0  0
   50.6710   82.8710   24.4450 C   0  0  0  0  0  2  0  0  0  0  0  0
   50.3640   81.9100   23.3300 C   0  0  0  0  0  3  0  0  0  0  0  0
   50.2260   82.5920   21.9700 C   0  0  0  0  0  2  0  0  0  0  0  0
   49.0770   81.8960   22.6310 C   0  0  0  0  0  2  0  0  0  0  0  0
   56.4710   86.9220   21.9560 S   0  0  0  0  0  0  0  0  0  0  0  0
   57.6820   86.4930   21.1150 O   0  0  0  0  0  0  0  0  0  0  0  0
   55.5310   85.7440   21.8680 O   0  0  0  0  0  0  0  0  0  0  0  0
   55.8220   88.3180   21.1570 C   0  0  0  0  0  0  0  0  0  0  0  0
   54.6460   88.2660   20.4410 C   0  0  0  0  0  0  0  0  0  0  0  0
   54.1520   89.3580   19.7540 C   0  0  0  0  0  3  0  0  0  0  0  0
   53.6540   86.7950   20.4380 Cl  0  0  0  0  0  0  0  0  0  0  0  0
   54.8430   90.5430   19.7800 C   0  0  0  0  0  3  0  0  0  0  0  0
   56.0280   90.6150   20.4980 C   0  0  0  0  0  3  0  0  0  0  0  0
   56.5130   89.5310   21.1740 C   0  0  0  0  0  3  0  0  0  0  0  0
  1  6  1  0  0  0  0
  1  2  1  0  0  0  0
  2  3  1  0  0  0  0
  3  4  1  0  0  0  0
  3  7  1  1  0  0  0
  5  4  1  0  0  0  0
  6  5  1  0  0  0  0
  7  8  2  0  0  0  0
  9  7  1  0  0  0  0
  9 11  1  0  0  0  0
 10 12  1  0  0  0  0
 10  9  1  0  0  0  0
 12 13  1  0  0  0  0
 13 14  1  0  0  0  0
 14 11  1  0  0  0  0
 15 13  1  0  0  0  0
 16 15  1  0  0  0  0
 17 18  1  0  0  0  0
 17 16  1  0  0  0  0
 18 16  1  0  0  0  0
 19  1  1  0  0  0  0
 20 19  2  0  0  0  0
 21 19  2  0  0  0  0
 22 28  1  0  0  0  0
 22 19  1  0  0  0  0
 23 22  2  0  0  0  0
 24 26  2  0  0  0  0
 24 23  1  0  0  0  0
 25 23  1  0  0  0  0
 26 27  1  0  0  0  0
 27 28  2  0  0  0  0
M  END
>  <Pose>
1

>  <Score>
-8.030

$$$$
