MODEL 1
REMARK VINA RESULT:    -6.930      0.000      0.000
REMARK INTER + INTRA:         -11.071
REMARK INTER:                  -9.564
REMARK INTRA:                  -1.507
REMARK UNBOUND:                -1.507
REMARK  7 active torsions:
REMARK  status: ('A' for Active; 'I' for Inactive)
REMARK    1  A    between atoms: C_4  and  C_10 
REMARK    2  A    between atoms: C_5  and  O_8 
REMARK    3  A    between atoms: C_18  and  C_19 
REMARK    4  A    between atoms: C_19  and  N_20 
REMARK    5  A    between atoms: N_23  and  C_26 
REMARK    6  A    between atoms: C_26  and  C_27 
REMARK    7  A    between atoms: C_27  and  O_28 
ROOT
ATOM      1  C   UNK d   1      54.064  84.316  19.969  0.00  0.00     0.055 C 
ATOM      2  C   UNK d   1      53.501  83.620  20.965  0.00  0.00     0.128 A 
ATOM      3  O   UNK d   1      52.805  84.196  22.021  0.00  0.00    -0.305 OA
ATOM      4  C   UNK d   1      52.329  83.176  22.856  0.00  0.00     0.101 A 
ATOM      5  C   UNK d   1      52.678  81.937  22.413  0.00  0.00     0.051 A 
ATOM      6  C   UNK d   1      52.294  80.793  23.072  0.00  0.00     0.021 A 
ATOM      7  C   UNK d   1      51.524  80.886  24.227  0.00  0.00     0.041 A 
ATOM      8  C   UNK d   1      51.172  82.159  24.677  0.00  0.00     0.118 A 
ATOM      9  C   UNK d   1      51.556  83.286  24.024  0.00  0.00     0.039 A 
ATOM     10  O   UNK d   1      50.402  82.167  25.840  0.00  0.00    -0.191 OA
ATOM     11  C   UNK d   1      53.460  82.187  21.166  0.00  0.00     0.218 A 
ATOM     12  O   UNK d   1      53.982  81.331  20.440  0.00  0.00    -0.284 OA
ENDROOT
BRANCH   9  13
ATOM     13  C   UNK d   1      51.385  84.660  24.542  0.00  0.00     0.279 C 
BRANCH  13  14
ATOM     14  N   UNK d   1      52.336  85.029  25.482  0.00  0.00    -0.064 N 
ATOM     15  C   UNK d   1      51.739  85.230  26.840  0.00  0.00     0.254 C 
ATOM     16  C   UNK d   1      52.671  84.426  27.781  0.00  0.00     0.144 C 
ATOM     17  N   UNK d   1      53.890  84.129  27.097  0.00  0.00    -0.407 N 
ATOM     18  C   UNK d   1      54.493  85.213  26.426  0.00  0.00     0.144 C 
ATOM     19  C   UNK d   1      53.461  85.835  25.388  0.00  0.00     0.254 C 
ATOM     20  H   UNK d   1      52.764  83.983  25.679  0.00  0.00     0.280 HD
BRANCH  17  21
ATOM     21  C   UNK d   1      54.378  82.841  27.118  0.00  0.00     0.143 C 
BRANCH  21  22
ATOM     22  C   UNK d   1      54.706  82.132  25.844  0.00  0.00     0.183 C 
BRANCH  22  23
ATOM     23  O   UNK d   1      56.093  82.098  25.628  0.00  0.00    -0.399 OA
ATOM     24  H   UNK d   1      56.520  82.859  26.144  0.00  0.00     0.209 HD
ENDBRANCH  22  23
ENDBRANCH  21  22
ENDBRANCH  17  21
ENDBRANCH  13  14
ENDBRANCH   9  13
BRANCH   1  25
ATOM     25  C   UNK d   1      53.886  85.776  20.052  0.00  0.00     0.001 A 
ATOM     26  C   UNK d   1      52.986  86.380  19.248  0.00  0.00     0.033 A 
ATOM     27  C   UNK d   1      52.895  87.782  19.271  0.00  0.00     0.011 A 
ATOM     28 Br   UNK d   1      51.633  88.663  18.149  0.00  0.00    -0.051 Br
ATOM     29  C   UNK d   1      53.695  88.546  20.083  0.00  0.00     0.022 A 
ATOM     30  C   UNK d   1      54.608  87.895  20.888  0.00  0.00     0.039 A 
ATOM     31  C   UNK d   1      54.714  86.496  20.884  0.00  0.00     0.078 A 
BRANCH  31  32
ATOM     32  O   UNK d   1      55.632  85.840  21.691  0.00  0.00    -0.355 OA
ATOM     33  C   UNK d   1      56.601  86.430  22.485  0.00  0.00     0.210 C 
ENDBRANCH  31  32
ENDBRANCH   1  25
TORSDOF 7
ENDMDL
