/Users/jonathanwahrer/Desktop/Msc/3_Semester/Drug_Design_Praktikum/waehrer_HTS_screening/HTS_experiment/out/docking_results/vina_output/3npc/2210_docked.pdbqt
 OpenBabel03192221053D

 33 36  0  0  1  0  0  0  0  0999 V2000
   54.0640   84.3160   19.9690 C   0  0  0  0  0  2  0  0  0  0  0  0
   53.5010   83.6200   20.9650 C   0  0  1  0  0  3  0  0  0  0  0  0
   52.8050   84.1960   22.0210 O   0  0  0  0  0  0  0  0  0  0  0  0
   52.3290   83.1760   22.8560 C   0  0  0  0  0  0  0  0  0  0  0  0
   52.6780   81.9370   22.4130 C   0  0  0  0  0  0  0  0  0  0  0  0
   52.2940   80.7930   23.0720 C   0  0  0  0  0  3  0  0  0  0  0  0
   51.5240   80.8860   24.2270 C   0  0  0  0  0  3  0  0  0  0  0  0
   51.1720   82.1590   24.6770 C   0  0  0  0  0  0  0  0  0  0  0  0
   51.5560   83.2860   24.0240 C   0  0  0  0  0  0  0  0  0  0  0  0
   50.4020   82.1670   25.8400 O   0  0  0  0  0  1  0  0  0  0  0  0
   53.4600   82.1870   21.1660 C   0  0  0  0  0  0  0  0  0  0  0  0
   53.9820   81.3310   20.4400 O   0  0  0  0  0  0  0  0  0  0  0  0
   51.3850   84.6600   24.5420 C   0  0  0  0  0  2  0  0  0  0  0  0
   52.3360   85.0290   25.4820 N   0  0  0  0  0  4  0  0  0  0  0  0
   51.7390   85.2300   26.8400 C   0  0  0  0  0  2  0  0  0  0  0  0
   52.6710   84.4260   27.7810 C   0  0  0  0  0  2  0  0  0  0  0  0
   53.8900   84.1290   27.0970 N   0  0  0  0  0  0  0  0  0  0  0  0
   54.4930   85.2130   26.4260 C   0  0  0  0  0  2  0  0  0  0  0  0
   53.4610   85.8350   25.3880 C   0  0  0  0  0  2  0  0  0  0  0  0
   52.7640   83.9830   25.6790 H   0  0  0  0  0  0  0  0  0  0  0  0
   54.3780   82.8410   27.1180 C   0  0  0  0  0  2  0  0  0  0  0  0
   54.7060   82.1320   25.8440 C   0  0  0  0  0  2  0  0  0  0  0  0
   56.0930   82.0980   25.6280 O   0  0  0  0  0  0  0  0  0  0  0  0
   56.5200   82.8590   26.1440 H   0  0  0  0  0  0  0  0  0  0  0  0
   53.8860   85.7760   20.0520 C   0  0  0  0  0  0  0  0  0  0  0  0
   52.9860   86.3800   19.2480 C   0  0  0  0  0  3  0  0  0  0  0  0
   52.8950   87.7820   19.2710 C   0  0  0  0  0  0  0  0  0  0  0  0
   51.6330   88.6630   18.1490 Br  0  0  0  0  0  0  0  0  0  0  0  0
   53.6950   88.5460   20.0830 C   0  0  0  0  0  3  0  0  0  0  0  0
   54.6080   87.8950   20.8880 C   0  0  0  0  0  3  0  0  0  0  0  0
   54.7140   86.4960   20.8840 C   0  0  0  0  0  0  0  0  0  0  0  0
   55.6320   85.8400   21.6910 O   0  0  0  0  0  0  0  0  0  0  0  0
   56.6010   86.4300   22.4850 C   0  0  0  0  0  1  0  0  0  0  0  0
  1 25  1  0  0  0  0
  2  1  1  6  0  0  0
  2 11  1  0  0  0  0
  2  3  1  0  0  0  0
  3  4  1  0  0  0  0
  4  9  1  0  0  0  0
  5  4  2  0  0  0  0
  5  6  1  0  0  0  0
  6  7  2  0  0  0  0
  7  8  1  0  0  0  0
  8 10  1  0  0  0  0
  9 13  1  0  0  0  0
  9  8  2  0  0  0  0
 11  5  1  0  0  0  0
 12 11  2  0  0  0  0
 13 14  1  0  0  0  0
 14 20  1  0  0  0  0
 14 15  1  0  0  0  0
 15 16  1  0  0  0  0
 17 21  1  0  0  0  0
 17 16  1  0  0  0  0
 18 17  1  0  0  0  0
 19 14  1  0  0  0  0
 19 18  1  0  0  0  0
 22 21  1  0  0  0  0
 23 22  1  0  0  0  0
 23 24  1  0  0  0  0
 25 31  1  0  0  0  0
 26 27  1  0  0  0  0
 26 25  2  0  0  0  0
 27 29  2  0  0  0  0
 28 27  1  0  0  0  0
 29 30  1  0  0  0  0
 31 30  2  0  0  0  0
 31 32  1  0  0  0  0
 32 33  1  0  0  0  0
M  END
>  <Pose>
1

>  <Score>
-6.930

$$$$
