MODEL 1
REMARK VINA RESULT:    -8.026      0.000      0.000
REMARK INTER + INTRA:          -8.289
REMARK INTER:                  -8.495
REMARK INTRA:                   0.206
REMARK UNBOUND:                 0.206
REMARK  1 active torsions:
REMARK  status: ('A' for Active; 'I' for Inactive)
REMARK    1  A    between atoms: C_9  and  C_21 
ROOT
ATOM      1 Cl   UNK d   1      54.958  86.064  26.074  0.00  0.00    -0.081 Cl
ATOM      2  C   UNK d   1      54.819  85.998  24.330  0.00  0.00     0.070 A 
ATOM      3  C   UNK d   1      53.794  85.216  23.778  0.00  0.00     0.107 A 
ATOM      4  C   UNK d   1      53.660  85.143  22.416  0.00  0.00    -0.007 A 
ATOM      5  C   UNK d   1      54.573  85.870  21.644  0.00  0.00     0.035 A 
ATOM      6  C   UNK d   1      55.576  86.634  22.198  0.00  0.00     0.036 A 
ATOM      7  C   UNK d   1      55.715  86.710  23.572  0.00  0.00     0.050 A 
ATOM      8 Cl   UNK d   1      56.712  87.539  21.205  0.00  0.00    -0.084 Cl
ATOM      9  C   UNK d   1      52.616  84.349  21.751  0.00  0.00     0.107 A 
ATOM     10  C   UNK d   1      51.762  83.665  22.737  0.00  0.00     0.075 A 
ATOM     11  C   UNK d   1      51.913  83.750  24.085  0.00  0.00     0.167 A 
ATOM     12  N   UNK d   1      51.092  83.095  24.957  0.00  0.00    -0.283 N 
ATOM     13  C   UNK d   1      50.117  82.350  24.442  0.00  0.00     0.332 A 
ATOM     14  O   UNK d   1      49.327  81.720  25.215  0.00  0.00    -0.246 OA
ATOM     15  N   UNK d   1      49.931  82.237  23.111  0.00  0.00    -0.270 N 
ATOM     16  C   UNK d   1      50.728  82.876  22.248  0.00  0.00     0.262 A 
ATOM     17  O   UNK d   1      50.556  82.771  21.007  0.00  0.00    -0.267 OA
ATOM     18  C   UNK d   1      48.844  81.408  22.610  0.00  0.00     0.164 C 
ATOM     19  C   UNK d   1      51.281  83.206  26.387  0.00  0.00     0.163 C 
ATOM     20  O   UNK d   1      52.922  84.521  24.595  0.00  0.00    -0.290 OA
ENDROOT
BRANCH   9  21
ATOM     21  C   UNK d   1      53.208  83.380  20.770  0.00  0.00     0.078 A 
ATOM     22  C   UNK d   1      53.872  82.248  21.176  0.00  0.00     0.197 A 
ATOM     23  N   UNK d   1      54.421  81.369  20.322  0.00  0.00    -0.281 N 
ATOM     24  O   UNK d   1      53.983  81.999  22.528  0.00  0.00    -0.171 OA
ATOM     25  C   UNK d   1      54.313  81.614  19.002  0.00  0.00     0.332 A 
ATOM     26  C   UNK d   1      55.113  80.181  20.782  0.00  0.00     0.163 C 
ATOM     27  O   UNK d   1      54.835  80.779  18.207  0.00  0.00    -0.246 OA
ATOM     28  N   UNK d   1      53.671  82.710  18.560  0.00  0.00    -0.270 N 
ATOM     29  C   UNK d   1      53.115  83.599  19.396  0.00  0.00     0.262 A 
ATOM     30  C   UNK d   1      53.583  82.929  17.135  0.00  0.00     0.164 C 
ATOM     31  O   UNK d   1      52.511  84.629  19.014  0.00  0.00    -0.267 OA
ENDBRANCH   9  21
TORSDOF 1
ENDMDL
