/Users/jonathanwahrer/Desktop/Msc/3_Semester/Drug_Design_Praktikum/waehrer_HTS_screening/HTS_experiment/out/docking_results/vina_output/3npc/2214_docked.pdbqt
 OpenBabel03192221053D

 34 38  0  0  1  0  0  0  0  0999 V2000
   54.5940   85.9880   25.9570 Cl  0  0  0  0  0  0  0  0  0  0  0  0
   53.6950   84.9420   24.8790 C   0  0  0  0  0  0  0  0  0  0  0  0
   53.6930   85.1190   23.5220 C   0  0  0  0  0  3  0  0  0  0  0  0
   52.9610   84.2610   22.6970 C   0  0  0  0  0  0  0  0  0  0  0  0
   52.2570   83.2540   23.2870 C   0  0  0  0  0  0  0  0  0  0  0  0
   52.2560   83.0700   24.6790 C   0  0  0  0  0  3  0  0  0  0  0  0
   52.9720   83.9090   25.4850 C   0  0  0  0  0  3  0  0  0  0  0  0
   51.5890   82.5100   22.2720 N   0  0  0  0  0  0  0  0  0  0  0  0
   51.8820   83.0650   21.0130 C   0  0  0  0  0  0  0  0  0  0  0  0
   51.4260   82.6150   19.9140 O   0  0  0  0  0  0  0  0  0  0  0  0
   52.7750   84.2060   21.2370 C   0  0  1  0  0  0  0  0  0  0  0  0
   52.1770   85.4630   20.8460 N   0  0  0  0  0  0  0  0  0  0  0  0
   52.9090   86.0360   19.7610 C   0  0  2  0  0  3  0  0  0  0  0  0
   53.8570   84.9900   19.3250 C   0  0  1  0  0  3  0  0  0  0  0  0
   54.0850   84.0760   20.4970 C   0  0  2  0  0  3  0  0  0  0  0  0
   54.2470   82.7560   19.8480 C   0  0  0  0  0  0  0  0  0  0  0  0
   54.7730   81.7150   20.3160 O   0  0  0  0  0  0  0  0  0  0  0  0
   53.6910   82.7950   18.5170 N   0  0  0  0  0  0  0  0  0  0  0  0
   53.1530   84.1000   18.3370 C   0  0  0  0  0  0  0  0  0  0  0  0
   52.2670   84.4040   17.5040 O   0  0  0  0  0  0  0  0  0  0  0  0
   50.9620   81.6630   22.4200 H   0  0  0  0  0  0  0  0  0  0  0  0
   52.1540   86.1630   21.6200 H   0  0  0  0  0  0  0  0  0  0  0  0
   53.5490   87.3510   20.1190 C   0  0  0  0  0  2  0  0  0  0  0  0
   52.8350   88.5260   19.6550 C   0  0  0  0  0  0  0  0  0  0  0  0
   51.5890   88.5080   19.5650 O   0  0  0  0  0  0  0  0  0  0  0  0
   53.5270   89.7040   19.2990 N   0  0  0  0  0  0  0  0  0  0  0  0
   53.2420   90.6150   19.7290 H   0  0  0  0  0  0  0  0  0  0  0  0
   54.3150   89.7390   18.6260 H   0  0  0  0  0  0  0  0  0  0  0  0
   53.6890   81.7020   17.5670 C   0  0  0  0  0  2  0  0  0  0  0  0
   54.8140   81.7820   16.5710 C   0  0  1  0  0  3  0  0  0  0  0  0
   54.3920   81.2640   15.3490 O   0  0  0  0  0  0  0  0  0  0  0  0
   53.8960   82.3150   14.6110 C   0  0  0  0  0  2  0  0  0  0  0  0
   54.5990   83.5770   15.0590 C   0  0  0  0  0  2  0  0  0  0  0  0
   55.3260   83.1570   16.3220 C   0  0  0  0  0  2  0  0  0  0  0  0
  2  7  1  0  0  0  0
  2  1  1  0  0  0  0
  3  2  2  0  0  0  0
  4  5  2  0  0  0  0
  4  3  1  0  0  0  0
  5  6  1  0  0  0  0
  6  7  2  0  0  0  0
  8 21  1  0  0  0  0
  8  5  1  0  0  0  0
  9  8  1  0  0  0  0
 10  9  2  0  0  0  0
 11  9  1  6  0  0  0
 11  4  1  0  0  0  0
 12 11  1  0  0  0  0
 12 22  1  0  0  0  0
 13 23  1  1  0  0  0
 13 12  1  0  0  0  0
 14 19  1  6  0  0  0
 14 13  1  0  0  0  0
 14 15  1  0  0  0  0
 15 16  1  6  0  0  0
 15 11  1  0  0  0  0
 16 17  2  0  0  0  0
 18 16  1  0  0  0  0
 19 18  1  0  0  0  0
 20 19  2  0  0  0  0
 24 23  1  0  0  0  0
 25 24  2  0  0  0  0
 26 24  1  0  0  0  0
 26 27  1  0  0  0  0
 28 26  1  0  0  0  0
 29 18  1  0  0  0  0
 30 29  1  1  0  0  0
 31 30  1  0  0  0  0
 32 33  1  0  0  0  0
 32 31  1  0  0  0  0
 33 34  1  0  0  0  0
 34 30  1  0  0  0  0
M  END
>  <Pose>
1

>  <Score>
-7.454

$$$$
