/Users/jonathanwahrer/Desktop/Msc/3_Semester/Drug_Design_Praktikum/waehrer_HTS_screening/HTS_experiment/out/docking_results/vina_output/3npc/2225_docked.pdbqt
 OpenBabel03192221053D

 29 32  0  0  0  0  0  0  0  0999 V2000
   54.9020   92.1440   21.5050 C   0  0  0  0  0  0  0  0  0  0  0  0
   53.6460   92.4230   21.7160 O   0  0  0  0  0  0  0  0  0  0  0  0
   55.1540   91.2100   20.5120 N   0  0  0  0  0  0  0  0  0  0  0  0
   53.9780   90.6150   19.8070 C   0  0  0  0  0  2  0  0  0  0  0  0
   54.2940   89.1500   19.6430 C   0  0  0  0  0  2  0  0  0  0  0  0
   55.3060   88.6780   20.5700 N   0  0  0  0  0  0  0  0  0  0  0  0
   56.6120   89.2730   20.4780 C   0  0  0  0  0  2  0  0  0  0  0  0
   56.4120   90.7100   20.0250 C   0  0  0  0  0  2  0  0  0  0  0  0
   54.9910   87.6780   21.5140 C   0  0  0  0  0  0  0  0  0  0  0  0
   54.4080   86.5060   21.1350 N   0  0  0  0  0  0  0  0  0  0  0  0
   54.0960   85.5360   21.9830 C   0  0  0  0  0  0  0  0  0  0  0  0
   54.3800   85.7410   23.2950 N   0  0  0  0  0  0  0  0  0  0  0  0
   54.9440   86.8490   23.7400 C   0  0  0  0  0  3  0  0  0  0  0  0
   55.2680   87.8630   22.8440 C   0  0  0  0  0  3  0  0  0  0  0  0
   53.4900   84.3130   21.6040 N   0  0  0  0  0  0  0  0  0  0  0  0
   53.8770   83.6660   20.3560 C   0  0  0  0  0  2  0  0  0  0  0  0
   52.5640   83.4230   19.6070 C   0  0  0  0  0  2  0  0  0  0  0  0
   51.7450   82.6100   20.3450 O   0  0  0  0  0  0  0  0  0  0  0  0
   51.3400   83.1350   21.5490 C   0  0  0  0  0  2  0  0  0  0  0  0
   52.4840   83.6480   22.3950 C   0  0  0  0  0  2  0  0  0  0  0  0
   55.8330   92.8880   22.3760 C   0  0  0  0  0  2  0  0  0  0  0  0
   55.4780   93.5690   23.4050 O   0  0  0  0  0  0  0  0  0  0  0  0
   55.1120   94.2860   24.4180 C   0  0  0  0  0  0  0  0  0  0  0  0
   53.7860   94.3780   24.8950 C   0  0  0  0  0  3  0  0  0  0  0  0
   53.4650   95.1510   25.9690 C   0  0  0  0  0  3  0  0  0  0  0  0
   54.4030   95.8890   26.6530 C   0  0  0  0  0  0  0  0  0  0  0  0
   53.9730   96.8760   28.0270 Cl  0  0  0  0  0  0  0  0  0  0  0  0
   55.7020   95.8130   26.2020 C   0  0  0  0  0  3  0  0  0  0  0  0
   56.0600   95.0490   25.1310 C   0  0  0  0  0  3  0  0  0  0  0  0
  1  2  2  0  0  0  0
  1 21  1  0  0  0  0
  3  1  1  0  0  0  0
  4  3  1  0  0  0  0
  5  4  1  0  0  0  0
  5  6  1  0  0  0  0
  6  9  1  0  0  0  0
  7  6  1  0  0  0  0
  8  7  1  0  0  0  0
  8  3  1  0  0  0  0
  9 14  2  0  0  0  0
 10  9  1  0  0  0  0
 10 11  2  0  0  0  0
 11 12  1  0  0  0  0
 12 13  2  0  0  0  0
 14 13  1  0  0  0  0
 15 11  1  0  0  0  0
 15 20  1  0  0  0  0
 16 15  1  0  0  0  0
 17 18  1  0  0  0  0
 17 16  1  0  0  0  0
 18 19  1  0  0  0  0
 19 20  1  0  0  0  0
 21 22  1  0  0  0  0
 22 23  1  0  0  0  0
 23 24  2  0  0  0  0
 23 29  1  0  0  0  0
 24 25  1  0  0  0  0
 25 26  2  0  0  0  0
 26 27  1  0  0  0  0
 28 26  1  0  0  0  0
 29 28  2  0  0  0  0
M  END
>  <Pose>
1

>  <Score>
-8.722

$$$$
