/Users/jonathanwahrer/Desktop/Msc/3_Semester/Drug_Design_Praktikum/waehrer_HTS_screening/HTS_experiment/out/docking_results/vina_output/3npc/2231_docked.pdbqt
 OpenBabel03192221053D

 27 31  0  0  0  0  0  0  0  0999 V2000
   54.6900   87.4400   21.7000 N   0  0  0  0  0  0  0  0  0  0  0  0
   54.2440   86.2000   21.6030 N   0  0  0  0  0  0  0  0  0  0  0  0
   54.2300   85.5930   22.7740 N   0  0  0  0  0  0  0  0  0  0  0  0
   54.6820   86.4400   23.7150 C   0  0  0  0  0  0  0  0  0  0  0  0
   54.9660   87.5980   23.0190 C   0  0  0  0  0  0  0  0  0  0  0  0
   55.4480   88.6490   23.7190 N   0  0  0  0  0  0  0  0  0  0  0  0
   55.6300   88.5310   25.0470 C   0  0  0  0  0  3  0  0  0  0  0  0
   55.3500   87.3910   25.7250 N   0  0  0  0  0  0  0  0  0  0  0  0
   54.8680   86.3140   25.0770 C   0  0  0  0  0  0  0  0  0  0  0  0
   54.5660   85.1060   25.7750 N   0  0  0  0  0  0  0  0  0  0  0  0
   53.2730   85.0430   26.4300 C   0  0  0  0  0  2  0  0  0  0  0  0
   52.8220   83.5950   26.6060 C   0  0  0  0  0  2  0  0  0  0  0  0
   53.9190   82.7400   26.8890 N   0  0  0  0  0  0  0  0  0  0  0  0
   54.9170   82.6850   25.7770 C   0  0  0  0  0  2  0  0  0  0  0  0
   54.1210   82.0100   28.0470 C   0  0  0  0  0  0  0  0  0  0  0  0
   55.5460   84.0650   25.7740 C   0  0  0  0  0  2  0  0  0  0  0  0
   55.2310   81.2920   28.0460 O   0  0  0  0  0  0  0  0  0  0  0  0
   53.3560   81.8710   29.2770 C   0  0  0  0  0  3  0  0  0  0  0  0
   54.0850   81.8040   30.5660 C   0  0  0  0  0  2  0  0  0  0  0  0
   53.0830   82.8980   30.2770 C   0  0  0  0  0  2  0  0  0  0  0  0
   54.8420   88.3880   20.6540 C   0  0  0  0  0  0  0  0  0  0  0  0
   55.9180   89.2350   20.5260 C   0  0  0  0  0  3  0  0  0  0  0  0
   56.0110   90.1370   19.4890 C   0  0  0  0  0  3  0  0  0  0  0  0
   55.0160   90.2080   18.5480 C   0  0  0  0  0  0  0  0  0  0  0  0
   55.1400   91.3470   17.2420 Cl  0  0  0  0  0  0  0  0  0  0  0  0
   53.9350   89.3810   18.6470 C   0  0  0  0  0  3  0  0  0  0  0  0
   53.8590   88.4820   19.6940 C   0  0  0  0  0  3  0  0  0  0  0  0
  1  5  1  0  0  0  0
  2  1  1  0  0  0  0
  2  3  2  0  0  0  0
  3  4  1  0  0  0  0
  4  9  1  0  0  0  0
  5  4  2  0  0  0  0
  5  6  1  0  0  0  0
  6  7  2  0  0  0  0
  7  8  1  0  0  0  0
  9  8  2  0  0  0  0
  9 10  1  0  0  0  0
 10 11  1  0  0  0  0
 11 12  1  0  0  0  0
 12 13  1  0  0  0  0
 13 15  1  0  0  0  0
 14 13  1  0  0  0  0
 15 18  1  0  0  0  0
 16 10  1  0  0  0  0
 16 14  1  0  0  0  0
 17 15  2  0  0  0  0
 18 20  1  0  0  0  0
 18 19  1  0  0  0  0
 20 19  1  0  0  0  0
 21  1  1  0  0  0  0
 22 21  1  0  0  0  0
 23 22  2  0  0  0  0
 24 26  2  0  0  0  0
 24 23  1  0  0  0  0
 25 24  1  0  0  0  0
 26 27  1  0  0  0  0
 27 21  2  0  0  0  0
M  END
>  <Pose>
1

>  <Score>
-8.010

$$$$
