MODEL 1
REMARK VINA RESULT:   -10.016      0.000      0.000
REMARK INTER + INTRA:         -12.315
REMARK INTER:                 -11.773
REMARK INTRA:                  -0.542
REMARK UNBOUND:                -0.542
REMARK  3 active torsions:
REMARK  status: ('A' for Active; 'I' for Inactive)
REMARK    1  A    between atoms: C_7  and  N_8 
REMARK       I    between atoms: N_8  and  C_9 
REMARK    2  A    between atoms: C_9  and  C_11 
REMARK    3  A    between atoms: N_13  and  C_18 
ROOT
ATOM      1  N   UNK d   1      55.426  93.207  24.334  0.00  0.00    -0.319 N 
ATOM      2  C   UNK d   1      54.929  92.918  23.061  0.00  0.00     0.293 C 
ATOM      3  O   UNK d   1      54.147  93.665  22.454  0.00  0.00    -0.264 OA
ATOM      4  H   UNK d   1      56.094  92.501  24.778  0.00  0.00     0.169 HD
ENDROOT
BRANCH   2   5
ATOM      5  C   UNK d   1      55.330  91.668  22.359  0.00  0.00     0.213 C 
ATOM      6  N   UNK d   1      55.457  90.579  23.052  0.00  0.00    -0.141 NA
ATOM      7  N   UNK d   1      55.829  89.367  22.474  0.00  0.00    -0.198 N 
ATOM      8  C   UNK d   1      56.076  89.320  21.087  0.00  0.00     0.262 C 
ATOM      9  O   UNK d   1      56.327  88.171  20.588  0.00  0.00    -0.269 OA
ATOM     10  C   UNK d   1      56.051  90.523  20.231  0.00  0.00     0.226 C 
ATOM     11  N   UNK d   1      55.573  91.644  20.962  0.00  0.00    -0.360 N 
ATOM     12  H   UNK d   1      55.381  92.539  20.442  0.00  0.00     0.161 HD
BRANCH   7  13
ATOM     13  C   UNK d   1      55.966  88.173  23.282  0.00  0.00     0.062 A 
ATOM     14  C   UNK d   1      57.153  87.851  23.894  0.00  0.00     0.032 A 
ATOM     15  C   UNK d   1      57.259  86.694  24.673  0.00  0.00     0.009 A 
ATOM     16  C   UNK d   1      56.178  85.852  24.840  0.00  0.00    -0.062 A 
ATOM     17  C   UNK d   1      54.997  86.187  24.219  0.00  0.00     0.009 A 
ATOM     18  C   UNK d   1      56.238  84.608  25.664  0.00  0.00     0.048 C 
ATOM     19  C   UNK d   1      54.901  87.317  23.462  0.00  0.00     0.032 A 
ENDBRANCH   7  13
ENDBRANCH   2   5
BRANCH   1  20
ATOM     20  C   UNK d   1      55.116  94.353  25.077  0.00  0.00     0.059 A 
ATOM     21  C   UNK d   1      56.076  95.366  25.144  0.00  0.00     0.063 A 
ATOM     22 Cl   UNK d   1      57.608  95.162  24.322  0.00  0.00    -0.082 Cl
ATOM     23  C   UNK d   1      55.859  96.522  25.839  0.00  0.00     0.058 A 
ATOM     24  C   UNK d   1      54.688  96.753  26.505  0.00  0.00     0.070 A 
ATOM     25  C   UNK d   1      53.721  95.784  26.463  0.00  0.00     0.098 A 
ATOM     26  N   UNK d   1      54.431  97.960  27.232  0.00  0.00    -0.323 N 
ATOM     27  C   UNK d   1      53.950  94.596  25.747  0.00  0.00     0.070 A 
ATOM     28  O   UNK d   1      52.500  95.938  27.114  0.00  0.00    -0.340 OA
ATOM     29  C   UNK d   1      52.019  97.219  27.547  0.00  0.00     0.278 C 
ATOM     30  C   UNK d   1      53.173  98.106  27.883  0.00  0.00     0.246 C 
ATOM     31  O   UNK d   1      53.011  98.988  28.757  0.00  0.00    -0.271 OA
ATOM     32  H   UNK d   1      55.146  98.711  27.282  0.00  0.00     0.169 HD
ENDBRANCH   1  20
TORSDOF 3
ENDMDL
