MODEL 1
REMARK VINA RESULT:    -8.152      0.000      0.000
REMARK INTER + INTRA:         -10.532
REMARK INTER:                 -10.059
REMARK INTRA:                  -0.473
REMARK UNBOUND:                -0.473
REMARK  4 active torsions:
REMARK  status: ('A' for Active; 'I' for Inactive)
REMARK    1  A    between atoms: C_3  and  O_20 
REMARK    2  A    between atoms: C_5  and  C_8 
REMARK       I    between atoms: C_8  and  N_10 
REMARK    3  A    between atoms: N_10  and  C_11 
REMARK    4  A    between atoms: C_11  and  C_12 
ROOT
ATOM      1  C   UNK d   1      52.217  97.613  28.418  0.00  0.00     0.251 C 
ATOM      2  O   UNK d   1      52.636  98.250  29.425  0.00  0.00    -0.268 OA
ATOM      3  N   UNK d   1      50.823  97.524  28.121  0.00  0.00    -0.355 N 
ATOM      4  H   UNK d   1      50.534  96.998  27.297  0.00  0.00     0.162 HD
ENDROOT
BRANCH   1   5
ATOM      5  C   UNK d   1      53.171  96.964  27.554  0.00  0.00     0.034 A 
ATOM      6  C   UNK d   1      54.487  97.438  27.569  0.00  0.00     0.055 A 
ATOM      7  C   UNK d   1      55.487  96.903  26.788  0.00  0.00     0.090 A 
ATOM      8  C   UNK d   1      55.179  95.851  25.953  0.00  0.00     0.067 A 
ATOM      9 Cl   UNK d   1      56.442  95.150  24.944  0.00  0.00    -0.081 Cl
ATOM     10  C   UNK d   1      53.879  95.366  25.923  0.00  0.00     0.028 A 
ATOM     11  C   UNK d   1      52.875  95.922  26.724  0.00  0.00     0.019 A 
BRANCH   7  12
ATOM     12  O   UNK d   1      56.784  97.395  26.824  0.00  0.00    -0.354 OA
ATOM     13  C   UNK d   1      57.173  98.505  26.037  0.00  0.00     0.210 C 
ENDBRANCH   7  12
ENDBRANCH   1   5
BRANCH   3  14
ATOM     14  C   UNK d   1      49.906  98.184  29.004  0.00  0.00     0.160 C 
BRANCH  14  15
ATOM     15  C   UNK d   1      49.378  99.493  28.572  0.00  0.00     0.268 C 
ATOM     16  N   UNK d   1      50.141 100.655  28.909  0.00  0.00     0.100 N 
ATOM     17  C   UNK d   1      50.004 101.559  27.740  0.00  0.00     0.303 C 
ATOM     18  C   UNK d   1      49.607 101.443  30.001  0.00  0.00     0.303 C 
ATOM     19  C   UNK d   1      48.500 101.541  27.438  0.00  0.00     0.302 C 
ATOM     20  N   UNK d   1      47.715 101.169  28.597  0.00  0.00     0.094 N 
ATOM     21  C   UNK d   1      47.944  99.777  28.992  0.00  0.00     0.309 C 
ATOM     22  C   UNK d   1      48.206 101.964  29.709  0.00  0.00     0.302 C 
ENDBRANCH  14  15
ENDBRANCH   3  14
TORSDOF 4
ENDMDL
