/Users/jonathanwahrer/Desktop/Msc/3_Semester/Drug_Design_Praktikum/waehrer_HTS_screening/HTS_experiment/out/docking_results/vina_output/3npc/2271_docked.pdbqt
 OpenBabel03192221063D

 27 30  0  0  1  0  0  0  0  0999 V2000
   54.2470   85.2600   20.8790 C   0  0  2  0  0  0  0  0  0  0  0  0
   53.9960   83.9480   20.5430 N   0  0  0  0  0  4  0  0  0  0  0  0
   52.7040   83.6520   21.1240 C   0  0  0  0  0  0  0  0  0  0  0  0
   51.6350   83.0310   20.7430 C   0  0  0  0  0  3  0  0  0  0  0  0
   50.4280   82.8790   21.5760 C   0  0  0  0  0  2  0  0  0  0  0  0
   50.4880   83.5140   22.9200 C   0  0  0  0  0  2  0  0  0  0  0  0
   51.8670   83.7530   23.4330 C   0  0  0  0  0  2  0  0  0  0  0  0
   52.7670   84.2420   22.4100 N   0  0  0  0  0  0  0  0  0  0  0  0
   53.8030   85.2700   22.3700 C   0  0  0  0  0  2  0  0  0  0  0  0
   54.6440   83.3480   21.1740 H   0  0  0  0  0  0  0  0  0  0  0  0
   53.5760   86.3940   20.2770 C   0  0  0  0  0  0  0  0  0  0  0  0
   54.1800   87.6360   20.3200 C   0  0  0  0  0  3  0  0  0  0  0  0
   53.5650   88.7270   19.7810 C   0  0  0  0  0  3  0  0  0  0  0  0
   52.3190   88.6450   19.1720 C   0  0  0  0  0  0  0  0  0  0  0  0
   51.5100   90.0250   18.4750 Cl  0  0  0  0  0  0  0  0  0  0  0  0
   51.7220   87.4150   19.1310 C   0  0  0  0  0  3  0  0  0  0  0  0
   52.3440   86.3060   19.6770 C   0  0  0  0  0  3  0  0  0  0  0  0
   55.6420   85.5260   20.9740 O   0  0  0  0  0  0  0  0  0  0  0  0
   55.7610   86.4450   20.6210 H   0  0  0  0  0  0  0  0  0  0  0  0
   54.1550   83.4200   19.2710 C   0  0  0  0  0  0  0  0  0  0  0  0
   53.9080   84.0390   18.0920 C   0  0  0  0  0  3  0  0  0  0  0  0
   54.1300   83.3770   16.8860 C   0  0  0  0  0  3  0  0  0  0  0  0
   54.6060   82.0780   16.8280 C   0  0  0  0  0  0  0  0  0  0  0  0
   54.8490   81.4740   18.0440 C   0  0  0  0  0  3  0  0  0  0  0  0
   54.6400   82.0970   19.2450 C   0  0  0  0  0  3  0  0  0  0  0  0
   54.8120   81.4560   15.6070 O   0  0  0  0  0  0  0  0  0  0  0  0
   54.3300   82.0610   14.4350 C   0  0  0  0  0  1  0  0  0  0  0  0
  1 18  1  6  0  0  0
  1  9  1  0  0  0  0
  2  1  1  0  0  0  0
  2  3  1  0  0  0  0
  2 10  1  0  0  0  0
  3  8  1  0  0  0  0
  4  3  2  0  0  0  0
  4  5  1  0  0  0  0
  5  6  1  0  0  0  0
  6  7  1  0  0  0  0
  8  7  1  0  0  0  0
  9  8  1  0  0  0  0
 11 12  1  0  0  0  0
 11  1  1  0  0  0  0
 13 12  2  0  0  0  0
 14 13  1  0  0  0  0
 15 14  1  0  0  0  0
 16 14  2  0  0  0  0
 16 17  1  0  0  0  0
 17 11  2  0  0  0  0
 19 18  1  0  0  0  0
 20  2  1  0  0  0  0
 21 20  2  0  0  0  0
 22 21  1  0  0  0  0
 23 22  2  0  0  0  0
 23 24  1  0  0  0  0
 24 25  2  0  0  0  0
 25 20  1  0  0  0  0
 26 23  1  0  0  0  0
 27 26  1  0  0  0  0
M  END
>  <Pose>
1

>  <Score>
-7.488

$$$$
