MODEL 1
REMARK VINA RESULT:    -7.488      0.000      0.000
REMARK INTER + INTRA:          -9.043
REMARK INTER:                  -9.021
REMARK INTRA:                  -0.023
REMARK UNBOUND:                -0.023
REMARK  4 active torsions:
REMARK  status: ('A' for Active; 'I' for Inactive)
REMARK    1  A    between atoms: C_5  and  C_8 
REMARK    2  A    between atoms: C_8  and  O_25 
REMARK    3  A    between atoms: N_9  and  C_17 
REMARK    4  A    between atoms: C_20  and  O_23 
ROOT
ATOM      1  C   UNK d   1      54.247  85.260  20.879  0.00  0.00     0.283 C 
ATOM      2  N   UNK d   1      53.996  83.948  20.543  0.00  0.00     0.042 N 
ATOM      3  C   UNK d   1      52.704  83.652  21.124  0.00  0.00     0.210 C 
ATOM      4  C   UNK d   1      51.635  83.031  20.743  0.00  0.00     0.030 C 
ATOM      5  C   UNK d   1      50.428  82.879  21.576  0.00  0.00     0.032 C 
ATOM      6  C   UNK d   1      50.488  83.514  22.920  0.00  0.00     0.023 C 
ATOM      7  C   UNK d   1      51.867  83.753  23.433  0.00  0.00     0.125 C 
ATOM      8  N   UNK d   1      52.767  84.242  22.410  0.00  0.00    -0.356 N 
ATOM      9  C   UNK d   1      53.803  85.270  22.370  0.00  0.00     0.200 C 
ATOM     10  H   UNK d   1      54.644  83.348  21.174  0.00  0.00     0.299 HD
ENDROOT
BRANCH   1  11
ATOM     11  C   UNK d   1      53.576  86.394  20.277  0.00  0.00     0.007 A 
ATOM     12  C   UNK d   1      54.180  87.636  20.320  0.00  0.00     0.014 A 
ATOM     13  C   UNK d   1      53.565  88.727  19.781  0.00  0.00     0.024 A 
ATOM     14  C   UNK d   1      52.319  88.645  19.172  0.00  0.00     0.034 A 
ATOM     15 Cl   UNK d   1      51.510  90.025  18.475  0.00  0.00    -0.084 Cl
ATOM     16  C   UNK d   1      51.722  87.415  19.131  0.00  0.00     0.024 A 
ATOM     17  C   UNK d   1      52.344  86.306  19.677  0.00  0.00     0.014 A 
ENDBRANCH   1  11
BRANCH   1  18
ATOM     18  O   UNK d   1      55.642  85.526  20.974  0.00  0.00    -0.359 OA
ATOM     19  H   UNK d   1      55.761  86.445  20.621  0.00  0.00     0.213 HD
ENDBRANCH   1  18
BRANCH   2  20
ATOM     20  C   UNK d   1      54.155  83.420  19.271  0.00  0.00     0.146 A 
ATOM     21  C   UNK d   1      53.908  84.039  18.092  0.00  0.00     0.041 A 
ATOM     22  C   UNK d   1      54.130  83.377  16.886  0.00  0.00     0.039 A 
ATOM     23  C   UNK d   1      54.606  82.078  16.828  0.00  0.00     0.068 A 
ATOM     24  C   UNK d   1      54.849  81.474  18.044  0.00  0.00     0.039 A 
ATOM     25  C   UNK d   1      54.640  82.097  19.245  0.00  0.00     0.041 A 
BRANCH  23  26
ATOM     26  O   UNK d   1      54.812  81.456  15.607  0.00  0.00    -0.356 OA
ATOM     27  C   UNK d   1      54.330  82.061  14.435  0.00  0.00     0.210 C 
ENDBRANCH  23  26
ENDBRANCH   2  20
TORSDOF 4
ENDMDL
