MODEL 1
REMARK VINA RESULT:    -8.387      0.000      0.000
REMARK INTER + INTRA:         -12.046
REMARK INTER:                 -11.328
REMARK INTRA:                  -0.718
REMARK UNBOUND:                -0.718
REMARK  6 active torsions:
REMARK  status: ('A' for Active; 'I' for Inactive)
REMARK    1  A    between atoms: N_8  and  C_12 
REMARK    2  A    between atoms: C_12  and  C_13 
REMARK    3  A    between atoms: C_13  and  C_14 
REMARK       I    between atoms: C_14  and  N_16 
REMARK    4  A    between atoms: N_19  and  C_22 
REMARK    5  A    between atoms: C_22  and  C_23 
REMARK       I    between atoms: C_23  and  N_25 
REMARK    6  A    between atoms: N_25  and  C_26 
ROOT
ATOM      1  C   UNK d   1      50.886 100.145  27.411  0.00  0.00     0.221 C 
ATOM      2  O   UNK d   1      50.413 100.225  26.213  0.00  0.00    -0.273 OA
ATOM      3  N   UNK d   1      49.939 100.171  28.437  0.00  0.00    -0.349 N 
ATOM      4  C   UNK d   1      50.263 100.307  29.869  0.00  0.00     0.145 C 
ATOM      5  C   UNK d   1      49.721 101.754  30.092  0.00  0.00     0.137 C 
ATOM      6  N   UNK d   1      48.273 101.708  29.942  0.00  0.00    -0.401 N 
ATOM      7  C   UNK d   1      47.679 100.741  29.195  0.00  0.00     0.137 C 
ATOM      8  C   UNK d   1      48.531 100.009  28.197  0.00  0.00     0.145 C 
ENDROOT
BRANCH   1   9
ATOM      9  C   UNK d   1      52.321 100.020  27.486  0.00  0.00     0.123 C 
BRANCH   9  10
ATOM     10  C   UNK d   1      52.971  98.946  28.232  0.00  0.00     0.144 C 
BRANCH  10  11
ATOM     11  N   UNK d   1      53.350  97.753  27.495  0.00  0.00    -0.290 N 
ATOM     12  C   UNK d   1      54.472  97.423  26.862  0.00  0.00     0.073 A 
ATOM     13  C   UNK d   1      54.324  96.210  26.233  0.00  0.00     0.109 A 
ATOM     14  C   UNK d   1      55.705  98.094  26.773  0.00  0.00     0.034 A 
ATOM     15  C   UNK d   1      55.361  95.617  25.502  0.00  0.00     0.063 A 
ATOM     16  O   UNK d   1      53.102  95.833  26.502  0.00  0.00    -0.259 OA
ATOM     17  C   UNK d   1      56.564  96.259  25.405  0.00  0.00     0.036 A 
ATOM     18 Cl   UNK d   1      57.884  95.542  24.514  0.00  0.00    -0.084 Cl
ATOM     19  C   UNK d   1      56.708  97.478  26.042  0.00  0.00     0.026 A 
ATOM     20  C   UNK d   1      52.482  96.715  27.247  0.00  0.00     0.372 A 
ATOM     21  O   UNK d   1      51.293  96.642  27.672  0.00  0.00    -0.237 OA
ENDBRANCH  10  11
ENDBRANCH   9  10
ENDBRANCH   1   9
BRANCH   6  22
ATOM     22  C   UNK d   1      47.770 102.955  30.274  0.00  0.00     0.219 C 
BRANCH  22  23
ATOM     23  C   UNK d   1      47.689 103.153  31.789  0.00  0.00     0.235 C 
ATOM     24  O   UNK d   1      46.767 102.446  32.349  0.00  0.00    -0.272 OA
ATOM     25  N   UNK d   1      48.503 103.989  32.422  0.00  0.00    -0.355 N 
ATOM     26  H   UNK d   1      48.068 103.557  33.634  0.00  0.00     0.162 HD
BRANCH  25  27
ATOM     27  C   UNK d   1      49.370 104.880  33.095  0.00  0.00     0.084 A 
ATOM     28  C   UNK d   1      50.903 104.642  32.815  0.00  0.00     0.027 A 
ATOM     29  C   UNK d   1      50.337 104.303  34.107  0.00  0.00     0.027 A 
ENDBRANCH  25  27
ENDBRANCH  22  23
ENDBRANCH   6  22
TORSDOF 6
ENDMDL
