MODEL 1
REMARK VINA RESULT:    -8.110      0.000      0.000
REMARK INTER + INTRA:          -9.316
REMARK INTER:                  -9.058
REMARK INTRA:                  -0.258
REMARK UNBOUND:                -0.258
REMARK  2 active torsions:
REMARK  status: ('A' for Active; 'I' for Inactive)
REMARK    1  A    between atoms: C_3  and  N_17 
REMARK    2  A    between atoms: N_17  and  C_18 
ROOT
ATOM      1 Cl   UNK d   1      54.039  85.708  21.491  0.00  0.00    -0.076 Cl
ATOM      2  C   UNK d   1      54.213  87.323  20.839  0.00  0.00     0.135 A 
ATOM      3  C   UNK d   1      54.928  88.276  21.534  0.00  0.00     0.126 A 
ATOM      4  C   UNK d   1      55.028  89.523  20.959  0.00  0.00     0.291 A 
ATOM      5  O   UNK d   1      55.662  90.472  21.513  0.00  0.00    -0.264 OA
ATOM      6  N   UNK d   1      54.443  89.765  19.776  0.00  0.00    -0.241 N 
ATOM      7  N   UNK d   1      53.752  88.886  19.078  0.00  0.00    -0.242 N 
ATOM      8  C   UNK d   1      53.134  89.190  17.798  0.00  0.00     0.134 C 
ATOM      9  C   UNK d   1      51.920  90.084  17.942  0.00  0.00     0.031 C 
ATOM     10  C   UNK d   1      52.342  91.537  18.070  0.00  0.00     0.005 C 
ATOM     11  C   UNK d   1      53.207  91.753  19.291  0.00  0.00     0.031 C 
ATOM     12  C   UNK d   1      54.562  91.105  19.182  0.00  0.00     0.134 C 
ATOM     13  C   UNK d   1      54.859  90.892  17.740  0.00  0.00    -0.002 C 
ATOM     14  C   UNK d   1      54.157  90.006  17.043  0.00  0.00    -0.002 C 
ATOM     15  C   UNK d   1      53.638  87.640  19.627  0.00  0.00     0.287 A 
ATOM     16  O   UNK d   1      52.973  86.767  18.973  0.00  0.00    -0.265 OA
ENDROOT
BRANCH   3  17
ATOM     17  N   UNK d   1      55.546  88.020  22.792  0.00  0.00    -0.380 N 
ATOM     18  H   UNK d   1      54.867  87.995  23.612  0.00  0.00     0.160 HD
BRANCH  17  19
ATOM     19  C   UNK d   1      56.955  87.809  22.982  0.00  0.00     0.073 C 
ATOM     20  C   UNK d   1      57.330  87.769  24.453  0.00  0.00     0.031 C 
ATOM     21  C   UNK d   1      57.488  86.574  22.337  0.00  0.00     0.031 C 
ENDBRANCH  17  19
ENDBRANCH   3  17
TORSDOF 2
ENDMDL
