/Users/jonathanwahrer/Desktop/Msc/3_Semester/Drug_Design_Praktikum/waehrer_HTS_screening/HTS_experiment/out/docking_results/vina_output/3npc/2275_docked.pdbqt
 OpenBabel03192221073D

 21 23  0  0  1  0  0  0  0  0999 V2000
   54.0390   85.7080   21.4910 Cl  0  0  0  0  0  0  0  0  0  0  0  0
   54.2130   87.3230   20.8390 C   0  0  0  0  0  0  0  0  0  0  0  0
   54.9280   88.2760   21.5340 C   0  0  0  0  0  0  0  0  0  0  0  0
   55.0280   89.5230   20.9590 C   0  0  0  0  0  0  0  0  0  0  0  0
   55.6620   90.4720   21.5130 O   0  0  0  0  0  0  0  0  0  0  0  0
   54.4430   89.7650   19.7760 N   0  0  0  0  0  0  0  0  0  0  0  0
   53.7520   88.8860   19.0780 N   0  0  0  0  0  0  0  0  0  0  0  0
   53.1340   89.1900   17.7980 C   0  0  1  0  0  3  0  0  0  0  0  0
   51.9200   90.0840   17.9420 C   0  0  0  0  0  2  0  0  0  0  0  0
   52.3420   91.5370   18.0700 C   0  0  0  0  0  2  0  0  0  0  0  0
   53.2070   91.7530   19.2910 C   0  0  0  0  0  2  0  0  0  0  0  0
   54.5620   91.1050   19.1820 C   0  0  2  0  0  3  0  0  0  0  0  0
   54.8590   90.8920   17.7400 C   0  0  0  0  0  3  0  0  0  0  0  0
   54.1570   90.0060   17.0430 C   0  0  0  0  0  3  0  0  0  0  0  0
   53.6380   87.6400   19.6270 C   0  0  0  0  0  0  0  0  0  0  0  0
   52.9730   86.7670   18.9730 O   0  0  0  0  0  0  0  0  0  0  0  0
   55.5460   88.0200   22.7920 N   0  0  0  0  0  0  0  0  0  0  0  0
   54.8670   87.9950   23.6120 H   0  0  0  0  0  0  0  0  0  0  0  0
   56.9550   87.8090   22.9820 C   0  0  0  0  0  3  0  0  0  0  0  0
   57.3300   87.7690   24.4530 C   0  0  0  0  0  1  0  0  0  0  0  0
   57.4880   86.5740   22.3370 C   0  0  0  0  0  1  0  0  0  0  0  0
  2  1  1  0  0  0  0
  2  3  2  0  0  0  0
  3 17  1  0  0  0  0
  4  5  2  0  0  0  0
  4  3  1  0  0  0  0
  6  4  1  0  0  0  0
  7 15  1  0  0  0  0
  7  6  1  0  0  0  0
  8 14  1  6  0  0  0
  8  9  1  0  0  0  0
  8  7  1  0  0  0  0
  9 10  1  0  0  0  0
 10 11  1  0  0  0  0
 12 13  1  6  0  0  0
 12 11  1  0  0  0  0
 12  6  1  0  0  0  0
 14 13  2  0  0  0  0
 15  2  1  0  0  0  0
 16 15  2  0  0  0  0
 17 19  1  0  0  0  0
 17 18  1  0  0  0  0
 19 20  1  0  0  0  0
 21 19  1  0  0  0  0
M  END
>  <Pose>
1

>  <Score>
-8.110

$$$$
