MODEL 1
REMARK VINA RESULT:    -8.121      0.000      0.000
REMARK INTER + INTRA:          -9.321
REMARK INTER:                  -9.071
REMARK INTRA:                  -0.250
REMARK UNBOUND:                -0.250
REMARK  2 active torsions:
REMARK  status: ('A' for Active; 'I' for Inactive)
REMARK    1  A    between atoms: C_3  and  N_17 
REMARK    2  A    between atoms: N_17  and  C_18 
ROOT
ATOM      1 Cl   UNK d   1      54.935  86.555  21.929  0.00  0.00    -0.076 Cl
ATOM      2  C   UNK d   1      54.185  87.566  20.710  0.00  0.00     0.135 A 
ATOM      3  C   UNK d   1      53.080  87.070  20.049  0.00  0.00     0.126 A 
ATOM      4  C   UNK d   1      52.536  87.928  19.085  0.00  0.00     0.291 A 
ATOM      5  O   UNK d   1      51.535  87.530  18.457  0.00  0.00    -0.264 OA
ATOM      6  N   UNK d   1      53.068  89.132  18.845  0.00  0.00    -0.241 N 
ATOM      7  N   UNK d   1      54.130  89.601  19.483  0.00  0.00    -0.241 N 
ATOM      8  C   UNK d   1      54.577  90.934  19.104  0.00  0.00     0.139 C 
ATOM      9  C   UNK d   1      54.845  90.890  17.611  0.00  0.00     0.021 A 
ATOM     10  C   UNK d   1      53.697  90.328  16.892  0.00  0.00     0.021 A 
ATOM     11  C   UNK d   1      52.521  90.043  17.837  0.00  0.00     0.139 C 
ATOM     12  C   UNK d   1      52.283  91.323  18.589  0.00  0.00    -0.001 C 
ATOM     13  C   UNK d   1      53.336  91.786  19.242  0.00  0.00    -0.001 C 
ATOM     14  C   UNK d   1      54.106  91.794  16.697  0.00  0.00     0.015 A 
ATOM     15  C   UNK d   1      54.688  88.828  20.409  0.00  0.00     0.287 A 
ATOM     16  O   UNK d   1      55.696  89.265  21.021  0.00  0.00    -0.265 OA
ENDROOT
BRANCH   3  17
ATOM     17  N   UNK d   1      52.499  85.793  20.297  0.00  0.00    -0.380 N 
ATOM     18  H   UNK d   1      51.626  85.806  20.865  0.00  0.00     0.160 HD
BRANCH  17  19
ATOM     19  C   UNK d   1      53.013  84.553  19.841  0.00  0.00     0.073 C 
ATOM     20  C   UNK d   1      52.063  83.392  19.974  0.00  0.00     0.031 C 
ATOM     21  C   UNK d   1      53.453  84.587  18.384  0.00  0.00     0.031 C 
ENDBRANCH  17  19
ENDBRANCH   3  17
TORSDOF 2
ENDMDL
