/Users/jonathanwahrer/Desktop/Msc/3_Semester/Drug_Design_Praktikum/waehrer_HTS_screening/HTS_experiment/out/docking_results/vina_output/3npc/2276_docked.pdbqt
 OpenBabel03192221073D

 21 24  0  0  1  0  0  0  0  0999 V2000
   54.9350   86.5550   21.9290 Cl  0  0  0  0  0  0  0  0  0  0  0  0
   54.1850   87.5660   20.7100 C   0  0  0  0  0  0  0  0  0  0  0  0
   53.0800   87.0700   20.0490 C   0  0  0  0  0  0  0  0  0  0  0  0
   52.5360   87.9280   19.0850 C   0  0  0  0  0  0  0  0  0  0  0  0
   51.5350   87.5300   18.4570 O   0  0  0  0  0  0  0  0  0  0  0  0
   53.0680   89.1320   18.8450 N   0  0  0  0  0  0  0  0  0  0  0  0
   54.1300   89.6010   19.4830 N   0  0  0  0  0  0  0  0  0  0  0  0
   54.5770   90.9340   19.1040 C   0  0  1  0  0  3  0  0  0  0  0  0
   54.8450   90.8900   17.6110 C   0  0  1  0  0  3  0  0  0  0  0  0
   53.6970   90.3280   16.8920 C   0  0  1  0  0  3  0  0  0  0  0  0
   52.5210   90.0430   17.8370 C   0  0  2  0  0  3  0  0  0  0  0  0
   52.2830   91.3230   18.5890 C   0  0  0  0  0  2  0  0  0  0  0  0
   53.3360   91.7860   19.2420 C   0  0  0  0  0  2  0  0  0  0  0  0
   54.1060   91.7940   16.6970 C   0  0  0  0  0  2  0  0  0  0  0  0
   54.6880   88.8280   20.4090 C   0  0  0  0  0  0  0  0  0  0  0  0
   55.6960   89.2650   21.0210 O   0  0  0  0  0  0  0  0  0  0  0  0
   52.4990   85.7930   20.2970 N   0  0  0  0  0  0  0  0  0  0  0  0
   51.6260   85.8060   20.8650 H   0  0  0  0  0  0  0  0  0  0  0  0
   53.0130   84.5530   19.8410 C   0  0  0  0  0  3  0  0  0  0  0  0
   52.0630   83.3920   19.9740 C   0  0  0  0  0  1  0  0  0  0  0  0
   53.4530   84.5870   18.3840 C   0  0  0  0  0  1  0  0  0  0  0  0
  2  1  1  0  0  0  0
  3 17  1  0  0  0  0
  3  2  2  0  0  0  0
  4  3  1  0  0  0  0
  5  4  2  0  0  0  0
  6  4  1  0  0  0  0
  6  7  1  0  0  0  0
  7 15  1  0  0  0  0
  8 13  1  6  0  0  0
  8  7  1  0  0  0  0
  9 14  1  6  0  0  0
  9  8  1  0  0  0  0
 10 14  1  6  0  0  0
 10  9  1  0  0  0  0
 10 11  1  0  0  0  0
 11 12  1  1  0  0  0
 11  6  1  0  0  0  0
 12 13  1  0  0  0  0
 15  2  1  0  0  0  0
 15 16  2  0  0  0  0
 17 18  1  0  0  0  0
 19 20  1  0  0  0  0
 19 17  1  0  0  0  0
 21 19  1  0  0  0  0
M  END
>  <Pose>
1

>  <Score>
-8.121

$$$$
