MODEL 1
REMARK VINA RESULT:    -9.200      0.000      0.000
REMARK INTER + INTRA:         -11.943
REMARK INTER:                 -11.889
REMARK INTRA:                  -0.054
REMARK UNBOUND:                -0.054
REMARK  5 active torsions:
REMARK  status: ('A' for Active; 'I' for Inactive)
REMARK    1  A    between atoms: C_3  and  N_15 
REMARK    2  A    between atoms: N_6  and  C_9 
REMARK    3  A    between atoms: N_18  and  C_21 
REMARK    4  A    between atoms: C_21  and  C_22 
REMARK       I    between atoms: C_22  and  N_24 
REMARK       I    between atoms: N_24  and  C_25 
REMARK       I    between atoms: C_25  and  N_27 
REMARK    5  A    between atoms: N_27  and  C_28 
ROOT
ATOM      1  N   UNK d   1      52.411  83.309  23.865  0.00  0.00    -0.375 N 
ATOM      2  C   UNK d   1      51.434  83.842  24.717  0.00  0.00     0.153 C 
ATOM      3  C   UNK d   1      52.100  85.041  25.486  0.00  0.00     0.292 C 
ATOM      4  N   UNK d   1      53.327  85.478  25.036  0.00  0.00     0.100 N 
ATOM      5  C   UNK d   1      54.197  84.559  24.354  0.00  0.00     0.292 C 
ATOM      6  C   UNK d   1      53.724  83.091  24.608  0.00  0.00     0.153 C 
ENDROOT
BRANCH   1   7
ATOM      7  C   UNK d   1      52.518  83.111  22.497  0.00  0.00     0.077 A 
ATOM      8  C   UNK d   1      53.019  82.052  21.878  0.00  0.00     0.131 A 
ATOM      9 Cl   UNK d   1      53.147  80.519  22.832  0.00  0.00    -0.076 Cl
ATOM     10  C   UNK d   1      53.433  82.049  20.545  0.00  0.00     0.292 A 
ATOM     11  N   UNK d   1      53.315  83.145  19.847  0.00  0.00    -0.197 N 
ATOM     12  O   UNK d   1      53.924  80.961  20.088  0.00  0.00    -0.264 OA
ATOM     13  N   UNK d   1      52.789  84.249  20.439  0.00  0.00    -0.174 NA
ATOM     14  C   UNK d   1      52.389  84.324  21.652  0.00  0.00     0.170 A 
BRANCH  11  15
ATOM     15  C   UNK d   1      53.959  83.338  18.549  0.00  0.00     0.062 A 
ATOM     16  C   UNK d   1      55.114  82.714  18.201  0.00  0.00     0.032 A 
ATOM     17  C   UNK d   1      55.632  82.821  16.929  0.00  0.00     0.002 A 
ATOM     18  C   UNK d   1      54.979  83.576  15.956  0.00  0.00     0.000 A 
ATOM     19  C   UNK d   1      53.800  84.212  16.345  0.00  0.00     0.002 A 
ATOM     20  C   UNK d   1      53.314  84.095  17.589  0.00  0.00     0.032 A 
ENDBRANCH  11  15
ENDBRANCH   1   7
BRANCH   4  21
ATOM     21  C   UNK d   1      54.232  86.036  26.096  0.00  0.00     0.375 C 
BRANCH  21  22
ATOM     22  C   UNK d   1      55.251  86.873  25.481  0.00  0.00     0.254 C 
ATOM     23  O   UNK d   1      56.331  86.757  25.222  0.00  0.00    -0.271 OA
ATOM     24  N   UNK d   1      54.580  88.388  25.063  0.00  0.00    -0.278 N 
ATOM     25  C   UNK d   1      55.732  88.788  24.180  0.00  0.00     0.323 C 
ATOM     26  H   UNK d   1      53.992  88.178  25.520  0.00  0.00     0.173 HD
ATOM     27  O   UNK d   1      56.879  88.472  24.339  0.00  0.00    -0.247 OA
ATOM     28  N   UNK d   1      55.260  89.605  23.086  0.00  0.00    -0.338 N 
ATOM     29  H   UNK d   1      54.209  89.830  23.105  0.00  0.00     0.164 HD
BRANCH  28  30
ATOM     30  C   UNK d   1      56.020  90.152  22.026  0.00  0.00     0.086 C 
ATOM     31  C   UNK d   1      56.271  89.349  20.816  0.00  0.00     0.025 C 
ATOM     32  C   UNK d   1      55.152  89.662  19.817  0.00  0.00     0.002 C 
ATOM     33  C   UNK d   1      54.886  91.117  20.121  0.00  0.00     0.002 C 
ATOM     34  C   UNK d   1      55.197  91.360  21.532  0.00  0.00     0.025 C 
ENDBRANCH  28  30
ENDBRANCH  21  22
ENDBRANCH   4  21
TORSDOF 5
ENDMDL
