MODEL 1
REMARK VINA RESULT:    -8.376      0.000      0.000
REMARK INTER + INTRA:         -11.864
REMARK INTER:                 -11.315
REMARK INTRA:                  -0.549
REMARK UNBOUND:                -0.549
REMARK  6 active torsions:
REMARK  status: ('A' for Active; 'I' for Inactive)
REMARK    1  A    between atoms: C_3  and  N_15 
REMARK    2  A    between atoms: N_6  and  C_9 
REMARK    3  A    between atoms: N_18  and  C_21 
REMARK    4  A    between atoms: C_21  and  C_22 
REMARK       I    between atoms: C_22  and  N_24 
REMARK    5  A    between atoms: N_24  and  C_25 
REMARK    6  A    between atoms: C_25  and  C_26 
ROOT
ATOM      1  N   UNK d   1      55.739  87.746  23.892  0.00  0.00    -0.375 N 
ATOM      2  C   UNK d   1      56.870  86.853  23.975  0.00  0.00     0.153 C 
ATOM      3  C   UNK d   1      56.478  85.598  24.690  0.00  0.00     0.292 C 
ATOM      4  N   UNK d   1      55.041  85.601  24.807  0.00  0.00     0.100 NA
ATOM      5  C   UNK d   1      54.658  86.604  25.733  0.00  0.00     0.292 C 
ATOM      6  C   UNK d   1      54.926  87.955  25.063  0.00  0.00     0.153 C 
ENDROOT
BRANCH   1   7
ATOM      7  C   UNK d   1      55.393  88.433  22.699  0.00  0.00     0.077 A 
ATOM      8  C   UNK d   1      54.736  87.800  21.648  0.00  0.00     0.131 A 
ATOM      9 Cl   UNK d   1      54.358  86.103  21.851  0.00  0.00    -0.076 Cl
ATOM     10  C   UNK d   1      54.405  88.495  20.501  0.00  0.00     0.292 A 
ATOM     11  N   UNK d   1      54.701  89.800  20.354  0.00  0.00    -0.197 N 
ATOM     12  O   UNK d   1      53.810  87.915  19.550  0.00  0.00    -0.264 OA
ATOM     13  N   UNK d   1      55.324  90.383  21.363  0.00  0.00    -0.174 NA
ATOM     14  C   UNK d   1      55.676  89.768  22.506  0.00  0.00     0.170 A 
BRANCH  11  15
ATOM     15  C   UNK d   1      54.354  90.521  19.165  0.00  0.00     0.062 A 
ATOM     16  C   UNK d   1      55.237  90.582  18.112  0.00  0.00     0.032 A 
ATOM     17  C   UNK d   1      54.909  91.283  16.946  0.00  0.00     0.002 A 
ATOM     18  C   UNK d   1      53.700  91.929  16.816  0.00  0.00     0.000 A 
ATOM     19  C   UNK d   1      52.809  91.872  17.865  0.00  0.00     0.002 A 
ATOM     20  C   UNK d   1      53.148  91.173  19.019  0.00  0.00     0.032 A 
ENDBRANCH  11  15
ENDBRANCH   1   7
BRANCH   4  21
ATOM     21  C   UNK d   1      54.415  84.341  24.877  0.00  0.00     0.374 C 
BRANCH  21  22
ATOM     22  C   UNK d   1      53.047  84.362  25.406  0.00  0.00     0.246 C 
ATOM     23  O   UNK d   1      52.147  84.803  24.614  0.00  0.00    -0.272 OA
ATOM     24  N   UNK d   1      52.641  83.941  26.695  0.00  0.00    -0.357 N 
ATOM     25  H   UNK d   1      53.376  83.573  27.333  0.00  0.00     0.162 HD
BRANCH  24  26
ATOM     26  C   UNK d   1      51.282  83.980  27.171  0.00  0.00     0.154 C 
BRANCH  26  27
ATOM     27  C   UNK d   1      51.145  85.049  28.210  0.00  0.00     0.139 C 
ATOM     28  O   UNK d   1      50.417  86.091  27.699  0.00  0.00    -0.384 OA
ATOM     29  C   UNK d   1      49.313  86.340  28.468  0.00  0.00     0.168 C 
ATOM     30  C   UNK d   1      49.736  85.878  29.846  0.00  0.00     0.029 C 
ATOM     31  C   UNK d   1      50.399  84.551  29.439  0.00  0.00     0.035 C 
ENDBRANCH  26  27
ENDBRANCH  24  26
ENDBRANCH  21  22
ENDBRANCH   4  21
TORSDOF 6
ENDMDL
