/Users/jonathanwahrer/Desktop/Msc/3_Semester/Drug_Design_Praktikum/waehrer_HTS_screening/HTS_experiment/out/docking_results/vina_output/3npc/2284_docked.pdbqt
 OpenBabel03192221083D

 33 37  0  0  0  0  0  0  0  0999 V2000
   54.7550   85.0660   25.1020 C   0  0  0  0  0  0  0  0  0  0  0  0
   55.1560   86.3320   25.4800 C   0  0  0  0  0  3  0  0  0  0  0  0
   55.2490   87.4060   24.6320 C   0  0  0  0  0  0  0  0  0  0  0  0
   55.6310   88.5290   25.0980 O   0  0  0  0  0  0  0  0  0  0  0  0
   54.9300   87.2510   23.3120 N   0  0  0  0  0  0  0  0  0  0  0  0
   54.9730   88.1630   22.4240 N   0  0  0  0  0  0  0  0  0  0  0  0
   54.6550   87.9470   21.1830 C   0  0  0  0  0  0  0  0  0  0  0  0
   54.2500   86.2700   21.2760 S   0  0  0  0  0  0  0  0  0  0  0  0
   54.5430   86.0260   22.9500 C   0  0  0  0  0  0  0  0  0  0  0  0
   54.4530   84.9710   23.7890 N   0  0  0  0  0  0  0  0  0  0  0  0
   54.6720   83.9380   26.0600 C   0  0  0  0  0  2  0  0  0  0  0  0
   53.5210   83.1530   25.7480 N   0  0  0  0  0  0  0  0  0  0  0  0
   52.4480   83.2130   26.6580 C   0  0  0  0  0  2  0  0  0  0  0  0
   51.1860   82.6910   25.9630 C   0  0  0  0  0  2  0  0  0  0  0  0
   51.4270   81.4520   25.3630 N   0  0  0  0  0  0  0  0  0  0  0  0
   52.6880   80.9060   25.6450 C   0  0  0  0  0  2  0  0  0  0  0  0
   53.7790   81.8660   25.2250 C   0  0  0  0  0  2  0  0  0  0  0  0
   50.5570   80.9460   24.0440 S   0  0  0  0  0  0  0  0  0  0  0  0
   49.0880   81.2910   24.2690 O   0  0  0  0  0  0  0  0  0  0  0  0
   50.6960   79.4670   23.7910 O   0  0  0  0  0  0  0  0  0  0  0  0
   51.0230   81.8200   22.6030 C   0  0  0  0  0  0  0  0  0  0  0  0
   52.1890   81.6880   21.9100 N   0  0  0  0  0  0  0  0  0  0  0  0
   52.2020   82.5180   20.8660 C   0  0  0  0  0  3  0  0  0  0  0  0
   51.0580   83.2160   20.8350 N   0  0  0  0  0  0  0  0  0  0  0  0
   50.3360   82.7840   21.9050 C   0  0  0  0  0  3  0  0  0  0  0  0
   50.7860   83.9320   20.1410 H   0  0  0  0  0  0  0  0  0  0  0  0
   54.6290   88.8270   20.0080 C   0  0  0  0  0  0  0  0  0  0  0  0
   53.6870   88.5950   19.0290 C   0  0  0  0  0  3  0  0  0  0  0  0
   53.6110   89.3910   17.8940 C   0  0  0  0  0  3  0  0  0  0  0  0
   54.4930   90.4410   17.7340 C   0  0  0  0  0  0  0  0  0  0  0  0
   55.4470   90.6930   18.7050 C   0  0  0  0  0  3  0  0  0  0  0  0
   54.4090   91.4440   16.3220 Cl  0  0  0  0  0  0  0  0  0  0  0  0
   55.4840   89.8750   19.8110 C   0  0  0  0  0  3  0  0  0  0  0  0
  1  2  2  0  0  0  0
  1 11  1  0  0  0  0
  3  4  2  0  0  0  0
  3  2  1  0  0  0  0
  5  3  1  0  0  0  0
  6  5  1  0  0  0  0
  7  8  1  0  0  0  0
  7  6  2  0  0  0  0
  8  9  1  0  0  0  0
  9  5  1  0  0  0  0
  9 10  2  0  0  0  0
 10  1  1  0  0  0  0
 12 11  1  0  0  0  0
 12 13  1  0  0  0  0
 14 13  1  0  0  0  0
 15 16  1  0  0  0  0
 15 14  1  0  0  0  0
 17 16  1  0  0  0  0
 17 12  1  0  0  0  0
 18 19  2  0  0  0  0
 18 15  1  0  0  0  0
 20 18  2  0  0  0  0
 21 18  1  0  0  0  0
 22 21  1  0  0  0  0
 23 22  2  0  0  0  0
 24 23  1  0  0  0  0
 24 25  1  0  0  0  0
 25 21  2  0  0  0  0
 26 24  1  0  0  0  0
 27  7  1  0  0  0  0
 28 27  2  0  0  0  0
 29 28  1  0  0  0  0
 30 29  2  0  0  0  0
 30 31  1  0  0  0  0
 31 33  2  0  0  0  0
 32 30  1  0  0  0  0
 33 27  1  0  0  0  0
M  END
>  <Pose>
1

>  <Score>
-9.014

$$$$
