MODEL 1
REMARK VINA RESULT:    -9.270      0.000      0.000
REMARK INTER + INTRA:         -13.130
REMARK INTER:                 -12.521
REMARK INTRA:                  -0.609
REMARK UNBOUND:                -0.609
REMARK  6 active torsions:
REMARK  status: ('A' for Active; 'I' for Inactive)
REMARK    1  A    between atoms: S_1  and  N_4 
REMARK    2  A    between atoms: S_1  and  C_22 
REMARK    3  A    between atoms: N_7  and  C_10 
REMARK    4  A    between atoms: C_10  and  C_11 
REMARK    5  A    between atoms: N_13  and  C_14 
REMARK    6  A    between atoms: C_14  and  C_15 
ROOT
ATOM      1  N   UNK d   1      55.568  85.847  25.815  0.00  0.00    -0.203 NA
ATOM      2  C   UNK d   1      56.706  85.743  24.951  0.00  0.00     0.127 C 
ATOM      3  C   UNK d   1      57.228  87.096  24.435  0.00  0.00     0.132 C 
ATOM      4  N   UNK d   1      56.123  87.743  23.801  0.00  0.00    -0.403 N 
ATOM      5  C   UNK d   1      55.169  88.085  24.820  0.00  0.00     0.132 C 
ATOM      6  C   UNK d   1      54.549  86.770  25.202  0.00  0.00     0.127 C 
ENDROOT
BRANCH   1   7
ATOM      7  S   UNK d   1      54.748  84.271  25.712  0.00  0.00     0.243 S 
ATOM      8  O   UNK d   1      54.359  84.069  24.260  0.00  0.00    -0.206 OA
ATOM      9  O   UNK d   1      55.707  83.212  26.127  0.00  0.00    -0.206 OA
BRANCH   7  10
ATOM     10  C   UNK d   1      53.328  84.218  26.682  0.00  0.00     0.077 A 
ATOM     11  C   UNK d   1      53.530  84.464  28.046  0.00  0.00     0.064 A 
ATOM     12  C   UNK d   1      52.489  84.558  28.973  0.00  0.00     0.103 A 
ATOM     13  C   UNK d   1      51.185  84.398  28.513  0.00  0.00     0.102 A 
ATOM     14  O   UNK d   1      52.728  84.798  30.316  0.00  0.00    -0.346 OA
ATOM     15  C   UNK d   1      51.003  84.148  27.165  0.00  0.00     0.041 A 
ATOM     16  O   UNK d   1      50.205  84.508  29.482  0.00  0.00    -0.346 OA
ATOM     17  C   UNK d   1      52.046  84.061  26.252  0.00  0.00     0.028 A 
ATOM     18  C   UNK d   1      50.393  85.521  30.507  0.00  0.00     0.202 C 
ATOM     19  C   UNK d   1      51.794  85.582  31.017  0.00  0.00     0.202 C 
ENDBRANCH   7  10
ENDBRANCH   1   7
BRANCH   4  20
ATOM     20  C   UNK d   1      56.343  88.523  22.680  0.00  0.00     0.204 C 
BRANCH  20  21
ATOM     21  C   UNK d   1      55.373  88.431  21.587  0.00  0.00     0.169 C 
ATOM     22  O   UNK d   1      54.946  87.208  21.394  0.00  0.00    -0.176 OA
ATOM     23  N   UNK d   1      54.836  89.371  20.754  0.00  0.00    -0.366 N 
ATOM     24  H   UNK d   1      55.110  90.409  20.756  0.00  0.00     0.161 HD
BRANCH  23  25
ATOM     25  C   UNK d   1      53.777  89.118  19.775  0.00  0.00     0.162 C 
BRANCH  25  26
ATOM     26  C   UNK d   1      53.987  89.991  18.603  0.00  0.00    -0.019 A 
ATOM     27  C   UNK d   1      53.777  91.386  18.688  0.00  0.00     0.042 A 
ATOM     28  C   UNK d   1      53.823  92.197  17.619  0.00  0.00     0.024 A 
ATOM     29 Cl   UNK d   1      53.460  92.084  20.296  0.00  0.00    -0.084 Cl
ATOM     30  C   UNK d   1      54.096  91.666  16.320  0.00  0.00     0.002 A 
ATOM     31  C   UNK d   1      54.287  90.347  16.220  0.00  0.00     0.001 A 
ATOM     32  C   UNK d   1      54.242  89.478  17.318  0.00  0.00     0.010 A 
ENDBRANCH  25  26
ENDBRANCH  23  25
ENDBRANCH  20  21
ENDBRANCH   4  20
TORSDOF 6
ENDMDL
