/Users/jonathanwahrer/Desktop/Msc/3_Semester/Drug_Design_Praktikum/waehrer_HTS_screening/HTS_experiment/out/docking_results/vina_output/3npc/2285_docked.pdbqt
 OpenBabel03192221083D

 32 35  0  0  0  0  0  0  0  0999 V2000
   55.5680   85.8470   25.8150 N   0  0  0  0  0  0  0  0  0  0  0  0
   56.7060   85.7430   24.9510 C   0  0  0  0  0  2  0  0  0  0  0  0
   57.2280   87.0960   24.4350 C   0  0  0  0  0  2  0  0  0  0  0  0
   56.1230   87.7430   23.8010 N   0  0  0  0  0  0  0  0  0  0  0  0
   55.1690   88.0850   24.8200 C   0  0  0  0  0  2  0  0  0  0  0  0
   54.5490   86.7700   25.2020 C   0  0  0  0  0  2  0  0  0  0  0  0
   54.7480   84.2710   25.7120 S   0  0  0  0  0  0  0  0  0  0  0  0
   54.3590   84.0690   24.2600 O   0  0  0  0  0  0  0  0  0  0  0  0
   55.7070   83.2120   26.1270 O   0  0  0  0  0  0  0  0  0  0  0  0
   53.3280   84.2180   26.6820 C   0  0  0  0  0  0  0  0  0  0  0  0
   53.5300   84.4640   28.0460 C   0  0  0  0  0  3  0  0  0  0  0  0
   52.4890   84.5580   28.9730 C   0  0  0  0  0  0  0  0  0  0  0  0
   51.1850   84.3980   28.5130 C   0  0  0  0  0  0  0  0  0  0  0  0
   52.7280   84.7980   30.3160 O   0  0  0  0  0  0  0  0  0  0  0  0
   51.0030   84.1480   27.1650 C   0  0  0  0  0  3  0  0  0  0  0  0
   50.2050   84.5080   29.4820 O   0  0  0  0  0  0  0  0  0  0  0  0
   52.0460   84.0610   26.2520 C   0  0  0  0  0  3  0  0  0  0  0  0
   50.3930   85.5210   30.5070 C   0  0  0  0  0  2  0  0  0  0  0  0
   51.7940   85.5820   31.0170 C   0  0  0  0  0  2  0  0  0  0  0  0
   56.3430   88.5230   22.6800 C   0  0  0  0  0  2  0  0  0  0  0  0
   55.3730   88.4310   21.5870 C   0  0  0  0  0  0  0  0  0  0  0  0
   54.9460   87.2080   21.3940 O   0  0  0  0  0  0  0  0  0  0  0  0
   54.8360   89.3710   20.7540 N   0  0  0  0  0  0  0  0  0  0  0  0
   55.1100   90.4090   20.7560 H   0  0  0  0  0  0  0  0  0  0  0  0
   53.7770   89.1180   19.7750 C   0  0  0  0  0  2  0  0  0  0  0  0
   53.9870   89.9910   18.6030 C   0  0  0  0  0  0  0  0  0  0  0  0
   53.7770   91.3860   18.6880 C   0  0  0  0  0  0  0  0  0  0  0  0
   53.8230   92.1970   17.6190 C   0  0  0  0  0  3  0  0  0  0  0  0
   53.4600   92.0840   20.2960 Cl  0  0  0  0  0  0  0  0  0  0  0  0
   54.0960   91.6660   16.3200 C   0  0  0  0  0  3  0  0  0  0  0  0
   54.2870   90.3470   16.2200 C   0  0  0  0  0  3  0  0  0  0  0  0
   54.2420   89.4780   17.3180 C   0  0  0  0  0  3  0  0  0  0  0  0
  2  1  1  0  0  0  0
  3  2  1  0  0  0  0
  4  3  1  0  0  0  0
  4  5  1  0  0  0  0
  5  6  1  0  0  0  0
  6  1  1  0  0  0  0
  7  1  1  0  0  0  0
  7  9  2  0  0  0  0
  7 10  1  0  0  0  0
  8  7  2  0  0  0  0
 10 11  1  0  0  0  0
 11 12  2  0  0  0  0
 12 14  1  0  0  0  0
 13 12  1  0  0  0  0
 13 16  1  0  0  0  0
 14 19  1  0  0  0  0
 15 13  2  0  0  0  0
 16 18  1  0  0  0  0
 17 10  2  0  0  0  0
 17 15  1  0  0  0  0
 18 19  1  0  0  0  0
 20  4  1  0  0  0  0
 21 20  1  0  0  0  0
 22 21  2  0  0  0  0
 23 24  1  0  0  0  0
 23 21  1  0  0  0  0
 25 23  1  0  0  0  0
 26 27  1  0  0  0  0
 26 25  1  0  0  0  0
 27 29  1  0  0  0  0
 28 27  2  0  0  0  0
 30 28  1  0  0  0  0
 31 30  2  0  0  0  0
 31 32  1  0  0  0  0
 32 26  2  0  0  0  0
M  END
>  <Pose>
1

>  <Score>
-9.270

$$$$
