MODEL 1
REMARK VINA RESULT:    -8.024      0.000      0.000
REMARK INTER + INTRA:         -10.475
REMARK INTER:                  -9.900
REMARK INTRA:                  -0.575
REMARK UNBOUND:                -0.575
REMARK  4 active torsions:
REMARK  status: ('A' for Active; 'I' for Inactive)
REMARK    1  A    between atoms: S_1  and  N_4 
REMARK    2  A    between atoms: S_1  and  C_26 
REMARK       I    between atoms: N_7  and  C_10 
REMARK    3  A    between atoms: C_10  and  C_12 
REMARK    4  A    between atoms: C_12  and  N_13 
ROOT
ATOM      1  N   UNK d   1      53.579  83.743  25.126  0.00  0.00    -0.303 N 
ATOM      2  C   UNK d   1      53.389  85.031  25.686  0.00  0.00     0.155 C 
ATOM      3  C   UNK d   1      54.240  86.107  25.064  0.00  0.00     0.146 C 
ATOM      4  N   UNK d   1      54.356  85.950  23.629  0.00  0.00    -0.348 N 
ATOM      5  C   UNK d   1      53.457  84.991  23.016  0.00  0.00     0.146 C 
ATOM      6  C   UNK d   1      53.511  83.653  23.711  0.00  0.00     0.155 C 
ATOM      7  C   UNK d   1      55.299  86.705  22.921  0.00  0.00     0.238 C 
ATOM      8  O   UNK d   1      56.031  87.510  23.546  0.00  0.00    -0.272 OA
ENDROOT
BRANCH   7   9
ATOM      9  C   UNK d   1      55.468  86.591  21.449  0.00  0.00     0.239 C 
BRANCH   9  10
ATOM     10  N   UNK d   1      54.720  87.591  20.739  0.00  0.00    -0.259 N 
ATOM     11  C   UNK d   1      53.481  87.356  20.087  0.00  0.00     0.328 C 
ATOM     12  O   UNK d   1      52.882  86.228  20.050  0.00  0.00    -0.247 OA
ATOM     13  N   UNK d   1      52.981  88.535  19.470  0.00  0.00    -0.320 N 
ATOM     14  C   UNK d   1      54.042  89.523  19.536  0.00  0.00     0.118 C 
ATOM     15  C   UNK d   1      51.648  88.695  18.891  0.00  0.00     0.155 C 
ATOM     16  C   UNK d   1      53.557  90.845  20.057  0.00  0.00     0.041 C 
ATOM     17  C   UNK d   1      54.647  89.615  18.155  0.00  0.00     0.041 C 
ATOM     18  C   UNK d   1      55.001  88.967  20.523  0.00  0.00     0.257 C 
ATOM     19  C   UNK d   1      52.959  91.729  19.003  0.00  0.00     0.003 C 
ATOM     20  C   UNK d   1      53.820  91.885  17.785  0.00  0.00     0.000 C 
ATOM     21  C   UNK d   1      55.070  91.034  17.847  0.00  0.00     0.003 C 
ATOM     22  O   UNK d   1      55.930  89.583  21.098  0.00  0.00    -0.270 OA
ENDBRANCH   9  10
ENDBRANCH   7   9
BRANCH   1  23
ATOM     23  S   UNK d   1      54.844  82.831  25.829  0.00  0.00     0.267 S 
ATOM     24  O   UNK d   1      56.086  83.666  25.879  0.00  0.00    -0.200 OA
ATOM     25  O   UNK d   1      55.143  81.600  25.025  0.00  0.00    -0.200 OA
BRANCH  23  26
ATOM     26  C   UNK d   1      54.421  82.278  27.458  0.00  0.00     0.121 A 
ATOM     27  S   UNK d   1      54.158  83.203  28.858  0.00  0.00    -0.064 SA
ATOM     28  C   UNK d   1      53.811  81.952  29.956  0.00  0.00     0.075 A 
ATOM     29  C   UNK d   1      53.911  80.822  29.189  0.00  0.00     0.033 A 
ATOM     30 Cl   UNK d   1      53.412  82.048  31.685  0.00  0.00    -0.076 Cl
ATOM     31  C   UNK d   1      54.229  80.993  27.886  0.00  0.00     0.035 A 
ENDBRANCH  23  26
ENDBRANCH   1  23
TORSDOF 4
ENDMDL
