/Users/jonathanwahrer/Desktop/Msc/3_Semester/Drug_Design_Praktikum/waehrer_HTS_screening/HTS_experiment/out/docking_results/vina_output/3npc/2301_docked.pdbqt
 OpenBabel03192221093D

 24 27  0  0  1  0  0  0  0  0999 V2000
   51.2420  100.6650   27.1720 C   0  0  2  0  0  0  0  0  0  0  0  0
   50.8570   99.4260   26.4320 C   0  0  0  0  0  2  0  0  0  0  0  0
   51.0850   98.1820   27.3080 C   0  0  0  0  0  2  0  0  0  0  0  0
   52.5450   98.1720   27.4800 N   0  0  0  0  0  0  0  0  0  0  0  0
   53.0600   99.2660   28.2410 C   0  0  0  0  0  2  0  0  0  0  0  0
   52.6070  100.6090   27.7480 C   0  0  0  0  0  2  0  0  0  0  0  0
   50.1720  101.0270   28.1160 C   0  0  0  0  0  0  0  0  0  0  0  0
   50.3140  101.1720   29.4660 C   0  0  0  0  0  3  0  0  0  0  0  0
   49.2290  101.5130   30.2250 C   0  0  0  0  0  3  0  0  0  0  0  0
   47.9600  101.7290   29.7050 C   0  0  0  0  0  0  0  0  0  0  0  0
   46.6010  102.1750   30.7170 Cl  0  0  0  0  0  0  0  0  0  0  0  0
   47.8250  101.5800   28.3480 C   0  0  0  0  0  3  0  0  0  0  0  0
   48.9090  101.2350   27.5640 C   0  0  0  0  0  3  0  0  0  0  0  0
   51.2340  101.7040   26.2070 O   0  0  0  0  0  0  0  0  0  0  0  0
   50.6960  102.4580   26.6010 H   0  0  0  0  0  0  0  0  0  0  0  0
   53.2930   97.1200   26.8990 C   0  0  0  0  0  0  0  0  0  0  0  0
   54.5350   97.3610   26.4450 N   0  0  0  0  0  0  0  0  0  0  0  0
   55.3320   96.4660   25.8960 N   0  0  0  0  0  0  0  0  0  0  0  0
   56.5690   96.4830   25.3940 N   0  0  0  0  0  0  0  0  0  0  0  0
   54.9080   95.2100   25.7610 C   0  0  0  0  0  0  0  0  0  0  0  0
   56.9090   95.2900   24.9600 N   0  0  0  0  0  0  0  0  0  0  0  0
   55.9000   94.4920   25.1790 N   0  0  0  0  0  0  0  0  0  0  0  0
   53.6380   94.8850   26.2060 C   0  0  0  0  0  3  0  0  0  0  0  0
   52.8180   95.8350   26.7780 C   0  0  0  0  0  3  0  0  0  0  0  0
  1 14  1  6  0  0  0
  1  6  1  0  0  0  0
  1  7  1  0  0  0  0
  2  1  1  0  0  0  0
  2  3  1  0  0  0  0
  3  4  1  0  0  0  0
  4  5  1  0  0  0  0
  6  5  1  0  0  0  0
  7  8  1  0  0  0  0
  8  9  2  0  0  0  0
 10  9  1  0  0  0  0
 10 11  1  0  0  0  0
 12 10  2  0  0  0  0
 13  7  2  0  0  0  0
 13 12  1  0  0  0  0
 14 15  1  0  0  0  0
 16  4  1  0  0  0  0
 17 16  2  0  0  0  0
 18 17  1  0  0  0  0
 19 18  1  0  0  0  0
 20 18  1  0  0  0  0
 20 23  1  0  0  0  0
 21 22  1  0  0  0  0
 21 19  2  0  0  0  0
 22 20  2  0  0  0  0
 23 24  2  0  0  0  0
 24 16  1  0  0  0  0
M  END
>  <Pose>
1

>  <Score>
-8.751

$$$$
