/Users/jonathanwahrer/Desktop/Msc/3_Semester/Drug_Design_Praktikum/waehrer_HTS_screening/HTS_experiment/out/docking_results/vina_output/3npc/2304_docked.pdbqt
 OpenBabel03192221093D

 28 31  0  0  1  0  0  0  0  0999 V2000
   48.8100  101.3780   29.7020 N   0  0  0  0  0  0  0  0  0  0  0  0
   47.4190  101.5950   29.8250 C   0  0  0  0  0  2  0  0  0  0  0  0
   46.9970  102.3270   31.0720 C   0  0  0  0  0  2  0  0  0  0  0  0
   47.8540  103.4340   31.3940 N   0  0  0  0  0  0  0  0  0  0  0  0
   49.1020  103.5240   30.6780 C   0  0  0  0  0  2  0  0  0  0  0  0
   49.6560  102.1050   30.5820 C   0  0  0  0  0  2  0  0  0  0  0  0
   47.4660  104.3650   32.3710 C   0  0  0  0  0  0  0  0  0  0  0  0
   46.3550  104.1750   32.9410 O   0  0  0  0  0  0  0  0  0  0  0  0
   48.2770  105.5490   32.7690 C   0  0  2  0  0  3  0  0  0  0  0  0
   49.2160  105.2280   33.7810 N   0  0  0  0  0  0  0  0  0  0  0  0
   48.7740  105.3730   35.1300 C   0  0  2  0  0  0  0  0  0  0  0  0
   50.5810  104.7630   33.8870 C   0  0  0  0  0  0  0  0  0  0  0  0
   47.5940  106.7330   35.0190 S   0  0  0  0  0  0  0  0  0  0  0  0
   50.0080  105.9070   35.8300 C   0  0  0  0  0  2  0  0  0  0  0  0
   48.2370  104.1590   35.7780 C   0  0  0  0  0  1  0  0  0  0  0  0
   47.4260  106.7090   33.1910 C   0  0  0  0  0  2  0  0  0  0  0  0
   51.0470  104.9320   35.2610 C   0  0  0  0  0  2  0  0  0  0  0  0
   51.2960  104.2780   32.9590 O   0  0  0  0  0  0  0  0  0  0  0  0
   49.3900  101.1790   28.1200 S   0  0  0  0  0  0  0  0  0  0  0  0
   48.2600  101.0590   27.1460 O   0  0  0  0  0  0  0  0  0  0  0  0
   50.1620  102.4180   27.7370 O   0  0  0  0  0  0  0  0  0  0  0  0
   50.5050   99.8250   27.9600 C   0  0  0  0  0  0  0  0  0  0  0  0
   51.8540  100.0460   27.7940 C   0  0  0  0  0  3  0  0  0  0  0  0
   52.7510   99.0110   27.6650 C   0  0  0  0  0  3  0  0  0  0  0  0
   52.3350   97.6920   27.6970 C   0  0  0  0  0  0  0  0  0  0  0  0
   50.9740   97.5030   27.8650 C   0  0  0  0  0  3  0  0  0  0  0  0
   53.4490   96.3510   27.5350 Cl  0  0  0  0  0  0  0  0  0  0  0  0
   50.0670   98.5250   27.9960 C   0  0  0  0  0  3  0  0  0  0  0  0
  1  2  1  0  0  0  0
  1  6  1  0  0  0  0
  2  3  1  0  0  0  0
  3  4  1  0  0  0  0
  4  7  1  0  0  0  0
  5  4  1  0  0  0  0
  6  5  1  0  0  0  0
  7  8  2  0  0  0  0
  9  7  1  1  0  0  0
  9 16  1  0  0  0  0
  9 10  1  0  0  0  0
 10 12  1  0  0  0  0
 10 11  1  0  0  0  0
 11 15  1  1  0  0  0
 11 14  1  0  0  0  0
 12 17  1  0  0  0  0
 13 11  1  0  0  0  0
 16 13  1  0  0  0  0
 17 14  1  0  0  0  0
 18 12  2  0  0  0  0
 19  1  1  0  0  0  0
 20 19  2  0  0  0  0
 21 19  2  0  0  0  0
 22 28  1  0  0  0  0
 22 19  1  0  0  0  0
 23 22  2  0  0  0  0
 24 25  2  0  0  0  0
 24 23  1  0  0  0  0
 25 26  1  0  0  0  0
 26 28  2  0  0  0  0
 27 25  1  0  0  0  0
M  END
>  <Pose>
1

>  <Score>
-7.946

$$$$
