MODEL 1
REMARK VINA RESULT:   -10.130      0.000      0.000
REMARK INTER + INTRA:         -13.021
REMARK INTER:                 -12.499
REMARK INTRA:                  -0.522
REMARK UNBOUND:                -0.522
REMARK  4 active torsions:
REMARK  status: ('A' for Active; 'I' for Inactive)
REMARK    1  A    between atoms: N_10  and  N_11 
REMARK       I    between atoms: N_11  and  C_12 
REMARK    2  A    between atoms: C_12  and  C_14 
REMARK    3  A    between atoms: C_14  and  N_15 
REMARK       I    between atoms: N_15  and  C_16 
REMARK    4  A    between atoms: C_16  and  C_18 
ROOT
ATOM      1  N   UNK d   1      50.181 100.535  28.627  0.00  0.00    -0.245 N 
ATOM      2  C   UNK d   1      50.420  99.173  28.915  0.00  0.00     0.255 C 
ATOM      3  O   UNK d   1      50.706  98.812  30.076  0.00  0.00    -0.270 OA
ATOM      4  H   UNK d   1      49.938 100.906  27.684  0.00  0.00     0.192 HD
ENDROOT
BRANCH   2   5
ATOM      5  C   UNK d   1      50.347  98.107  27.866  0.00  0.00     0.227 C 
BRANCH   5   6
ATOM      6  N   UNK d   1      51.461  97.202  27.939  0.00  0.00    -0.350 N 
ATOM      7  C   UNK d   1      52.751  97.524  27.436  0.00  0.00     0.249 C 
ATOM      8  O   UNK d   1      52.919  98.644  26.908  0.00  0.00    -0.271 OA
ATOM      9  H   UNK d   1      51.364  96.255  28.375  0.00  0.00     0.163 HD
BRANCH   7  10
ATOM     10  C   UNK d   1      53.917  96.593  27.503  0.00  0.00     0.244 C 
ATOM     11  O   UNK d   1      55.131  97.281  27.571  0.00  0.00    -0.331 OA
ATOM     12  C   UNK d   1      56.075  97.333  26.548  0.00  0.00     0.103 A 
ATOM     13  C   UNK d   1      55.990  96.374  25.574  0.00  0.00     0.102 A 
ATOM     14  C   UNK d   1      57.054  98.280  26.487  0.00  0.00     0.040 A 
ATOM     15  C   UNK d   1      56.923  96.401  24.538  0.00  0.00     0.039 A 
ATOM     16  O   UNK d   1      55.006  95.426  25.640  0.00  0.00    -0.345 OA
ATOM     17  C   UNK d   1      57.917  97.350  24.463  0.00  0.00     0.003 A 
ATOM     18  C   UNK d   1      57.971  98.302  25.463  0.00  0.00     0.003 A 
ATOM     19  C   UNK d   1      53.870  95.541  26.451  0.00  0.00     0.218 C 
ENDBRANCH   7  10
ENDBRANCH   5   6
ENDBRANCH   2   5
BRANCH   1  20
ATOM     20  N   UNK d   1      50.276 101.455  29.675  0.00  0.00    -0.166 NA
ATOM     21  C   UNK d   1      49.255 102.033  30.186  0.00  0.00     0.157 A 
ATOM     22  C   UNK d   1      49.167 103.004  31.266  0.00  0.00     0.029 A 
ATOM     23  C   UNK d   1      47.874 101.809  29.743  0.00  0.00     0.277 A 
ATOM     24  C   UNK d   1      47.853 103.373  31.499  0.00  0.00     0.065 A 
ATOM     25  C   UNK d   1      50.122 103.598  32.062  0.00  0.00     0.035 A 
ATOM     26  C   UNK d   1      47.507 104.286  32.474  0.00  0.00     0.040 A 
ATOM     27  N   UNK d   1      47.074 102.636  30.563  0.00  0.00    -0.320 N 
ATOM     28 Br   UNK d   1      45.686 104.787  32.782  0.00  0.00    -0.049 Br
ATOM     29  C   UNK d   1      48.496 104.871  33.265  0.00  0.00     0.040 A 
ATOM     30  C   UNK d   1      49.816 104.513  33.045  0.00  0.00     0.013 A 
ATOM     31 Br   UNK d   1      51.190 105.301  34.115  0.00  0.00    -0.051 Br
ATOM     32  H   UNK d   1      46.044 102.701  30.494  0.00  0.00     0.169 HD
ATOM     33  O   UNK d   1      47.555 101.021  28.813  0.00  0.00    -0.266 OA
ENDBRANCH   1  20
TORSDOF 4
ENDMDL
