MODEL 1
REMARK VINA RESULT:    -9.310      0.000      0.000
REMARK INTER + INTRA:         -13.478
REMARK INTER:                 -13.120
REMARK INTRA:                  -0.357
REMARK UNBOUND:                -0.357
REMARK  7 active torsions:
REMARK  status: ('A' for Active; 'I' for Inactive)
REMARK    1  A    between atoms: S_1  and  N_4 
REMARK    2  A    between atoms: S_1  and  C_21 
REMARK    3  A    between atoms: C_6  and  C_10 
REMARK       I    between atoms: C_10  and  N_12 
REMARK    4  A    between atoms: N_12  and  C_13 
REMARK    5  A    between atoms: C_13  and  C_14 
REMARK    6  A    between atoms: C_14  and  N_15 
REMARK       I    between atoms: N_30  and  C_31 
REMARK    7  A    between atoms: C_31  and  C_33 
ROOT
ATOM      1  N   UNK d   1      53.396  84.832  22.737  0.00  0.00    -0.306 N 
ATOM      2  C   UNK d   1      53.778  85.361  23.986  0.00  0.00     0.149 C 
ATOM      3  C   UNK d   1      54.098  84.305  25.021  0.00  0.00     0.096 C 
ATOM      4  C   UNK d   1      53.387  83.022  24.819  0.00  0.00     0.017 C 
ATOM      5  C   UNK d   1      52.212  83.036  23.912  0.00  0.00     0.021 C 
ATOM      6  C   UNK d   1      52.330  83.932  22.705  0.00  0.00     0.135 C 
ENDROOT
BRANCH   1   7
ATOM      7  S   UNK d   1      54.253  85.227  21.369  0.00  0.00     0.262 S 
ATOM      8  O   UNK d   1      54.628  83.939  20.638  0.00  0.00    -0.200 OA
ATOM      9  O   UNK d   1      55.601  85.799  21.793  0.00  0.00    -0.200 OA
BRANCH   7  10
ATOM     10  C   UNK d   1      53.512  86.339  20.279  0.00  0.00     0.099 A 
ATOM     11  C   UNK d   1      53.708  87.703  20.433  0.00  0.00     0.057 A 
ATOM     12  C   UNK d   1      53.152  88.629  19.584  0.00  0.00     0.045 A 
ATOM     13  C   UNK d   1      52.356  88.181  18.523  0.00  0.00    -0.028 A 
ATOM     14  N   UNK d   1      53.170  90.045  19.472  0.00  0.00    -0.317 N 
ATOM     15  C   UNK d   1      52.171  86.845  18.381  0.00  0.00     0.030 A 
ATOM     16  C   UNK d   1      51.853  89.334  17.730  0.00  0.00     0.061 C 
ATOM     17  C   UNK d   1      52.733  85.912  19.237  0.00  0.00     0.035 A 
ATOM     18 Br   UNK d   1      52.394  84.036  18.937  0.00  0.00    -0.049 Br
ATOM     19  C   UNK d   1      51.978  90.468  18.728  0.00  0.00     0.137 C 
ATOM     20  C   UNK d   1      54.124  90.937  19.958  0.00  0.00     0.224 C 
ATOM     21  O   UNK d   1      54.002  92.188  19.720  0.00  0.00    -0.273 OA
BRANCH  20  22
ATOM     22  C   UNK d   1      55.291  90.539  20.743  0.00  0.00     0.099 C 
ATOM     23  C   UNK d   1      56.495  90.225  19.858  0.00  0.00     0.014 C 
ENDBRANCH  20  22
ENDBRANCH   7  10
ENDBRANCH   1   7
BRANCH   3  24
ATOM     24  C   UNK d   1      53.851  84.815  26.394  0.00  0.00     0.223 C 
ATOM     25  O   UNK d   1      54.528  85.797  26.788  0.00  0.00    -0.273 OA
ATOM     26  N   UNK d   1      52.858  84.192  27.239  0.00  0.00    -0.359 N 
ATOM     27  H   UNK d   1      52.370  83.394  26.825  0.00  0.00     0.162 HD
BRANCH  26  28
ATOM     28  C   UNK d   1      52.675  84.733  28.536  0.00  0.00     0.142 C 
BRANCH  28  29
ATOM     29  C   UNK d   1      51.984  83.918  29.563  0.00  0.00     0.136 C 
BRANCH  29  30
ATOM     30  N   UNK d   1      50.693  84.303  29.998  0.00  0.00    -0.407 N 
ATOM     31  C   UNK d   1      49.599  83.570  29.553  0.00  0.00     0.143 C 
ATOM     32  C   UNK d   1      48.630  84.285  28.657  0.00  0.00     0.187 C 
ATOM     33  O   UNK d   1      48.411  85.598  29.048  0.00  0.00    -0.388 OA
ATOM     34  C   UNK d   1      49.634  86.256  28.921  0.00  0.00     0.187 C 
ATOM     35  C   UNK d   1      50.527  85.737  30.023  0.00  0.00     0.143 C 
ENDBRANCH  29  30
ENDBRANCH  28  29
ENDBRANCH  26  28
ENDBRANCH   3  24
TORSDOF 7
ENDMDL
