MODEL 1
REMARK VINA RESULT:    -8.287      0.000      0.000
REMARK INTER + INTRA:         -10.528
REMARK INTER:                  -9.740
REMARK INTRA:                  -0.788
REMARK UNBOUND:                -0.788
REMARK  3 active torsions:
REMARK  status: ('A' for Active; 'I' for Inactive)
REMARK    1  A    between atoms: C_5  and  N_8 
REMARK    2  A    between atoms: C_10  and  C_14 
REMARK       I    between atoms: C_14  and  N_16 
REMARK    3  A    between atoms: N_19  and  C_22 
ROOT
ATOM      1  C   UNK d   1      56.021  89.099  22.750  0.00  0.00     0.226 C 
ATOM      2  O   UNK d   1      55.721  89.597  23.899  0.00  0.00    -0.273 OA
ATOM      3  N   UNK d   1      56.005  89.988  21.670  0.00  0.00    -0.349 N 
ATOM      4  C   UNK d   1      55.651  91.383  21.874  0.00  0.00     0.146 C 
ATOM      5  C   UNK d   1      54.470  91.771  20.991  0.00  0.00     0.161 C 
ATOM      6  N   UNK d   1      54.561  91.058  19.751  0.00  0.00    -0.213 N 
ATOM      7  C   UNK d   1      55.849  90.635  19.294  0.00  0.00     0.161 C 
ATOM      8  C   UNK d   1      56.331  89.591  20.321  0.00  0.00     0.146 C 
ENDROOT
BRANCH   1   9
ATOM      9  C   UNK d   1      56.341  87.667  22.713  0.00  0.00     0.105 C 
ATOM     10  C   UNK d   1      55.151  86.749  22.742  0.00  0.00     0.146 C 
ATOM     11  N   UNK d   1      55.205  86.046  24.018  0.00  0.00    -0.317 N 
ATOM     12  C   UNK d   1      56.601  86.041  24.391  0.00  0.00     0.225 C 
ATOM     13  C   UNK d   1      57.292  87.188  23.758  0.00  0.00     0.119 C 
ATOM     14  O   UNK d   1      57.065  85.136  25.158  0.00  0.00    -0.273 OA
BRANCH  11  15
ATOM     15  C   UNK d   1      54.129  85.476  24.756  0.00  0.00     0.037 A 
ATOM     16  C   UNK d   1      53.981  85.671  26.113  0.00  0.00     0.031 A 
ATOM     17  C   UNK d   1      52.940  85.116  26.833  0.00  0.00     0.026 A 
ATOM     18  C   UNK d   1      52.004  84.340  26.203  0.00  0.00     0.034 A 
ATOM     19 Cl   UNK d   1      50.669  83.625  27.106  0.00  0.00    -0.084 Cl
ATOM     20  C   UNK d   1      52.119  84.125  24.857  0.00  0.00     0.026 A 
ATOM     21  C   UNK d   1      53.180  84.692  24.136  0.00  0.00     0.031 A 
ENDBRANCH  11  15
ENDBRANCH   1   9
BRANCH   6  22
ATOM     22  C   UNK d   1      53.406  90.769  18.994  0.00  0.00     0.704 A 
ATOM     23  N   UNK d   1      52.767  89.569  18.909  0.00  0.00    -0.195 N 
ATOM     24  C   UNK d   1      51.708  89.696  18.099  0.00  0.00     0.128 A 
ATOM     25  C   UNK d   1      53.178  88.337  19.594  0.00  0.00     0.175 C 
ATOM     26  C   UNK d   1      51.662  90.996  17.652  0.00  0.00     0.154 A 
ATOM     27  N   UNK d   1      52.694  91.603  18.210  0.00  0.00    -0.075 NA
ENDBRANCH   6  22
TORSDOF 3
ENDMDL
