/Users/jonathanwahrer/Desktop/Msc/3_Semester/Drug_Design_Praktikum/waehrer_HTS_screening/HTS_experiment/out/docking_results/vina_output/3npc/2345_docked.pdbqt
 OpenBabel03192221113D

 27 30  0  0  1  0  0  0  0  0999 V2000
   56.0210   89.0990   22.7500 C   0  0  0  0  0  0  0  0  0  0  0  0
   55.7210   89.5970   23.8990 O   0  0  0  0  0  0  0  0  0  0  0  0
   56.0050   89.9880   21.6700 N   0  0  0  0  0  0  0  0  0  0  0  0
   55.6510   91.3830   21.8740 C   0  0  0  0  0  2  0  0  0  0  0  0
   54.4700   91.7710   20.9910 C   0  0  0  0  0  2  0  0  0  0  0  0
   54.5610   91.0580   19.7510 N   0  0  0  0  0  0  0  0  0  0  0  0
   55.8490   90.6350   19.2940 C   0  0  0  0  0  2  0  0  0  0  0  0
   56.3310   89.5910   20.3210 C   0  0  0  0  0  2  0  0  0  0  0  0
   56.3410   87.6670   22.7130 C   0  0  2  0  0  3  0  0  0  0  0  0
   55.1510   86.7490   22.7420 C   0  0  0  0  0  2  0  0  0  0  0  0
   55.2050   86.0460   24.0180 N   0  0  0  0  0  0  0  0  0  0  0  0
   56.6010   86.0410   24.3910 C   0  0  0  0  0  0  0  0  0  0  0  0
   57.2920   87.1880   23.7580 C   0  0  0  0  0  2  0  0  0  0  0  0
   57.0650   85.1360   25.1580 O   0  0  0  0  0  0  0  0  0  0  0  0
   54.1290   85.4760   24.7560 C   0  0  0  0  0  0  0  0  0  0  0  0
   53.9810   85.6710   26.1130 C   0  0  0  0  0  3  0  0  0  0  0  0
   52.9400   85.1160   26.8330 C   0  0  0  0  0  3  0  0  0  0  0  0
   52.0040   84.3400   26.2030 C   0  0  0  0  0  0  0  0  0  0  0  0
   50.6690   83.6250   27.1060 Cl  0  0  0  0  0  0  0  0  0  0  0  0
   52.1190   84.1250   24.8570 C   0  0  0  0  0  3  0  0  0  0  0  0
   53.1800   84.6920   24.1360 C   0  0  0  0  0  3  0  0  0  0  0  0
   53.4060   90.7690   18.9940 C   0  0  0  0  0  0  0  0  0  0  0  0
   52.7670   89.5690   18.9090 N   0  0  0  0  0  0  0  0  0  0  0  0
   51.7080   89.6960   18.0990 C   0  0  0  0  0  3  0  0  0  0  0  0
   53.1780   88.3370   19.5940 C   0  0  0  0  0  1  0  0  0  0  0  0
   51.6620   90.9960   17.6520 C   0  0  0  0  0  3  0  0  0  0  0  0
   52.6940   91.6030   18.2100 N   0  0  0  0  0  0  0  0  0  0  0  0
  1  2  2  0  0  0  0
  3  4  1  0  0  0  0
  3  1  1  0  0  0  0
  5  4  1  0  0  0  0
  6  5  1  0  0  0  0
  7  6  1  0  0  0  0
  7  8  1  0  0  0  0
  8  3  1  0  0  0  0
  9 10  1  0  0  0  0
  9  1  1  1  0  0  0
  9 13  1  0  0  0  0
 10 11  1  0  0  0  0
 11 12  1  0  0  0  0
 11 15  1  0  0  0  0
 12 14  2  0  0  0  0
 13 12  1  0  0  0  0
 15 16  1  0  0  0  0
 16 17  2  0  0  0  0
 18 17  1  0  0  0  0
 18 19  1  0  0  0  0
 20 18  2  0  0  0  0
 21 15  2  0  0  0  0
 21 20  1  0  0  0  0
 22  6  1  0  0  0  0
 23 22  1  0  0  0  0
 23 25  1  0  0  0  0
 24 23  1  0  0  0  0
 26 24  2  0  0  0  0
 26 27  1  0  0  0  0
 27 22  2  0  0  0  0
M  END
>  <Pose>
1

>  <Score>
-8.287

$$$$
