MODEL 1
REMARK VINA RESULT:    -7.914      0.000      0.000
REMARK INTER + INTRA:          -8.649
REMARK INTER:                  -8.377
REMARK INTRA:                  -0.273
REMARK UNBOUND:                -0.273
REMARK  1 active torsions:
REMARK  status: ('A' for Active; 'I' for Inactive)
REMARK    1  A    between atoms: C_5  and  N_8 
ROOT
ATOM      1  N   UNK d   1      53.653  84.845  23.738  0.00  0.00    -0.231 N 
ATOM      2  C   UNK d   1      53.453  83.650  22.969  0.00  0.00     0.357 A 
ATOM      3  O   UNK d   1      52.980  82.629  23.544  0.00  0.00    -0.244 OA
ATOM      4  N   UNK d   1      53.806  83.706  21.598  0.00  0.00    -0.169 NA
ATOM      5  C   UNK d   1      54.286  84.711  21.010  0.00  0.00     0.202 A 
ATOM      6  C   UNK d   1      54.584  86.040  21.647  0.00  0.00     0.140 A 
ATOM      7  C   UNK d   1      56.080  86.165  21.576  0.00  0.00     0.269 C 
ATOM      8  N   UNK d   1      56.626  87.467  21.603  0.00  0.00    -0.043 N 
ATOM      9  C   UNK d   1      55.932  88.451  20.860  0.00  0.00     0.140 A 
ATOM     10  C   UNK d   1      54.631  88.259  20.523  0.00  0.00    -0.021 A 
ATOM     11  C   UNK d   1      53.982  89.251  19.793  0.00  0.00     0.016 A 
ATOM     12  C   UNK d   1      54.662  90.394  19.427  0.00  0.00    -0.061 A 
ATOM     13  C   UNK d   1      55.992  90.588  19.771  0.00  0.00     0.009 A 
ATOM     14  C   UNK d   1      56.629  89.588  20.502  0.00  0.00     0.038 A 
ATOM     15  C   UNK d   1      53.995  91.474  18.633  0.00  0.00     0.048 C 
ATOM     16  C   UNK d   1      53.837  87.064  20.883  0.00  0.00     0.070 C 
ATOM     17  C   UNK d   1      56.943  87.984  22.925  0.00  0.00     0.276 C 
ATOM     18  C   UNK d   1      54.174  85.981  23.071  0.00  0.00     0.251 A 
ATOM     19  O   UNK d   1      54.272  87.021  23.818  0.00  0.00    -0.271 OA
ATOM     20  O   UNK d   1      54.593  84.651  19.638  0.00  0.00    -0.173 OA
ATOM     21  H   UNK d   1      57.581  87.405  21.123  0.00  0.00     0.286 HD
ENDROOT
BRANCH   1  22
ATOM     22  C   UNK d   1      53.344  84.787  25.116  0.00  0.00     0.047 A 
ATOM     23  C   UNK d   1      52.050  85.016  25.586  0.00  0.00     0.032 A 
ATOM     24  C   UNK d   1      51.725  84.959  26.915  0.00  0.00     0.026 A 
ATOM     25  C   UNK d   1      52.680  84.666  27.888  0.00  0.00     0.034 A 
ATOM     26 Cl   UNK d   1      52.239  84.588  29.583  0.00  0.00    -0.084 Cl
ATOM     27  C   UNK d   1      53.961  84.439  27.424  0.00  0.00     0.026 A 
ATOM     28  C   UNK d   1      54.285  84.497  26.090  0.00  0.00     0.032 A 
ENDBRANCH   1  22
TORSDOF 1
ENDMDL
