MODEL 1
REMARK VINA RESULT:    -8.308      0.000      0.000
REMARK INTER + INTRA:          -9.192
REMARK INTER:                  -9.279
REMARK INTRA:                   0.087
REMARK UNBOUND:                 0.087
REMARK  3 active torsions:
REMARK  status: ('A' for Active; 'I' for Inactive)
REMARK    1  A    between atoms: C_5  and  N_8 
REMARK    2  A    between atoms: C_13  and  O_21 
REMARK    3  A    between atoms: C_14  and  O_20 
ROOT
ATOM      1  N   UNK d   1      54.897  88.144  20.843  0.00  0.00    -0.252 N 
ATOM      2  C   UNK d   1      56.299  88.266  21.137  0.00  0.00     0.236 C 
ATOM      3  O   UNK d   1      57.016  89.201  20.701  0.00  0.00    -0.272 OA
ATOM      4  C   UNK d   1      56.753  87.152  22.006  0.00  0.00     0.099 C 
ATOM      5  C   UNK d   1      57.220  87.593  23.355  0.00  0.00     0.031 C 
ATOM      6  C   UNK d   1      56.439  88.838  23.719  0.00  0.00     0.152 C 
ATOM      7  C   UNK d   1      55.020  88.282  23.836  0.00  0.00     0.152 C 
ATOM      8  C   UNK d   1      55.144  86.785  23.674  0.00  0.00     0.031 C 
ATOM      9  C   UNK d   1      55.464  86.365  22.274  0.00  0.00     0.099 C 
ATOM     10  C   UNK d   1      54.498  86.847  21.258  0.00  0.00     0.236 C 
ATOM     11  O   UNK d   1      53.507  86.190  20.855  0.00  0.00    -0.272 OA
ATOM     12  C   UNK d   1      56.540  86.600  24.313  0.00  0.00     0.016 C 
ENDROOT
BRANCH   1  13
ATOM     13  C   UNK d   1      54.024  89.101  20.259  0.00  0.00     0.045 A 
ATOM     14  C   UNK d   1      54.211  90.469  20.489  0.00  0.00     0.032 A 
ATOM     15  C   UNK d   1      53.364  91.398  19.933  0.00  0.00     0.026 A 
ATOM     16  C   UNK d   1      52.305  91.018  19.130  0.00  0.00     0.034 A 
ATOM     17 Cl   UNK d   1      51.233  92.231  18.433  0.00  0.00    -0.084 Cl
ATOM     18  C   UNK d   1      52.099  89.668  18.887  0.00  0.00     0.026 A 
ATOM     19  C   UNK d   1      52.961  88.761  19.456  0.00  0.00     0.032 A 
ENDBRANCH   1  13
BRANCH   6  20
ATOM     20  O   UNK d   1      56.836  89.233  24.978  0.00  0.00    -0.393 OA
ATOM     21  H   UNK d   1      57.095  90.180  25.057  0.00  0.00     0.210 HD
ENDBRANCH   6  20
BRANCH   7  22
ATOM     22  O   UNK d   1      54.508  88.490  25.115  0.00  0.00    -0.393 OA
ATOM     23  H   UNK d   1      54.048  87.641  25.391  0.00  0.00     0.210 HD
ENDBRANCH   7  22
TORSDOF 3
ENDMDL
