MODEL 1
REMARK VINA RESULT:    -9.563      0.000      0.000
REMARK INTER + INTRA:         -13.756
REMARK INTER:                 -12.638
REMARK INTRA:                  -1.118
REMARK UNBOUND:                -1.118
REMARK  6 active torsions:
REMARK  status: ('A' for Active; 'I' for Inactive)
REMARK    1  A    between atoms: C_5  and  N_8 
REMARK    2  A    between atoms: C_14  and  C_17 
REMARK    3  A    between atoms: C_19  and  C_22 
REMARK    4  A    between atoms: C_24  and  O_31 
REMARK    5  A    between atoms: C_25  and  O_30 
REMARK    6  A    between atoms: C_26  and  O_28 
ROOT
ATOM      1  C   UNK d   1      55.519  86.712  25.382  0.00  0.00     0.041 C 
ATOM      2  C   UNK d   1      54.228  86.925  25.221  0.00  0.00     0.026 C 
ATOM      3  C   UNK d   1      53.455  85.764  25.731  0.00  0.00     0.134 C 
ATOM      4  N   UNK d   1      54.400  85.108  26.590  0.00  0.00    -0.228 NA
ATOM      5  N   UNK d   1      55.630  85.435  26.000  0.00  0.00    -0.323 N 
ATOM      6  H   UNK d   1      54.251  84.109  26.721  0.00  0.00     0.147 HD
ATOM      7  H   UNK d   1      56.475  84.829  26.021  0.00  0.00     0.180 HD
ENDROOT
BRANCH   1   8
ATOM      8  C   UNK d   1      56.658  87.620  25.007  0.00  0.00     0.221 C 
ATOM      9  C   UNK d   1      57.874  86.828  24.715  0.00  0.00     0.244 C 
ATOM     10  N   UNK d   1      58.101  86.345  23.406  0.00  0.00    -0.277 N 
ATOM     11  O   UNK d   1      58.687  86.592  25.629  0.00  0.00    -0.272 OA
ATOM     12  C   UNK d   1      57.410  86.883  22.315  0.00  0.00     0.336 C 
ATOM     13  H   UNK d   1      58.798  85.569  23.214  0.00  0.00     0.173 HD
ATOM     14  N   UNK d   1      56.463  87.926  22.495  0.00  0.00    -0.233 N 
ATOM     15  O   UNK d   1      57.597  86.466  21.119  0.00  0.00    -0.246 OA
ATOM     16  C   UNK d   1      56.245  88.400  23.816  0.00  0.00     0.251 C 
ATOM     17  O   UNK d   1      55.693  89.501  23.985  0.00  0.00    -0.271 OA
BRANCH  14  18
ATOM     18  C   UNK d   1      55.771  88.459  21.374  0.00  0.00     0.047 A 
ATOM     19  C   UNK d   1      56.321  89.473  20.633  0.00  0.00     0.032 A 
ATOM     20  C   UNK d   1      55.676  90.009  19.537  0.00  0.00     0.026 A 
ATOM     21  C   UNK d   1      54.447  89.529  19.159  0.00  0.00     0.034 A 
ATOM     22 Cl   UNK d   1      53.601  90.200  17.759  0.00  0.00    -0.084 Cl
ATOM     23  C   UNK d   1      53.877  88.512  19.887  0.00  0.00     0.026 A 
ATOM     24  C   UNK d   1      54.548  87.980  20.996  0.00  0.00     0.032 A 
ENDBRANCH  14  18
ENDBRANCH   1   8
BRANCH   3  25
ATOM     25  C   UNK d   1      53.006  84.967  24.595  0.00  0.00    -0.030 A 
ATOM     26  C   UNK d   1      51.798  84.310  24.691  0.00  0.00     0.049 A 
ATOM     27  C   UNK d   1      51.285  83.534  23.672  0.00  0.00     0.104 A 
ATOM     28  C   UNK d   1      52.039  83.419  22.497  0.00  0.00     0.133 A 
ATOM     29  C   UNK d   1      53.252  84.056  22.354  0.00  0.00     0.104 A 
ATOM     30  C   UNK d   1      53.702  84.815  23.416  0.00  0.00     0.049 A 
BRANCH  27  31
ATOM     31  O   UNK d   1      50.068  82.869  23.758  0.00  0.00    -0.353 OA
ATOM     32  C   UNK d   1      49.850  82.085  24.913  0.00  0.00     0.210 C 
ENDBRANCH  27  31
BRANCH  28  33
ATOM     33  O   UNK d   1      51.569  82.656  21.451  0.00  0.00    -0.356 OA
ATOM     34  H   UNK d   1      51.453  83.072  20.537  0.00  0.00     0.218 HD
ENDBRANCH  28  33
BRANCH  29  35
ATOM     35  O   UNK d   1      53.947  83.911  21.190  0.00  0.00    -0.353 OA
ATOM     36  C   UNK d   1      53.835  84.705  20.045  0.00  0.00     0.210 C 
ENDBRANCH  29  35
ENDBRANCH   3  25
TORSDOF 6
ENDMDL
