/Users/jonathanwahrer/Desktop/Msc/3_Semester/Drug_Design_Praktikum/waehrer_HTS_screening/HTS_experiment/out/docking_results/vina_output/3npc/2357_docked.pdbqt
 OpenBabel03192221123D

 36 39  0  0  1  0  0  0  0  0999 V2000
   55.5190   86.7120   25.3820 C   0  0  2  0  0  3  0  0  0  0  0  0
   54.2280   86.9250   25.2210 C   0  0  0  0  0  2  0  0  0  0  0  0
   53.4550   85.7640   25.7310 C   0  0  2  0  0  3  0  0  0  0  0  0
   54.4000   85.1080   26.5900 N   0  0  0  0  0  0  0  0  0  0  0  0
   55.6300   85.4350   26.0000 N   0  0  0  0  0  0  0  0  0  0  0  0
   54.2510   84.1090   26.7210 H   0  0  0  0  0  0  0  0  0  0  0  0
   56.4750   84.8290   26.0210 H   0  0  0  0  0  0  0  0  0  0  0  0
   56.6580   87.6200   25.0070 C   0  0  1  0  0  3  0  0  0  0  0  0
   57.8740   86.8280   24.7150 C   0  0  0  0  0  0  0  0  0  0  0  0
   58.1010   86.3450   23.4060 N   0  0  0  0  0  0  0  0  0  0  0  0
   58.6870   86.5920   25.6290 O   0  0  0  0  0  0  0  0  0  0  0  0
   57.4100   86.8830   22.3150 C   0  0  0  0  0  0  0  0  0  0  0  0
   58.7980   85.5690   23.2140 H   0  0  0  0  0  0  0  0  0  0  0  0
   56.4630   87.9260   22.4950 N   0  0  0  0  0  0  0  0  0  0  0  0
   57.5970   86.4660   21.1190 O   0  0  0  0  0  0  0  0  0  0  0  0
   56.2450   88.4000   23.8160 C   0  0  0  0  0  0  0  0  0  0  0  0
   55.6930   89.5010   23.9850 O   0  0  0  0  0  0  0  0  0  0  0  0
   55.7710   88.4590   21.3740 C   0  0  0  0  0  0  0  0  0  0  0  0
   56.3210   89.4730   20.6330 C   0  0  0  0  0  3  0  0  0  0  0  0
   55.6760   90.0090   19.5370 C   0  0  0  0  0  3  0  0  0  0  0  0
   54.4470   89.5290   19.1590 C   0  0  0  0  0  0  0  0  0  0  0  0
   53.6010   90.2000   17.7590 Cl  0  0  0  0  0  0  0  0  0  0  0  0
   53.8770   88.5120   19.8870 C   0  0  0  0  0  3  0  0  0  0  0  0
   54.5480   87.9800   20.9960 C   0  0  0  0  0  3  0  0  0  0  0  0
   53.0060   84.9670   24.5950 C   0  0  0  0  0  0  0  0  0  0  0  0
   51.7980   84.3100   24.6910 C   0  0  0  0  0  3  0  0  0  0  0  0
   51.2850   83.5340   23.6720 C   0  0  0  0  0  0  0  0  0  0  0  0
   52.0390   83.4190   22.4970 C   0  0  0  0  0  0  0  0  0  0  0  0
   53.2520   84.0560   22.3540 C   0  0  0  0  0  0  0  0  0  0  0  0
   53.7020   84.8150   23.4160 C   0  0  0  0  0  3  0  0  0  0  0  0
   50.0680   82.8690   23.7580 O   0  0  0  0  0  0  0  0  0  0  0  0
   49.8500   82.0850   24.9130 C   0  0  0  0  0  1  0  0  0  0  0  0
   51.5690   82.6560   21.4510 O   0  0  0  0  0  0  0  0  0  0  0  0
   51.4530   83.0720   20.5370 H   0  0  0  0  0  0  0  0  0  0  0  0
   53.9470   83.9110   21.1900 O   0  0  0  0  0  0  0  0  0  0  0  0
   53.8350   84.7050   20.0450 C   0  0  0  0  0  1  0  0  0  0  0  0
  1  2  1  1  0  0  0
  1  5  1  0  0  0  0
  2  3  1  0  0  0  0
  3 25  1  6  0  0  0
  3  4  1  0  0  0  0
  4  6  1  0  0  0  0
  5  7  1  0  0  0  0
  5  4  1  0  0  0  0
  8 16  1  6  0  0  0
  8  1  1  0  0  0  0
  9  8  1  0  0  0  0
  9 11  2  0  0  0  0
 10  9  1  0  0  0  0
 12 14  1  0  0  0  0
 12 10  1  0  0  0  0
 13 10  1  0  0  0  0
 14 16  1  0  0  0  0
 15 12  2  0  0  0  0
 16 17  2  0  0  0  0
 18 14  1  0  0  0  0
 19 18  2  0  0  0  0
 20 19  1  0  0  0  0
 21 20  2  0  0  0  0
 21 23  1  0  0  0  0
 22 21  1  0  0  0  0
 23 24  2  0  0  0  0
 24 18  1  0  0  0  0
 25 26  1  0  0  0  0
 27 31  1  0  0  0  0
 27 26  2  0  0  0  0
 28 27  1  0  0  0  0
 29 28  2  0  0  0  0
 29 30  1  0  0  0  0
 30 25  2  0  0  0  0
 31 32  1  0  0  0  0
 33 28  1  0  0  0  0
 34 33  1  0  0  0  0
 35 29  1  0  0  0  0
 36 35  1  0  0  0  0
M  END
>  <Pose>
1

>  <Score>
-9.563

$$$$
