MODEL 1
REMARK VINA RESULT:    -9.118      0.000      0.000
REMARK INTER + INTRA:         -12.758
REMARK INTER:                 -11.517
REMARK INTRA:                  -1.241
REMARK UNBOUND:                -1.241
REMARK  5 active torsions:
REMARK  status: ('A' for Active; 'I' for Inactive)
REMARK    1  A    between atoms: C_5  and  N_8 
REMARK    2  A    between atoms: C_14  and  C_17 
REMARK    3  A    between atoms: C_19  and  C_22 
REMARK    4  A    between atoms: C_24  and  O_30 
REMARK    5  A    between atoms: C_25  and  O_28 
ROOT
ATOM      1  N   UNK d   1      56.088  87.522  22.328  0.00  0.00    -0.233 N 
ATOM      2  C   UNK d   1      57.280  86.774  22.128  0.00  0.00     0.336 C 
ATOM      3  O   UNK d   1      57.649  86.543  20.940  0.00  0.00    -0.246 OA
ATOM      4  N   UNK d   1      58.043  86.295  23.216  0.00  0.00    -0.277 N 
ATOM      5  C   UNK d   1      57.637  86.549  24.547  0.00  0.00     0.244 C 
ATOM      6  O   UNK d   1      58.400  86.283  25.540  0.00  0.00    -0.272 OA
ATOM      7  C   UNK d   1      56.329  87.129  24.850  0.00  0.00     0.221 C 
ATOM      8  C   UNK d   1      55.711  87.758  23.676  0.00  0.00     0.251 C 
ATOM      9  O   UNK d   1      54.755  88.591  23.845  0.00  0.00    -0.271 OA
ATOM     10  H   UNK d   1      58.923  85.741  23.047  0.00  0.00     0.173 HD
ENDROOT
BRANCH   7  11
ATOM     11  C   UNK d   1      55.441  86.103  25.473  0.00  0.00     0.041 C 
ATOM     12  C   UNK d   1      54.189  86.224  25.827  0.00  0.00     0.026 C 
ATOM     13  C   UNK d   1      53.766  84.921  26.395  0.00  0.00     0.134 C 
ATOM     14  N   UNK d   1      55.012  84.256  26.711  0.00  0.00    -0.228 NA
ATOM     15  N   UNK d   1      55.899  84.787  25.767  0.00  0.00    -0.323 N 
ATOM     16  H   UNK d   1      55.321  84.464  27.690  0.00  0.00     0.147 HD
ATOM     17  H   UNK d   1      56.729  84.264  25.385  0.00  0.00     0.180 HD
BRANCH  13  18
ATOM     18  C   UNK d   1      53.000  84.133  25.390  0.00  0.00    -0.032 A 
ATOM     19  C   UNK d   1      52.380  84.722  24.312  0.00  0.00     0.048 A 
ATOM     20  C   UNK d   1      51.667  83.999  23.373  0.00  0.00     0.099 A 
ATOM     21  C   UNK d   1      51.555  82.633  23.497  0.00  0.00     0.101 A 
ATOM     22  C   UNK d   1      52.167  82.027  24.565  0.00  0.00     0.040 A 
ATOM     23  C   UNK d   1      52.876  82.755  25.495  0.00  0.00     0.012 A 
BRANCH  20  24
ATOM     24  O   UNK d   1      51.065  84.647  22.311  0.00  0.00    -0.358 OA
ATOM     25  H   UNK d   1      51.099  85.643  22.223  0.00  0.00     0.217 HD
ENDBRANCH  20  24
BRANCH  21  26
ATOM     26  O   UNK d   1      50.847  81.893  22.571  0.00  0.00    -0.353 OA
ATOM     27  C   UNK d   1      49.490  81.594  22.808  0.00  0.00     0.210 C 
ENDBRANCH  21  26
ENDBRANCH  13  18
ENDBRANCH   7  11
BRANCH   1  28
ATOM     28  C   UNK d   1      55.302  88.021  21.253  0.00  0.00     0.047 A 
ATOM     29  C   UNK d   1      55.592  89.224  20.622  0.00  0.00     0.032 A 
ATOM     30  C   UNK d   1      54.843  89.706  19.592  0.00  0.00     0.026 A 
ATOM     31  C   UNK d   1      53.747  88.982  19.144  0.00  0.00     0.034 A 
ATOM     32 Cl   UNK d   1      52.757  89.567  17.820  0.00  0.00    -0.084 Cl
ATOM     33  C   UNK d   1      53.429  87.778  19.751  0.00  0.00     0.026 A 
ATOM     34  C   UNK d   1      54.214  87.305  20.805  0.00  0.00     0.032 A 
ENDBRANCH   1  28
TORSDOF 5
ENDMDL
