MODEL 1
REMARK VINA RESULT:    -9.662      0.000      0.000
REMARK INTER + INTRA:         -12.225
REMARK INTER:                 -11.639
REMARK INTRA:                  -0.587
REMARK UNBOUND:                -0.587
REMARK  4 active torsions:
REMARK  status: ('A' for Active; 'I' for Inactive)
REMARK    1  A    between atoms: C_5  and  N_8 
REMARK    2  A    between atoms: C_14  and  C_17 
REMARK    3  A    between atoms: C_19  and  C_22 
REMARK    4  A    between atoms: C_24  and  O_28 
ROOT
ATOM      1  N   UNK d   1      53.540  82.813  17.607  0.00  0.00    -0.233 N 
ATOM      2  C   UNK d   1      54.077  81.922  18.599  0.00  0.00     0.336 C 
ATOM      3  O   UNK d   1      54.409  80.732  18.309  0.00  0.00    -0.246 OA
ATOM      4  N   UNK d   1      54.216  82.440  19.913  0.00  0.00    -0.277 N 
ATOM      5  C   UNK d   1      53.829  83.800  20.216  0.00  0.00     0.244 C 
ATOM      6  O   UNK d   1      54.366  84.326  21.199  0.00  0.00    -0.272 OA
ATOM      7  C   UNK d   1      52.854  84.466  19.374  0.00  0.00     0.221 C 
ATOM      8  C   UNK d   1      53.176  84.140  17.952  0.00  0.00     0.251 C 
ATOM      9  O   UNK d   1      53.145  84.981  17.018  0.00  0.00    -0.271 OA
ATOM     10  H   UNK d   1      54.601  81.814  20.642  0.00  0.00     0.173 HD
ENDROOT
BRANCH   7  11
ATOM     11  C   UNK d   1      52.621  85.875  19.592  0.00  0.00     0.041 C 
ATOM     12  C   UNK d   1      53.475  86.872  19.572  0.00  0.00     0.026 C 
ATOM     13  C   UNK d   1      52.803  88.165  19.849  0.00  0.00     0.134 C 
ATOM     14  N   UNK d   1      51.403  87.819  19.766  0.00  0.00    -0.228 NA
ATOM     15  N   UNK d   1      51.325  86.434  19.894  0.00  0.00    -0.323 N 
ATOM     16  H   UNK d   1      50.946  88.180  18.901  0.00  0.00     0.147 HD
ATOM     17  H   UNK d   1      50.449  85.942  20.169  0.00  0.00     0.180 HD
BRANCH  13  18
ATOM     18  C   UNK d   1      53.074  89.187  18.831  0.00  0.00    -0.033 A 
ATOM     19  C   UNK d   1      52.502  90.439  18.994  0.00  0.00     0.045 A 
ATOM     20  C   UNK d   1      52.736  91.420  18.059  0.00  0.00     0.066 A 
ATOM     21  C   UNK d   1      53.529  91.193  16.958  0.00  0.00     0.036 A 
ATOM     22  C   UNK d   1      54.103  89.956  16.782  0.00  0.00     0.003 A 
ATOM     23  C   UNK d   1      53.862  88.964  17.732  0.00  0.00     0.009 A 
BRANCH  20  24
ATOM     24  O   UNK d   1      52.165  92.690  18.212  0.00  0.00    -0.361 OA
ATOM     25  H   UNK d   1      52.154  93.319  17.429  0.00  0.00     0.217 HD
ENDBRANCH  20  24
ENDBRANCH  13  18
ENDBRANCH   7  11
BRANCH   1  26
ATOM     26  C   UNK d   1      53.395  82.291  16.267  0.00  0.00     0.047 A 
ATOM     27  C   UNK d   1      52.214  81.721  15.836  0.00  0.00     0.032 A 
ATOM     28  C   UNK d   1      52.045  81.211  14.562  0.00  0.00     0.026 A 
ATOM     29  C   UNK d   1      53.101  81.268  13.664  0.00  0.00     0.034 A 
ATOM     30 Cl   UNK d   1      52.859  80.617  12.068  0.00  0.00    -0.084 Cl
ATOM     31  C   UNK d   1      54.303  81.838  14.076  0.00  0.00     0.026 A 
ATOM     32  C   UNK d   1      54.435  82.338  15.359  0.00  0.00     0.032 A 
ENDBRANCH   1  26
TORSDOF 4
ENDMDL
