/Users/jonathanwahrer/Desktop/Msc/3_Semester/Drug_Design_Praktikum/waehrer_HTS_screening/HTS_experiment/out/docking_results/vina_output/3npc/2359_docked.pdbqt
 OpenBabel03192221123D

 32 35  0  0  1  0  0  0  0  0999 V2000
   53.5400   82.8130   17.6070 N   0  0  0  0  0  0  0  0  0  0  0  0
   54.0770   81.9220   18.5990 C   0  0  0  0  0  0  0  0  0  0  0  0
   54.4090   80.7320   18.3090 O   0  0  0  0  0  0  0  0  0  0  0  0
   54.2160   82.4400   19.9130 N   0  0  0  0  0  0  0  0  0  0  0  0
   53.8290   83.8000   20.2160 C   0  0  0  0  0  0  0  0  0  0  0  0
   54.3660   84.3260   21.1990 O   0  0  0  0  0  0  0  0  0  0  0  0
   52.8540   84.4660   19.3740 C   0  0  2  0  0  3  0  0  0  0  0  0
   53.1760   84.1400   17.9520 C   0  0  0  0  0  0  0  0  0  0  0  0
   53.1450   84.9810   17.0180 O   0  0  0  0  0  0  0  0  0  0  0  0
   54.6010   81.8140   20.6420 H   0  0  0  0  0  0  0  0  0  0  0  0
   52.6210   85.8750   19.5920 C   0  0  2  0  0  3  0  0  0  0  0  0
   53.4750   86.8720   19.5720 C   0  0  0  0  0  2  0  0  0  0  0  0
   52.8030   88.1650   19.8490 C   0  0  2  0  0  3  0  0  0  0  0  0
   51.4030   87.8190   19.7660 N   0  0  0  0  0  0  0  0  0  0  0  0
   51.3250   86.4340   19.8940 N   0  0  0  0  0  0  0  0  0  0  0  0
   50.9460   88.1800   18.9010 H   0  0  0  0  0  0  0  0  0  0  0  0
   50.4490   85.9420   20.1690 H   0  0  0  0  0  0  0  0  0  0  0  0
   53.0740   89.1870   18.8310 C   0  0  0  0  0  0  0  0  0  0  0  0
   52.5020   90.4390   18.9940 C   0  0  0  0  0  3  0  0  0  0  0  0
   52.7360   91.4200   18.0590 C   0  0  0  0  0  0  0  0  0  0  0  0
   53.5290   91.1930   16.9580 C   0  0  0  0  0  3  0  0  0  0  0  0
   54.1030   89.9560   16.7820 C   0  0  0  0  0  3  0  0  0  0  0  0
   53.8620   88.9640   17.7320 C   0  0  0  0  0  3  0  0  0  0  0  0
   52.1650   92.6900   18.2120 O   0  0  0  0  0  0  0  0  0  0  0  0
   52.1540   93.3190   17.4290 H   0  0  0  0  0  0  0  0  0  0  0  0
   53.3950   82.2910   16.2670 C   0  0  0  0  0  0  0  0  0  0  0  0
   52.2140   81.7210   15.8360 C   0  0  0  0  0  3  0  0  0  0  0  0
   52.0450   81.2110   14.5620 C   0  0  0  0  0  3  0  0  0  0  0  0
   53.1010   81.2680   13.6640 C   0  0  0  0  0  0  0  0  0  0  0  0
   52.8590   80.6170   12.0680 Cl  0  0  0  0  0  0  0  0  0  0  0  0
   54.3030   81.8380   14.0760 C   0  0  0  0  0  3  0  0  0  0  0  0
   54.4350   82.3380   15.3590 C   0  0  0  0  0  3  0  0  0  0  0  0
  1  8  1  0  0  0  0
  1  2  1  0  0  0  0
  2  4  1  0  0  0  0
  3  2  2  0  0  0  0
  4  5  1  0  0  0  0
  4 10  1  0  0  0  0
  5  6  2  0  0  0  0
  7  8  1  6  0  0  0
  7 11  1  0  0  0  0
  7  5  1  0  0  0  0
  9  8  2  0  0  0  0
 11 12  1  1  0  0  0
 11 15  1  0  0  0  0
 12 13  1  0  0  0  0
 13 18  1  6  0  0  0
 14 13  1  0  0  0  0
 14 15  1  0  0  0  0
 15 17  1  0  0  0  0
 16 14  1  0  0  0  0
 18 19  1  0  0  0  0
 20 24  1  0  0  0  0
 20 19  2  0  0  0  0
 21 20  1  0  0  0  0
 22 21  2  0  0  0  0
 22 23  1  0  0  0  0
 23 18  2  0  0  0  0
 25 24  1  0  0  0  0
 26  1  1  0  0  0  0
 27 26  1  0  0  0  0
 28 27  2  0  0  0  0
 29 31  2  0  0  0  0
 29 28  1  0  0  0  0
 30 29  1  0  0  0  0
 31 32  1  0  0  0  0
 32 26  2  0  0  0  0
M  END
>  <Pose>
1

>  <Score>
-9.662

$$$$
