MODEL 1
REMARK VINA RESULT:    -9.352      0.000      0.000
REMARK INTER + INTRA:         -11.980
REMARK INTER:                 -10.992
REMARK INTRA:                  -0.988
REMARK UNBOUND:                -0.988
REMARK  3 active torsions:
REMARK  status: ('A' for Active; 'I' for Inactive)
REMARK    1  A    between atoms: C_5  and  N_8 
REMARK    2  A    between atoms: C_14  and  C_17 
REMARK    3  A    between atoms: C_19  and  C_22 
ROOT
ATOM      1  N   UNK d   1      55.734  89.123  21.947  0.00  0.00    -0.233 N 
ATOM      2  C   UNK d   1      55.519  90.089  22.959  0.00  0.00     0.336 C 
ATOM      3  O   UNK d   1      54.933  91.167  22.691  0.00  0.00    -0.246 OA
ATOM      4  N   UNK d   1      55.979  89.811  24.293  0.00  0.00    -0.277 N 
ATOM      5  C   UNK d   1      56.642  88.592  24.600  0.00  0.00     0.244 C 
ATOM      6  O   UNK d   1      57.324  88.507  25.651  0.00  0.00    -0.272 OA
ATOM      7  C   UNK d   1      56.518  87.451  23.679  0.00  0.00     0.221 C 
ATOM      8  C   UNK d   1      56.398  87.919  22.288  0.00  0.00     0.251 C 
ATOM      9  O   UNK d   1      56.906  87.224  21.341  0.00  0.00    -0.271 OA
ATOM     10  H   UNK d   1      55.842  90.494  25.069  0.00  0.00     0.173 HD
ENDROOT
BRANCH   7  11
ATOM     11  C   UNK d   1      55.335  86.599  24.040  0.00  0.00     0.041 C 
ATOM     12  C   UNK d   1      54.923  86.241  25.228  0.00  0.00     0.026 C 
ATOM     13  C   UNK d   1      53.722  85.403  25.093  0.00  0.00     0.135 C 
ATOM     14  N   UNK d   1      53.297  85.620  23.739  0.00  0.00    -0.228 NA
ATOM     15  N   UNK d   1      54.457  86.048  23.072  0.00  0.00    -0.323 N 
ATOM     16  H   UNK d   1      52.542  86.308  23.667  0.00  0.00     0.147 HD
ATOM     17  H   UNK d   1      54.576  85.944  22.039  0.00  0.00     0.180 HD
BRANCH  13  18
ATOM     18  C   UNK d   1      54.153  83.993  25.274  0.00  0.00    -0.018 A 
ATOM     19  C   UNK d   1      55.250  83.698  26.048  0.00  0.00     0.125 A 
ATOM     20  N   UNK d   1      55.650  82.407  26.217  0.00  0.00    -0.273 NA
ATOM     21  C   UNK d   1      55.009  81.372  25.650  0.00  0.00     0.116 A 
ATOM     22  C   UNK d   1      53.906  81.632  24.869  0.00  0.00     0.020 A 
ATOM     23  C   UNK d   1      53.481  82.956  24.684  0.00  0.00     0.012 A 
ENDBRANCH  13  18
ENDBRANCH   7  11
BRANCH   1  24
ATOM     24  C   UNK d   1      55.291  89.363  20.590  0.00  0.00     0.047 A 
ATOM     25  C   UNK d   1      54.177  88.745  20.064  0.00  0.00     0.032 A 
ATOM     26  C   UNK d   1      53.764  88.985  18.759  0.00  0.00     0.026 A 
ATOM     27  C   UNK d   1      54.457  89.852  17.942  0.00  0.00     0.034 A 
ATOM     28 Cl   UNK d   1      53.940  90.160  16.293  0.00  0.00    -0.084 Cl
ATOM     29  C   UNK d   1      55.572  90.467  18.471  0.00  0.00     0.026 A 
ATOM     30  C   UNK d   1      55.981  90.228  19.770  0.00  0.00     0.032 A 
ENDBRANCH   1  24
TORSDOF 3
ENDMDL
