/Users/jonathanwahrer/Desktop/Msc/3_Semester/Drug_Design_Praktikum/waehrer_HTS_screening/HTS_experiment/out/docking_results/vina_output/3npc/2363_docked.pdbqt
 OpenBabel03192221133D

 33 36  0  0  1  0  0  0  0  0999 V2000
   53.4750   82.5890   20.3040 N   0  0  0  0  0  0  0  0  0  0  0  0
   52.8720   83.6320   21.0540 C   0  0  2  0  0  0  0  0  0  0  0  0
   52.7520   83.3650   22.4790 C   0  0  0  0  0  0  0  0  0  0  0  0
   53.0990   82.1720   23.0380 C   0  0  0  0  0  0  0  0  0  0  0  0
   52.9340   81.9760   24.4220 C   0  0  0  0  0  3  0  0  0  0  0  0
   52.4330   82.9440   25.2560 C   0  0  0  0  0  3  0  0  0  0  0  0
   52.0860   84.1500   24.6710 C   0  0  0  0  0  3  0  0  0  0  0  0
   52.2410   84.3460   23.3370 C   0  0  0  0  0  3  0  0  0  0  0  0
   53.6580   81.1000   22.2620 N   0  0  0  0  0  0  0  0  0  0  0  0
   53.8260   81.3600   20.8830 C   0  0  0  0  0  0  0  0  0  0  0  0
   54.3140   80.4590   20.1260 O   0  0  0  0  0  0  0  0  0  0  0  0
   53.9070   80.2060   22.7210 H   0  0  0  0  0  0  0  0  0  0  0  0
   51.5330   83.7150   20.5310 O   0  0  0  0  0  0  0  0  0  0  0  0
   51.0380   82.8850   20.7570 H   0  0  0  0  0  0  0  0  0  0  0  0
   53.4810   84.9570   20.7720 C   0  0  0  0  0  0  0  0  0  0  0  0
   54.6400   85.1920   21.1190 O   0  0  0  0  0  0  0  0  0  0  0  0
   52.6950   85.9160   20.1050 N   0  0  0  0  0  0  0  0  0  0  0  0
   51.7000   85.7230   19.8030 H   0  0  0  0  0  0  0  0  0  0  0  0
   53.1940   87.2520   19.7770 C   0  0  0  0  0  2  0  0  0  0  0  0
   52.1230   88.1630   19.3130 C   0  0  0  0  0  2  0  0  0  0  0  0
   52.5150   89.3720   18.7010 N   0  0  0  0  0  0  0  0  0  0  0  0
   52.0900   90.5870   19.2650 C   0  0  0  0  0  2  0  0  0  0  0  0
   52.8610   91.7300   18.5980 C   0  0  0  0  0  2  0  0  0  0  0  0
   53.1110   91.4260   17.2480 O   0  0  0  0  0  0  0  0  0  0  0  0
   54.0690   90.4230   17.1250 C   0  0  0  0  0  2  0  0  0  0  0  0
   53.8590   89.4280   18.2340 C   0  0  0  0  0  2  0  0  0  0  0  0
   53.7500   82.7910   18.8750 C   0  0  0  0  0  0  0  0  0  0  0  0
   54.9710   83.2290   18.4350 C   0  0  0  0  0  3  0  0  0  0  0  0
   55.2180   83.4150   17.0780 C   0  0  0  0  0  3  0  0  0  0  0  0
   54.2190   83.1550   16.1680 C   0  0  0  0  0  0  0  0  0  0  0  0
   54.5400   83.3950   14.4460 Cl  0  0  0  0  0  0  0  0  0  0  0  0
   52.9810   82.7140   16.5840 C   0  0  0  0  0  3  0  0  0  0  0  0
   52.7700   82.5390   17.9400 C   0  0  0  0  0  3  0  0  0  0  0  0
  1 10  1  0  0  0  0
  1  2  1  0  0  0  0
  2 13  1  6  0  0  0
  2  3  1  0  0  0  0
  3  4  2  0  0  0  0
  3  8  1  0  0  0  0
  4  5  1  0  0  0  0
  5  6  2  0  0  0  0
  7  6  1  0  0  0  0
  8  7  2  0  0  0  0
  9 12  1  0  0  0  0
  9  4  1  0  0  0  0
 10  9  1  0  0  0  0
 11 10  2  0  0  0  0
 13 14  1  0  0  0  0
 15  2  1  0  0  0  0
 15 16  2  0  0  0  0
 17 15  1  0  0  0  0
 18 17  1  0  0  0  0
 19 17  1  0  0  0  0
 20 19  1  0  0  0  0
 21 22  1  0  0  0  0
 21 20  1  0  0  0  0
 23 22  1  0  0  0  0
 24 23  1  0  0  0  0
 25 24  1  0  0  0  0
 25 26  1  0  0  0  0
 26 21  1  0  0  0  0
 27  1  1  0  0  0  0
 28 27  1  0  0  0  0
 29 28  2  0  0  0  0
 30 32  2  0  0  0  0
 30 29  1  0  0  0  0
 31 30  1  0  0  0  0
 32 33  1  0  0  0  0
 33 27  2  0  0  0  0
M  END
>  <Pose>
1

>  <Score>
-7.734

$$$$
