MODEL 1
REMARK VINA RESULT:    -7.158      0.000      0.000
REMARK INTER + INTRA:          -9.914
REMARK INTER:                  -9.460
REMARK INTRA:                  -0.454
REMARK UNBOUND:                -0.454
REMARK  6 active torsions:
REMARK  status: ('A' for Active; 'I' for Inactive)
REMARK    1  A    between atoms: C_4  and  C_8 
REMARK    2  A    between atoms: C_8  and  N_9 
REMARK    3  A    between atoms: N_16  and  C_18 
REMARK    4  A    between atoms: C_18  and  C_19 
REMARK    5  A    between atoms: C_21  and  O_25 
REMARK    6  A    between atoms: C_30  and  O_32 
ROOT
ATOM      1  N   UNK d   1      49.114 104.661  34.227  0.00  0.00    -0.280 N 
ATOM      2  C   UNK d   1      47.885 105.337  33.992  0.00  0.00     0.260 C 
ATOM      3  O   UNK d   1      47.575 106.337  34.717  0.00  0.00    -0.270 OA
ATOM      4  C   UNK d   1      46.936 104.946  32.946  0.00  0.00     0.319 C 
ATOM      5  N   UNK d   1      47.210 103.694  32.322  0.00  0.00     0.127 N 
ATOM      6  C   UNK d   1      48.585 103.330  32.200  0.00  0.00     0.292 A 
ATOM      7  C   UNK d   1      49.291 103.822  30.960  0.00  0.00     0.326 A 
ATOM      8  N   UNK d   1      49.373 102.481  30.480  0.00  0.00     0.098 N 
ATOM      9  C   UNK d   1      48.691 101.943  31.590  0.00  0.00     0.326 A 
ATOM     10  C   UNK d   1      49.365 103.493  33.455  0.00  0.00     0.270 C 
ATOM     11  O   UNK d   1      50.217 102.657  33.849  0.00  0.00    -0.270 OA
ATOM     12  C   UNK d   1      46.506 102.670  33.039  0.00  0.00     0.307 C 
ATOM     13  C   UNK d   1      45.701 103.331  34.123  0.00  0.00     0.149 C 
ATOM     14  C   UNK d   1      45.579 104.746  33.635  0.00  0.00     0.079 C 
ENDROOT
BRANCH   8  15
ATOM     15  C   UNK d   1      48.960 102.189  29.156  0.00  0.00     0.311 C 
BRANCH  15  16
ATOM     16  C   UNK d   1      49.849 101.318  28.379  0.00  0.00    -0.028 A 
ATOM     17  C   UNK d   1      50.848 100.617  29.009  0.00  0.00     0.045 A 
ATOM     18  C   UNK d   1      51.709  99.781  28.293  0.00  0.00     0.068 A 
ATOM     19  C   UNK d   1      51.547  99.662  26.932  0.00  0.00     0.037 A 
ATOM     20  C   UNK d   1      50.555 100.351  26.276  0.00  0.00     0.003 A 
ATOM     21  C   UNK d   1      49.714 101.176  27.020  0.00  0.00     0.009 A 
BRANCH  18  22
ATOM     22  O   UNK d   1      52.715  99.075  28.923  0.00  0.00    -0.356 OA
ATOM     23  C   UNK d   1      53.078  97.809  28.405  0.00  0.00     0.210 C 
ENDBRANCH  18  22
ENDBRANCH  15  16
ENDBRANCH   8  15
BRANCH   1  24
ATOM     24  C   UNK d   1      50.079 105.127  35.207  0.00  0.00     0.173 C 
BRANCH  24  25
ATOM     25  C   UNK d   1      51.022 106.110  34.570  0.00  0.00    -0.038 A 
ATOM     26  C   UNK d   1      52.202 106.459  35.185  0.00  0.00     0.032 A 
ATOM     27  C   UNK d   1      53.084 107.359  34.622  0.00  0.00     0.034 A 
ATOM     28 Cl   UNK d   1      54.576 107.778  35.433  0.00  0.00    -0.084 Cl
ATOM     29  C   UNK d   1      52.792 107.937  33.409  0.00  0.00     0.024 A 
ATOM     30  C   UNK d   1      51.607 107.574  32.811  0.00  0.00     0.002 A 
ATOM     31  C   UNK d   1      50.730 106.689  33.355  0.00  0.00     0.009 A 
ENDBRANCH  24  25
ENDBRANCH   1  24
BRANCH  13  32
ATOM     32  O   UNK d   1      44.467 102.728  34.325  0.00  0.00    -0.394 OA
ATOM     33  H   UNK d   1      43.988 103.260  35.006  0.00  0.00     0.210 HD
ENDBRANCH  13  32
TORSDOF 6
ENDMDL
