/Users/jonathanwahrer/Desktop/Msc/3_Semester/Drug_Design_Praktikum/waehrer_HTS_screening/HTS_experiment/out/docking_results/vina_output/3npc/2375_docked.pdbqt
 OpenBabel03192221143D

 37 40  0  0  1  0  0  0  0  0999 V2000
   53.7750   84.7230   23.7160 C   0  0  0  0  0  0  0  0  0  0  0  0
   54.1570   84.1030   24.9510 C   0  0  0  0  0  1  0  0  0  0  0  0
   52.5100   84.2330   23.0250 C   0  0  0  0  0  0  0  0  0  0  0  0
   52.5660   83.7600   21.6920 N   0  0  0  0  0  0  0  0  0  0  0  0
   51.4660   83.5990   20.7990 C   0  0  0  0  0  3  0  0  0  0  0  0
   53.8030   83.0880   21.2480 C   0  0  0  0  0  2  0  0  0  0  0  0
   51.7700   83.8240   19.3390 C   0  0  0  0  0  3  0  0  0  0  0  0
   53.1770   84.0170   18.9610 C   0  0  1  0  0  0  0  0  0  0  0  0
   54.2130   83.4710   19.9130 C   0  0  0  0  0  2  0  0  0  0  0  0
   51.4510   84.2530   23.6480 O   0  0  0  0  0  0  0  0  0  0  0  0
   53.5350   83.4480   17.6410 C   0  0  0  0  0  0  0  0  0  0  0  0
   53.1080   82.1510   17.3960 C   0  0  0  0  0  3  0  0  0  0  0  0
   53.3570   81.5090   16.1740 C   0  0  0  0  0  3  0  0  0  0  0  0
   54.0370   82.1710   15.1780 C   0  0  0  0  0  0  0  0  0  0  0  0
   54.3440   81.3800   13.6140 Cl  0  0  0  0  0  0  0  0  0  0  0  0
   54.4610   83.4660   15.4210 C   0  0  0  0  0  3  0  0  0  0  0  0
   54.2060   84.0770   16.6430 C   0  0  0  0  0  3  0  0  0  0  0  0
   53.3930   85.4250   18.8660 O   0  0  0  0  0  0  0  0  0  0  0  0
   52.5580   85.9180   18.9270 H   0  0  0  0  0  0  0  0  0  0  0  0
   53.9400   86.1360   23.4720 N   0  0  0  0  0  4  0  0  0  0  0  0
   54.9310   86.7020   22.6710 C   0  0  0  0  0  0  0  0  0  0  0  0
   55.7660   85.7060   22.2060 O   0  0  0  0  0  0  0  0  0  0  0  0
   55.3180   87.9400   22.1820 C   0  0  0  0  0  2  0  0  0  0  0  0
   53.2290   86.7010   24.0480 H   0  0  0  0  0  0  0  0  0  0  0  0
   55.0800   89.2070   22.0160 C   0  0  1  0  0  3  0  0  0  0  0  0
   55.3960   90.1430   23.1030 N   0  0  0  0  0  0  0  0  0  0  0  0
   55.2650   91.5120   22.9870 N   0  0  0  0  0  0  0  0  0  0  0  0
   55.7400   89.7000   23.9980 H   0  0  0  0  0  0  0  0  0  0  0  0
   54.8180   92.1140   21.8210 C   0  0  0  0  0  0  0  0  0  0  0  0
   55.5110   92.1260   23.8120 H   0  0  0  0  0  0  0  0  0  0  0  0
   54.6780   93.3540   21.6730 O   0  0  0  0  0  0  0  0  0  0  0  0
   54.4730   91.2500   20.6660 C   0  0  0  0  0  0  0  0  0  0  0  0
   54.6220   89.8930   20.8230 C   0  0  0  0  0  0  0  0  0  0  0  0
   54.1050   91.8530   19.4880 C   0  0  0  0  0  3  0  0  0  0  0  0
   54.3820   89.1280   19.6770 C   0  0  0  0  0  3  0  0  0  0  0  0
   54.0090   89.7210   18.4790 C   0  0  0  0  0  3  0  0  0  0  0  0
   53.8640   91.0800   18.3720 C   0  0  0  0  0  3  0  0  0  0  0  0
  1  2  1  0  0  0  0
  3 10  2  0  0  0  0
  3  1  1  0  0  0  0
  4  3  1  0  0  0  0
  5  4  1  0  0  0  0
  6  4  1  0  0  0  0
  7  5  2  0  0  0  0
  8 18  1  6  0  0  0
  8  7  1  0  0  0  0
  8  9  1  0  0  0  0
  9  6  1  0  0  0  0
 11  8  1  0  0  0  0
 12 11  1  0  0  0  0
 13 12  2  0  0  0  0
 14 16  2  0  0  0  0
 14 13  1  0  0  0  0
 15 14  1  0  0  0  0
 16 17  1  0  0  0  0
 17 11  2  0  0  0  0
 18 19  1  0  0  0  0
 20  1  2  3  0  0  0
 20 24  1  0  0  0  0
 21 20  1  0  0  0  0
 22 21  2  0  0  0  0
 23 21  1  0  0  0  0
 25 23  1  6  0  0  0
 25 26  1  0  0  0  0
 26 28  1  0  0  0  0
 27 26  1  0  0  0  0
 27 30  1  0  0  0  0
 29 27  1  0  0  0  0
 31 29  2  0  0  0  0
 32 33  1  0  0  0  0
 32 29  1  0  0  0  0
 33 25  1  0  0  0  0
 34 32  2  0  0  0  0
 35 33  2  0  0  0  0
 36 35  1  0  0  0  0
 37 36  2  0  0  0  0
 37 34  1  0  0  0  0
M  END
>  <Pose>
1

>  <Score>
-9.870

$$$$
