MODEL 1
REMARK VINA RESULT:    -9.870      0.000      0.000
REMARK INTER + INTRA:         -13.854
REMARK INTER:                 -12.466
REMARK INTRA:                  -1.387
REMARK UNBOUND:                -1.387
REMARK  5 active torsions:
REMARK  status: ('A' for Active; 'I' for Inactive)
REMARK    1  A    between atoms: C_5  and  C_8 
REMARK    2  A    between atoms: C_8  and  O_33 
REMARK       I    between atoms: N_11  and  C_14 
REMARK    3  A    between atoms: C_14  and  C_16 
REMARK    4  A    between atoms: C_16  and  N_17 
REMARK       I    between atoms: N_17  and  C_18 
REMARK    5  A    between atoms: C_20  and  C_21 
ROOT
ATOM      1  C   UNK d   1      53.775  84.723  23.716  0.00  0.00     0.172 C 
ATOM      2  C   UNK d   1      54.157  84.103  24.951  0.00  0.00     0.042 C 
ENDROOT
BRANCH   1   3
ATOM      3  C   UNK d   1      52.510  84.233  23.025  0.00  0.00     0.242 C 
ATOM      4  N   UNK d   1      52.566  83.760  21.692  0.00  0.00    -0.350 N 
ATOM      5  C   UNK d   1      51.466  83.599  20.799  0.00  0.00     0.129 C 
ATOM      6  C   UNK d   1      53.803  83.088  21.248  0.00  0.00     0.129 C 
ATOM      7  C   UNK d   1      51.770  83.824  19.339  0.00  0.00     0.062 C 
ATOM      8  C   UNK d   1      53.177  84.017  18.961  0.00  0.00     0.088 C 
ATOM      9  C   UNK d   1      54.213  83.471  19.913  0.00  0.00     0.062 C 
ATOM     10  O   UNK d   1      51.451  84.253  23.648  0.00  0.00    -0.271 OA
BRANCH   8  11
ATOM     11  C   UNK d   1      53.535  83.448  17.641  0.00  0.00    -0.024 A 
ATOM     12  C   UNK d   1      53.108  82.151  17.396  0.00  0.00     0.012 A 
ATOM     13  C   UNK d   1      53.357  81.509  16.174  0.00  0.00     0.024 A 
ATOM     14  C   UNK d   1      54.037  82.171  15.178  0.00  0.00     0.034 A 
ATOM     15 Cl   UNK d   1      54.344  81.380  13.614  0.00  0.00    -0.084 Cl
ATOM     16  C   UNK d   1      54.461  83.466  15.421  0.00  0.00     0.024 A 
ATOM     17  C   UNK d   1      54.206  84.077  16.643  0.00  0.00     0.012 A 
ENDBRANCH   8  11
BRANCH   8  18
ATOM     18  O   UNK d   1      53.393  85.425  18.866  0.00  0.00    -0.385 OA
ATOM     19  H   UNK d   1      52.558  85.918  18.927  0.00  0.00     0.211 HD
ENDBRANCH   8  18
ENDBRANCH   1   3
BRANCH   1  20
ATOM     20  N   UNK d   1      53.940  86.136  23.472  0.00  0.00    -0.356 N 
ATOM     21  C   UNK d   1      54.931  86.702  22.671  0.00  0.00     0.177 C 
ATOM     22  O   UNK d   1      55.766  85.706  22.206  0.00  0.00    -0.172 OA
ATOM     23  C   UNK d   1      55.318  87.940  22.182  0.00  0.00     0.090 C 
ATOM     24  H   UNK d   1      53.229  86.701  24.048  0.00  0.00     0.162 HD
BRANCH  23  25
ATOM     25  C   UNK d   1      55.080  89.207  22.016  0.00  0.00     0.063 A 
ATOM     26  N   UNK d   1      55.396  90.143  23.103  0.00  0.00    -0.297 N 
ATOM     27  N   UNK d   1      55.265  91.512  22.987  0.00  0.00    -0.265 N 
ATOM     28  H   UNK d   1      55.740  89.700  23.998  0.00  0.00     0.187 HD
ATOM     29  C   UNK d   1      54.818  92.114  21.821  0.00  0.00     0.271 A 
ATOM     30  H   UNK d   1      55.511  92.126  23.812  0.00  0.00     0.190 HD
ATOM     31  O   UNK d   1      54.678  93.354  21.673  0.00  0.00    -0.266 OA
ATOM     32  C   UNK d   1      54.473  91.250  20.666  0.00  0.00     0.046 A 
ATOM     33  C   UNK d   1      54.622  89.893  20.823  0.00  0.00     0.008 A 
ATOM     34  C   UNK d   1      54.105  91.853  19.488  0.00  0.00     0.018 A 
ATOM     35  C   UNK d   1      54.382  89.128  19.677  0.00  0.00     0.015 A 
ATOM     36  C   UNK d   1      54.009  89.721  18.479  0.00  0.00     0.001 A 
ATOM     37  C   UNK d   1      53.864  91.080  18.372  0.00  0.00     0.001 A 
ENDBRANCH  23  25
ENDBRANCH   1  20
TORSDOF 5
ENDMDL
