/Users/jonathanwahrer/Desktop/Msc/3_Semester/Drug_Design_Praktikum/waehrer_HTS_screening/HTS_experiment/out/docking_results/vina_output/3npc/2377_docked.pdbqt
 OpenBabel03192221143D

 33 36  0  0  0  0  0  0  0  0999 V2000
   55.7060   87.5730   23.7310 N   0  0  0  0  0  0  0  0  0  0  0  0
   55.1630   88.0270   25.0080 C   0  0  0  0  0  2  0  0  0  0  0  0
   54.3760   86.9420   25.7080 C   0  0  0  0  0  2  0  0  0  0  0  0
   54.7500   85.6760   25.1240 N   0  0  0  0  0  0  0  0  0  0  0  0
   56.1710   85.4790   24.9020 C   0  0  0  0  0  2  0  0  0  0  0  0
   56.5630   86.3790   23.7300 C   0  0  0  0  0  2  0  0  0  0  0  0
   53.8340   84.6620   24.7760 C   0  0  0  0  0  0  0  0  0  0  0  0
   54.2650   83.6000   24.2750 O   0  0  0  0  0  0  0  0  0  0  0  0
   55.3750   88.2500   22.5420 C   0  0  0  0  0  0  0  0  0  0  0  0
   54.6740   87.6760   21.5030 C   0  0  0  0  0  0  0  0  0  0  0  0
   54.2260   85.9950   21.6450 Cl  0  0  0  0  0  0  0  0  0  0  0  0
   54.3480   88.4160   20.3640 C   0  0  0  0  0  0  0  0  0  0  0  0
   54.6900   89.7020   20.2130 N   0  0  0  0  0  0  0  0  0  0  0  0
   53.7080   87.8250   19.4580 O   0  0  0  0  0  0  0  0  0  0  0  0
   55.3590   90.2430   21.2090 N   0  0  0  0  0  0  0  0  0  0  0  0
   55.7090   89.5960   22.3370 C   0  0  0  0  0  3  0  0  0  0  0  0
   54.3610   90.4620   19.0540 C   0  0  0  0  0  0  0  0  0  0  0  0
   53.1320   91.0870   18.9070 C   0  0  0  0  0  3  0  0  0  0  0  0
   52.7980   91.8270   17.7910 C   0  0  0  0  0  3  0  0  0  0  0  0
   53.7320   91.9440   16.7830 C   0  0  0  0  0  3  0  0  0  0  0  0
   54.9670   91.3320   16.8970 C   0  0  0  0  0  3  0  0  0  0  0  0
   55.2760   90.5880   18.0410 C   0  0  0  0  0  3  0  0  0  0  0  0
   52.3690   84.7840   24.9710 C   0  0  0  0  0  2  0  0  0  0  0  0
   51.9540   84.1980   26.3000 C   0  0  0  0  0  2  0  0  0  0  0  0
   51.3860   85.2290   27.2290 C   0  0  0  0  0  2  0  0  0  0  0  0
   51.2700   84.7840   28.6000 N   0  0  0  0  0  0  0  0  0  0  0  0
   50.0980   84.2890   29.2220 C   0  0  0  0  0  0  0  0  0  0  0  0
   48.9500   84.1540   28.6800 O   0  0  0  0  0  0  0  0  0  0  0  0
   50.3390   83.9400   30.5680 N   0  0  0  0  0  0  0  0  0  0  0  0
   51.7250   84.2230   30.8680 C   0  0  0  0  0  2  0  0  0  0  0  0
   49.3760   83.3910   31.5010 C   0  0  0  0  0  1  0  0  0  0  0  0
   52.2910   84.7430   29.6040 C   0  0  0  0  0  0  0  0  0  0  0  0
   53.4760   85.0970   29.4270 O   0  0  0  0  0  0  0  0  0  0  0  0
  1  2  1  0  0  0  0
  2  3  1  0  0  0  0
  4  3  1  0  0  0  0
  5  4  1  0  0  0  0
  6  1  1  0  0  0  0
  6  5  1  0  0  0  0
  7 23  1  0  0  0  0
  7  4  1  0  0  0  0
  8  7  2  0  0  0  0
  9  1  1  0  0  0  0
 10 11  1  0  0  0  0
 10  9  2  0  0  0  0
 12 10  1  0  0  0  0
 13 12  1  0  0  0  0
 13 15  1  0  0  0  0
 14 12  2  0  0  0  0
 15 16  2  0  0  0  0
 16  9  1  0  0  0  0
 17 13  1  0  0  0  0
 18 17  1  0  0  0  0
 19 18  2  0  0  0  0
 20 21  2  0  0  0  0
 20 19  1  0  0  0  0
 21 22  1  0  0  0  0
 22 17  2  0  0  0  0
 23 24  1  0  0  0  0
 24 25  1  0  0  0  0
 25 26  1  0  0  0  0
 26 27  1  0  0  0  0
 26 32  1  0  0  0  0
 27 29  1  0  0  0  0
 28 27  2  0  0  0  0
 29 30  1  0  0  0  0
 29 31  1  0  0  0  0
 32 30  1  0  0  0  0
 33 32  2  0  0  0  0
M  END
>  <Pose>
1

>  <Score>
-9.057

$$$$
