MODEL 1
REMARK VINA RESULT:    -9.057      0.000      0.000
REMARK INTER + INTRA:         -13.043
REMARK INTER:                 -12.234
REMARK INTRA:                  -0.809
REMARK UNBOUND:                -0.809
REMARK  6 active torsions:
REMARK  status: ('A' for Active; 'I' for Inactive)
REMARK    1  A    between atoms: C_3  and  N_15 
REMARK    2  A    between atoms: N_6  and  C_9 
REMARK       I    between atoms: N_18  and  C_21 
REMARK    3  A    between atoms: C_21  and  C_23 
REMARK    4  A    between atoms: C_23  and  C_24 
REMARK    5  A    between atoms: C_24  and  C_25 
REMARK    6  A    between atoms: C_25  and  N_26 
ROOT
ATOM      1  N   UNK d   1      55.706  87.573  23.731  0.00  0.00    -0.375 N 
ATOM      2  C   UNK d   1      55.163  88.027  25.008  0.00  0.00     0.143 C 
ATOM      3  C   UNK d   1      54.376  86.942  25.708  0.00  0.00     0.145 C 
ATOM      4  N   UNK d   1      54.750  85.676  25.124  0.00  0.00    -0.349 N 
ATOM      5  C   UNK d   1      56.171  85.479  24.902  0.00  0.00     0.145 C 
ATOM      6  C   UNK d   1      56.563  86.379  23.730  0.00  0.00     0.143 C 
ATOM      7  C   UNK d   1      53.834  84.662  24.776  0.00  0.00     0.219 C 
ATOM      8  O   UNK d   1      54.265  83.600  24.275  0.00  0.00    -0.273 OA
ENDROOT
BRANCH   1   9
ATOM      9  C   UNK d   1      55.375  88.250  22.542  0.00  0.00     0.077 A 
ATOM     10  C   UNK d   1      54.674  87.676  21.503  0.00  0.00     0.131 A 
ATOM     11 Cl   UNK d   1      54.226  85.995  21.645  0.00  0.00    -0.076 Cl
ATOM     12  C   UNK d   1      54.348  88.416  20.364  0.00  0.00     0.292 A 
ATOM     13  N   UNK d   1      54.690  89.702  20.213  0.00  0.00    -0.197 N 
ATOM     14  O   UNK d   1      53.708  87.825  19.458  0.00  0.00    -0.264 OA
ATOM     15  N   UNK d   1      55.359  90.243  21.209  0.00  0.00    -0.174 NA
ATOM     16  C   UNK d   1      55.709  89.596  22.337  0.00  0.00     0.170 A 
BRANCH  13  17
ATOM     17  C   UNK d   1      54.361  90.462  19.054  0.00  0.00     0.062 A 
ATOM     18  C   UNK d   1      53.132  91.087  18.907  0.00  0.00     0.032 A 
ATOM     19  C   UNK d   1      52.798  91.827  17.791  0.00  0.00     0.002 A 
ATOM     20  C   UNK d   1      53.732  91.944  16.783  0.00  0.00     0.000 A 
ATOM     21  C   UNK d   1      54.967  91.332  16.897  0.00  0.00     0.002 A 
ATOM     22  C   UNK d   1      55.276  90.588  18.041  0.00  0.00     0.032 A 
ENDBRANCH  13  17
ENDBRANCH   1   9
BRANCH   7  23
ATOM     23  C   UNK d   1      52.369  84.784  24.971  0.00  0.00     0.104 C 
BRANCH  23  24
ATOM     24  C   UNK d   1      51.954  84.198  26.300  0.00  0.00     0.029 C 
BRANCH  24  25
ATOM     25  C   UNK d   1      51.386  85.229  27.229  0.00  0.00     0.137 C 
BRANCH  25  26
ATOM     26  N   UNK d   1      51.270  84.784  28.600  0.00  0.00    -0.269 N 
ATOM     27  C   UNK d   1      50.098  84.289  29.222  0.00  0.00     0.327 A 
ATOM     28  O   UNK d   1      48.950  84.154  28.680  0.00  0.00    -0.247 OA
ATOM     29  N   UNK d   1      50.339  83.940  30.568  0.00  0.00    -0.329 N 
ATOM     30  C   UNK d   1      51.725  84.223  30.868  0.00  0.00     0.230 A 
ATOM     31  C   UNK d   1      49.376  83.391  31.501  0.00  0.00     0.155 C 
ATOM     32  C   UNK d   1      52.291  84.743  29.604  0.00  0.00     0.245 A 
ATOM     33  O   UNK d   1      53.476  85.097  29.427  0.00  0.00    -0.271 OA
ENDBRANCH  25  26
ENDBRANCH  24  25
ENDBRANCH  23  24
ENDBRANCH   7  23
TORSDOF 6
ENDMDL
