MODEL 1
REMARK VINA RESULT:    -8.163      0.000      0.000
REMARK INTER + INTRA:         -10.175
REMARK INTER:                  -9.595
REMARK INTRA:                  -0.580
REMARK UNBOUND:                -0.580
REMARK  3 active torsions:
REMARK  status: ('A' for Active; 'I' for Inactive)
REMARK    1  A    between atoms: C_3  and  N_15 
REMARK    2  A    between atoms: N_6  and  C_9 
REMARK       I    between atoms: N_18  and  C_21 
REMARK    3  A    between atoms: C_21  and  C_23 
ROOT
ATOM      1 Cl   UNK d   1      54.460  86.206  22.028  0.00  0.00    -0.076 Cl
ATOM      2  C   UNK d   1      53.607  86.617  20.543  0.00  0.00     0.131 A 
ATOM      3  C   UNK d   1      52.732  85.689  20.032  0.00  0.00     0.077 A 
ATOM      4  C   UNK d   1      52.078  86.042  18.862  0.00  0.00     0.170 A 
ATOM      5  N   UNK d   1      52.315  87.237  18.291  0.00  0.00    -0.174 NA
ATOM      6  N   UNK d   1      53.154  88.138  18.773  0.00  0.00    -0.197 N 
ATOM      7  C   UNK d   1      53.806  87.827  19.907  0.00  0.00     0.292 A 
ATOM      8  O   UNK d   1      54.623  88.639  20.427  0.00  0.00    -0.264 OA
ENDROOT
BRANCH   3   9
ATOM      9  N   UNK d   1      52.544  84.458  20.696  0.00  0.00    -0.375 N 
ATOM     10  C   UNK d   1      51.277  84.116  21.332  0.00  0.00     0.143 C 
ATOM     11  C   UNK d   1      51.586  84.094  22.842  0.00  0.00     0.145 C 
ATOM     12  N   UNK d   1      52.705  83.245  23.107  0.00  0.00    -0.347 N 
ATOM     13  C   UNK d   1      53.268  82.498  21.962  0.00  0.00     0.145 C 
ATOM     14  C   UNK d   1      53.286  83.087  24.393  0.00  0.00     0.248 C 
ATOM     15  C   UNK d   1      53.567  83.435  20.809  0.00  0.00     0.143 C 
ATOM     16  O   UNK d   1      54.279  82.322  24.581  0.00  0.00    -0.270 OA
BRANCH  14  17
ATOM     17  C   UNK d   1      52.784  83.791  25.587  0.00  0.00     0.213 C 
ATOM     18  O   UNK d   1      53.067  83.095  26.722  0.00  0.00    -0.376 OA
ATOM     19  C   UNK d   1      53.261  84.004  27.755  0.00  0.00     0.168 C 
ATOM     20  C   UNK d   1      54.098  85.066  27.057  0.00  0.00     0.029 C 
ATOM     21  C   UNK d   1      53.378  85.174  25.729  0.00  0.00     0.043 C 
ENDBRANCH  14  17
ENDBRANCH   3   9
BRANCH   6  22
ATOM     22  C   UNK d   1      53.364  89.397  18.116  0.00  0.00     0.062 A 
ATOM     23  C   UNK d   1      54.223  89.485  17.040  0.00  0.00     0.032 A 
ATOM     24  C   UNK d   1      54.436  90.704  16.391  0.00  0.00     0.002 A 
ATOM     25  C   UNK d   1      53.792  91.838  16.817  0.00  0.00     0.000 A 
ATOM     26  C   UNK d   1      52.936  91.765  17.886  0.00  0.00     0.002 A 
ATOM     27  C   UNK d   1      52.736  90.560  18.513  0.00  0.00     0.032 A 
ENDBRANCH   6  22
TORSDOF 3
ENDMDL
