/Users/jonathanwahrer/Desktop/Msc/3_Semester/Drug_Design_Praktikum/waehrer_HTS_screening/HTS_experiment/out/docking_results/vina_output/3npc/2380_docked.pdbqt
 OpenBabel03192221153D

 27 30  0  0  1  0  0  0  0  0999 V2000
   54.4600   86.2060   22.0280 Cl  0  0  0  0  0  0  0  0  0  0  0  0
   53.6070   86.6170   20.5430 C   0  0  0  0  0  0  0  0  0  0  0  0
   52.7320   85.6890   20.0320 C   0  0  0  0  0  0  0  0  0  0  0  0
   52.0780   86.0420   18.8620 C   0  0  0  0  0  3  0  0  0  0  0  0
   52.3150   87.2370   18.2910 N   0  0  0  0  0  0  0  0  0  0  0  0
   53.1540   88.1380   18.7730 N   0  0  0  0  0  0  0  0  0  0  0  0
   53.8060   87.8270   19.9070 C   0  0  0  0  0  0  0  0  0  0  0  0
   54.6230   88.6390   20.4270 O   0  0  0  0  0  0  0  0  0  0  0  0
   52.5440   84.4580   20.6960 N   0  0  0  0  0  0  0  0  0  0  0  0
   51.2770   84.1160   21.3320 C   0  0  0  0  0  2  0  0  0  0  0  0
   51.5860   84.0940   22.8420 C   0  0  0  0  0  2  0  0  0  0  0  0
   52.7050   83.2450   23.1070 N   0  0  0  0  0  0  0  0  0  0  0  0
   53.2680   82.4980   21.9620 C   0  0  0  0  0  2  0  0  0  0  0  0
   53.2860   83.0870   24.3930 C   0  0  0  0  0  0  0  0  0  0  0  0
   53.5670   83.4350   20.8090 C   0  0  0  0  0  2  0  0  0  0  0  0
   54.2790   82.3220   24.5810 O   0  0  0  0  0  0  0  0  0  0  0  0
   52.7840   83.7910   25.5870 C   0  0  1  0  0  3  0  0  0  0  0  0
   53.0670   83.0950   26.7220 O   0  0  0  0  0  0  0  0  0  0  0  0
   53.2610   84.0040   27.7550 C   0  0  0  0  0  2  0  0  0  0  0  0
   54.0980   85.0660   27.0570 C   0  0  0  0  0  2  0  0  0  0  0  0
   53.3780   85.1740   25.7290 C   0  0  0  0  0  2  0  0  0  0  0  0
   53.3640   89.3970   18.1160 C   0  0  0  0  0  0  0  0  0  0  0  0
   54.2230   89.4850   17.0400 C   0  0  0  0  0  3  0  0  0  0  0  0
   54.4360   90.7040   16.3910 C   0  0  0  0  0  3  0  0  0  0  0  0
   53.7920   91.8380   16.8170 C   0  0  0  0  0  3  0  0  0  0  0  0
   52.9360   91.7650   17.8860 C   0  0  0  0  0  3  0  0  0  0  0  0
   52.7360   90.5600   18.5130 C   0  0  0  0  0  3  0  0  0  0  0  0
  2  1  1  0  0  0  0
  3  2  2  0  0  0  0
  3  9  1  0  0  0  0
  4  3  1  0  0  0  0
  5  6  1  0  0  0  0
  5  4  2  0  0  0  0
  6  7  1  0  0  0  0
  7  8  2  0  0  0  0
  7  2  1  0  0  0  0
  9 15  1  0  0  0  0
  9 10  1  0  0  0  0
 10 11  1  0  0  0  0
 11 12  1  0  0  0  0
 12 14  1  0  0  0  0
 13 12  1  0  0  0  0
 14 16  2  0  0  0  0
 15 13  1  0  0  0  0
 17 14  1  6  0  0  0
 17 21  1  0  0  0  0
 17 18  1  0  0  0  0
 18 19  1  0  0  0  0
 20 19  1  0  0  0  0
 21 20  1  0  0  0  0
 22 27  1  0  0  0  0
 22  6  1  0  0  0  0
 23 22  2  0  0  0  0
 24 25  2  0  0  0  0
 24 23  1  0  0  0  0
 25 26  1  0  0  0  0
 26 27  2  0  0  0  0
M  END
>  <Pose>
1

>  <Score>
-8.163

$$$$
