MODEL 1
REMARK VINA RESULT:    -8.286      0.000      0.000
REMARK INTER + INTRA:         -11.770
REMARK INTER:                 -10.708
REMARK INTRA:                  -1.062
REMARK UNBOUND:                -1.062
REMARK  5 active torsions:
REMARK  status: ('A' for Active; 'I' for Inactive)
REMARK    1  A    between atoms: C_3  and  N_15 
REMARK    2  A    between atoms: N_6  and  C_9 
REMARK       I    between atoms: N_18  and  C_21 
REMARK    3  A    between atoms: C_21  and  C_23 
REMARK    4  A    between atoms: C_23  and  O_24 
REMARK    5  A    between atoms: O_24  and  C_25 
ROOT
ATOM      1  N   UNK d   1      55.662  87.540  23.703  0.00  0.00    -0.375 N 
ATOM      2  C   UNK d   1      57.041  87.225  23.954  0.00  0.00     0.143 C 
ATOM      3  C   UNK d   1      57.195  85.839  24.538  0.00  0.00     0.145 C 
ATOM      4  N   UNK d   1      56.089  85.487  25.393  0.00  0.00    -0.347 N 
ATOM      5  C   UNK d   1      55.183  86.527  25.816  0.00  0.00     0.145 C 
ATOM      6  C   UNK d   1      54.579  87.141  24.579  0.00  0.00     0.143 C 
ATOM      7  C   UNK d   1      55.904  84.143  25.804  0.00  0.00     0.244 C 
ATOM      8  O   UNK d   1      56.699  83.221  25.433  0.00  0.00    -0.271 OA
ENDROOT
BRANCH   1   9
ATOM      9  C   UNK d   1      55.338  88.285  22.528  0.00  0.00     0.077 A 
ATOM     10  C   UNK d   1      54.677  87.723  21.454  0.00  0.00     0.131 A 
ATOM     11 Cl   UNK d   1      54.212  86.039  21.531  0.00  0.00    -0.076 Cl
ATOM     12  C   UNK d   1      54.399  88.512  20.349  0.00  0.00     0.292 A 
ATOM     13  N   UNK d   1      54.742  89.810  20.262  0.00  0.00    -0.197 N 
ATOM     14  O   UNK d   1      53.802  88.010  19.373  0.00  0.00    -0.264 OA
ATOM     15  N   UNK d   1      55.375  90.332  21.300  0.00  0.00    -0.174 NA
ATOM     16  C   UNK d   1      55.675  89.621  22.403  0.00  0.00     0.170 A 
BRANCH  13  17
ATOM     17  C   UNK d   1      54.429  90.573  19.093  0.00  0.00     0.062 A 
ATOM     18  C   UNK d   1      53.293  91.354  19.043  0.00  0.00     0.032 A 
ATOM     19  C   UNK d   1      52.983  92.093  17.919  0.00  0.00     0.002 A 
ATOM     20  C   UNK d   1      53.788  92.087  16.799  0.00  0.00     0.000 A 
ATOM     21  C   UNK d   1      54.926  91.309  16.844  0.00  0.00     0.002 A 
ATOM     22  C   UNK d   1      55.230  90.573  17.967  0.00  0.00     0.032 A 
ENDBRANCH  13  17
ENDBRANCH   1   9
BRANCH   7  23
ATOM     23  C   UNK d   1      54.780  83.727  26.684  0.00  0.00     0.280 C 
BRANCH  23  24
ATOM     24  O   UNK d   1      53.858  82.915  26.010  0.00  0.00    -0.324 OA
BRANCH  24  25
ATOM     25  C   UNK d   1      52.935  83.469  25.144  0.00  0.00     0.194 A 
ATOM     26  N   UNK d   1      52.032  84.433  25.356  0.00  0.00    -0.103 NA
ATOM     27  O   UNK d   1      51.356  84.661  24.278  0.00  0.00    -0.216 OA
ATOM     28  C   UNK d   1      51.751  83.884  23.290  0.00  0.00     0.079 A 
ATOM     29  C   UNK d   1      52.764  83.108  23.816  0.00  0.00     0.094 A 
ATOM     30  C   UNK d   1      51.165  83.917  21.938  0.00  0.00     0.079 C 
ENDBRANCH  24  25
ENDBRANCH  23  24
ENDBRANCH   7  23
TORSDOF 5
ENDMDL
