/Users/jonathanwahrer/Desktop/Msc/3_Semester/Drug_Design_Praktikum/waehrer_HTS_screening/HTS_experiment/out/docking_results/vina_output/3npc/2386_docked.pdbqt
 OpenBabel03192221153D

 30 33  0  0  0  0  0  0  0  0999 V2000
   51.9870   81.9560   22.3360 Cl  0  0  0  0  0  0  0  0  0  0  0  0
   52.8630   83.4380   22.7070 C   0  0  0  0  0  0  0  0  0  0  0  0
   53.4740   84.0970   21.6430 C   0  0  0  0  0  3  0  0  0  0  0  0
   54.1630   85.2570   21.9160 C   0  0  0  0  0  0  0  0  0  0  0  0
   54.2350   85.7400   23.2160 C   0  0  0  0  0  0  0  0  0  0  0  0
   53.6220   85.0760   24.2720 C   0  0  0  0  0  3  0  0  0  0  0  0
   52.9310   83.9100   23.9960 C   0  0  0  0  0  3  0  0  0  0  0  0
   54.9070   86.8970   23.5710 O   0  0  0  0  0  0  0  0  0  0  0  0
   56.0160   87.5110   22.9750 C   0  0  0  0  0  0  0  0  0  0  0  0
   55.8460   87.9420   21.5640 C   0  0  0  0  0  2  0  0  0  0  0  0
   54.8420   87.2720   20.8040 N   0  0  0  0  0  0  0  0  0  0  0  0
   54.7400   85.8130   20.6630 C   0  0  0  0  0  2  0  0  0  0  0  0
   53.8660   88.0480   20.1200 C   0  0  0  0  0  0  0  0  0  0  0  0
   53.9570   89.2920   20.2250 O   0  0  0  0  0  0  0  0  0  0  0  0
   56.3920   88.7400   23.8240 C   0  0  0  0  0  2  0  0  0  0  0  0
   56.4770   88.2620   25.2490 C   0  0  0  0  0  2  0  0  0  0  0  0
   56.3430   86.8890   25.3590 O   0  0  0  0  0  0  0  0  0  0  0  0
   57.2750   86.1980   24.6050 C   0  0  0  0  0  2  0  0  0  0  0  0
   57.2320   86.5850   23.1420 C   0  0  0  0  0  2  0  0  0  0  0  0
   52.8060   87.4470   19.3250 C   0  0  0  0  0  2  0  0  0  0  0  0
   51.6690   88.2940   18.9210 C   0  0  0  0  0  2  0  0  0  0  0  0
   51.7390   89.0700   17.6730 C   0  0  0  0  0  2  0  0  0  0  0  0
   52.4050   90.3180   17.6410 N   0  0  0  0  0  0  0  0  0  0  0  0
   51.9240   91.5250   18.2040 C   0  0  0  0  0  0  0  0  0  0  0  0
   50.8440   91.7260   18.8350 O   0  0  0  0  0  0  0  0  0  0  0  0
   52.8920   92.5250   17.9380 N   0  0  0  0  0  0  0  0  0  0  0  0
   54.1400   91.8750   17.5430 C   0  0  0  0  0  2  0  0  0  0  0  0
   52.7770   93.5560   18.0010 H   0  0  0  0  0  0  0  0  0  0  0  0
   53.6570   90.5740   17.0340 C   0  0  0  0  0  0  0  0  0  0  0  0
   54.2820   89.8330   16.1930 O   0  0  0  0  0  0  0  0  0  0  0  0
  1  2  1  0  0  0  0
  2  7  1  0  0  0  0
  3  4  1  0  0  0  0
  3  2  2  0  0  0  0
  4  5  2  0  0  0  0
  5  8  1  0  0  0  0
  5  6  1  0  0  0  0
  7  6  2  0  0  0  0
  9 19  1  0  0  0  0
  9  8  1  0  0  0  0
  9 15  1  0  0  0  0
 10  9  1  0  0  0  0
 11 10  1  0  0  0  0
 12 11  1  0  0  0  0
 12  4  1  0  0  0  0
 13 14  2  0  0  0  0
 13 11  1  0  0  0  0
 15 16  1  0  0  0  0
 16 17  1  0  0  0  0
 18 17  1  0  0  0  0
 19 18  1  0  0  0  0
 20 13  1  0  0  0  0
 21 20  1  0  0  0  0
 22 21  1  0  0  0  0
 23 22  1  0  0  0  0
 23 24  1  0  0  0  0
 24 25  2  0  0  0  0
 26 28  1  0  0  0  0
 26 24  1  0  0  0  0
 27 26  1  0  0  0  0
 29 27  1  0  0  0  0
 29 23  1  0  0  0  0
 30 29  2  0  0  0  0
M  END
>  <Pose>
1

>  <Score>
-8.692

$$$$
