MODEL 1
REMARK VINA RESULT:    -8.692      0.000      0.000
REMARK INTER + INTRA:         -11.318
REMARK INTER:                 -10.724
REMARK INTRA:                  -0.594
REMARK UNBOUND:                -0.594
REMARK  4 active torsions:
REMARK  status: ('A' for Active; 'I' for Inactive)
REMARK       I    between atoms: N_11  and  C_13 
REMARK    1  A    between atoms: C_13  and  C_15 
REMARK    2  A    between atoms: C_15  and  C_16 
REMARK    3  A    between atoms: C_16  and  C_17 
REMARK    4  A    between atoms: C_17  and  N_18 
ROOT
ATOM      1 Cl   UNK d   1      51.987  81.956  22.336  0.00  0.00    -0.084 Cl
ATOM      2  C   UNK d   1      52.863  83.438  22.707  0.00  0.00     0.034 A 
ATOM      3  C   UNK d   1      53.474  84.097  21.643  0.00  0.00     0.035 A 
ATOM      4  C   UNK d   1      54.163  85.257  21.916  0.00  0.00    -0.005 A 
ATOM      5  C   UNK d   1      54.235  85.740  23.216  0.00  0.00     0.078 A 
ATOM      6  C   UNK d   1      53.622  85.076  24.272  0.00  0.00     0.039 A 
ATOM      7  C   UNK d   1      52.931  83.910  23.996  0.00  0.00     0.026 A 
ATOM      8  O   UNK d   1      54.907  86.897  23.571  0.00  0.00    -0.338 OA
ATOM      9  C   UNK d   1      56.016  87.511  22.975  0.00  0.00     0.088 C 
ATOM     10  C   UNK d   1      55.846  87.942  21.564  0.00  0.00     0.164 C 
ATOM     11  N   UNK d   1      54.842  87.272  20.804  0.00  0.00    -0.345 N 
ATOM     12  C   UNK d   1      54.740  85.813  20.663  0.00  0.00     0.167 C 
ATOM     13  C   UNK d   1      53.866  88.048  20.120  0.00  0.00     0.220 C 
ATOM     14  O   UNK d   1      53.957  89.292  20.225  0.00  0.00    -0.273 OA
ATOM     15  C   UNK d   1      56.392  88.740  23.824  0.00  0.00     0.066 C 
ATOM     16  C   UNK d   1      56.477  88.262  25.249  0.00  0.00     0.170 C 
ATOM     17  O   UNK d   1      56.343  86.889  25.359  0.00  0.00    -0.391 OA
ATOM     18  C   UNK d   1      57.275  86.198  24.605  0.00  0.00     0.170 C 
ATOM     19  C   UNK d   1      57.232  86.585  23.142  0.00  0.00     0.066 C 
ENDROOT
BRANCH  13  20
ATOM     20  C   UNK d   1      52.806  87.447  19.325  0.00  0.00     0.104 C 
BRANCH  20  21
ATOM     21  C   UNK d   1      51.669  88.294  18.921  0.00  0.00     0.029 C 
BRANCH  21  22
ATOM     22  C   UNK d   1      51.739  89.070  17.673  0.00  0.00     0.137 C 
BRANCH  22  23
ATOM     23  N   UNK d   1      52.405  90.318  17.641  0.00  0.00    -0.269 N 
ATOM     24  C   UNK d   1      51.924  91.525  18.204  0.00  0.00     0.325 C 
ATOM     25  O   UNK d   1      50.844  91.726  18.835  0.00  0.00    -0.247 OA
ATOM     26  N   UNK d   1      52.892  92.525  17.938  0.00  0.00    -0.334 N 
ATOM     27  C   UNK d   1      54.140  91.875  17.543  0.00  0.00     0.227 C 
ATOM     28  H   UNK d   1      52.777  93.556  18.001  0.00  0.00     0.164 HD
ATOM     29  C   UNK d   1      53.657  90.574  17.034  0.00  0.00     0.245 C 
ATOM     30  O   UNK d   1      54.282  89.833  16.193  0.00  0.00    -0.271 OA
ENDBRANCH  22  23
ENDBRANCH  21  22
ENDBRANCH  20  21
ENDBRANCH  13  20
TORSDOF 4
ENDMDL
