MODEL 1
REMARK VINA RESULT:    -7.725      0.000      0.000
REMARK INTER + INTRA:         -11.303
REMARK INTER:                 -10.434
REMARK INTRA:                  -0.869
REMARK UNBOUND:                -0.869
REMARK  6 active torsions:
REMARK  status: ('A' for Active; 'I' for Inactive)
REMARK    1  A    between atoms: C_5  and  C_8 
REMARK    2  A    between atoms: N_9  and  C_28 
REMARK    3  A    between atoms: C_15  and  C_17 
REMARK    4  A    between atoms: C_25  and  O_26 
REMARK    5  A    between atoms: C_28  and  C_29 
REMARK    6  A    between atoms: C_29  and  N_30 
ROOT
ATOM      1  C   UNK d   1      54.148  85.421  20.684  0.00  0.00     0.161 C 
ATOM      2  N   UNK d   1      53.813  84.249  19.933  0.00  0.00    -0.331 N 
ATOM      3  C   UNK d   1      52.988  83.383  20.697  0.00  0.00     0.295 C 
ATOM      4  O   UNK d   1      52.342  82.362  20.359  0.00  0.00    -0.264 OA
ATOM      5  C   UNK d   1      52.975  83.873  22.095  0.00  0.00     0.251 C 
ATOM      6  O   UNK d   1      52.357  83.368  23.065  0.00  0.00    -0.282 OA
ATOM      7  C   UNK d   1      53.824  85.049  22.089  0.00  0.00     0.064 C 
ATOM      8  C   UNK d   1      54.206  85.675  23.209  0.00  0.00     0.153 C 
ATOM      9  O   UNK d   1      54.997  86.811  22.994  0.00  0.00    -0.188 OA
ENDROOT
BRANCH   1  10
ATOM     10  C   UNK d   1      53.535  86.653  20.216  0.00  0.00    -0.030 A 
ATOM     11  C   UNK d   1      54.280  87.817  20.194  0.00  0.00     0.011 A 
ATOM     12  C   UNK d   1      53.800  89.020  19.769  0.00  0.00     0.019 A 
ATOM     13  C   UNK d   1      52.510  89.115  19.333  0.00  0.00     0.011 A 
ATOM     14 Br   UNK d   1      51.885  90.824  18.747  0.00  0.00    -0.051 Br
ATOM     15  C   UNK d   1      51.717  87.992  19.330  0.00  0.00     0.019 A 
ATOM     16  C   UNK d   1      52.237  86.777  19.771  0.00  0.00     0.011 A 
ENDBRANCH   1  10
BRANCH   8  17
ATOM     17  C   UNK d   1      53.842  85.224  24.547  0.00  0.00     0.114 A 
ATOM     18  O   UNK d   1      52.799  85.464  25.265  0.00  0.00    -0.304 OA
ATOM     19  C   UNK d   1      52.800  84.894  26.432  0.00  0.00     0.119 A 
ATOM     20  C   UNK d   1      53.978  84.170  26.545  0.00  0.00     0.003 A 
ATOM     21  C   UNK d   1      51.912  84.878  27.493  0.00  0.00     0.102 A 
ATOM     22  C   UNK d   1      54.625  84.398  25.329  0.00  0.00     0.054 A 
ATOM     23  C   UNK d   1      54.237  83.463  27.695  0.00  0.00     0.014 A 
ATOM     24  C   UNK d   1      53.340  83.462  28.739  0.00  0.00     0.004 A 
ATOM     25  C   UNK d   1      52.158  84.183  28.635  0.00  0.00     0.040 A 
BRANCH  21  26
ATOM     26  O   UNK d   1      50.747  85.604  27.358  0.00  0.00    -0.353 OA
ATOM     27  C   UNK d   1      49.809  85.827  28.402  0.00  0.00     0.210 C 
ENDBRANCH  21  26
ENDBRANCH   8  17
BRANCH   2  28
ATOM     28  C   UNK d   1      54.234  83.955  18.590  0.00  0.00     0.155 C 
BRANCH  28  29
ATOM     29  C   UNK d   1      53.128  84.228  17.587  0.00  0.00     0.254 C 
BRANCH  29  30
ATOM     30  N   UNK d   1      53.148  83.354  16.465  0.00  0.00    -0.077 N 
ATOM     31  C   UNK d   1      54.216  83.555  15.533  0.00  0.00     0.269 C 
ATOM     32  C   UNK d   1      53.092  81.961  16.888  0.00  0.00     0.269 C 
ATOM     33  H   UNK d   1      52.249  83.521  15.921  0.00  0.00     0.279 HD
ENDBRANCH  29  30
ENDBRANCH  28  29
ENDBRANCH   2  28
TORSDOF 6
ENDMDL
