MODEL 1
REMARK VINA RESULT:    -8.873      0.000      0.000
REMARK INTER + INTRA:         -10.260
REMARK INTER:                  -9.910
REMARK INTRA:                  -0.350
REMARK UNBOUND:                -0.350
REMARK  2 active torsions:
REMARK  status: ('A' for Active; 'I' for Inactive)
REMARK    1  A    between atoms: C_7  and  C_11 
REMARK    2  A    between atoms: C_11  and  N_12 
ROOT
ATOM      1  N   UNK d   1      55.995  87.346  23.233  0.00  0.00    -0.328 N 
ATOM      2  C   UNK d   1      55.081  86.405  23.508  0.00  0.00     0.151 A 
ATOM      3  C   UNK d   1      54.881  86.293  24.880  0.00  0.00     0.167 A 
ATOM      4  N   UNK d   1      55.714  87.207  25.432  0.00  0.00    -0.223 NA
ATOM      5  C   UNK d   1      56.378  87.834  24.457  0.00  0.00     0.213 A 
ATOM      6  N   UNK d   1      54.018  85.420  25.438  0.00  0.00    -0.286 N 
ATOM      7  C   UNK d   1      53.333  84.632  24.588  0.00  0.00     0.332 A 
ATOM      8  O   UNK d   1      52.521  83.809  25.093  0.00  0.00    -0.246 OA
ATOM      9  N   UNK d   1      53.489  84.699  23.258  0.00  0.00    -0.269 N 
ATOM     10  C   UNK d   1      54.351  85.572  22.696  0.00  0.00     0.282 A 
ATOM     11  O   UNK d   1      54.511  85.648  21.462  0.00  0.00    -0.265 OA
ATOM     12  C   UNK d   1      52.748  83.847  22.344  0.00  0.00     0.164 C 
ATOM     13  C   UNK d   1      53.856  85.353  26.878  0.00  0.00     0.163 C 
ENDROOT
BRANCH   1  14
ATOM     14  C   UNK d   1      56.501  87.820  21.960  0.00  0.00     0.189 C 
BRANCH  14  15
ATOM     15  C   UNK d   1      55.592  88.834  21.328  0.00  0.00     0.060 A 
ATOM     16  N   UNK d   1      54.665  88.415  20.448  0.00  0.00    -0.233 NA
ATOM     17  C   UNK d   1      53.809  89.296  19.853  0.00  0.00     0.137 A 
ATOM     18  N   UNK d   1      53.869  90.607  20.130  0.00  0.00    -0.272 N 
ATOM     19  C   UNK d   1      52.873  88.812  18.954  0.00  0.00     0.052 A 
ATOM     20  C   UNK d   1      53.023  91.479  19.542  0.00  0.00     0.121 A 
ATOM     21  C   UNK d   1      54.787  91.095  21.015  0.00  0.00     0.255 A 
ATOM     22  C   UNK d   1      52.096  91.009  18.652  0.00  0.00     0.027 A 
ATOM     23 Br   UNK d   1      50.916  92.265  17.839  0.00  0.00    -0.050 Br
ATOM     24  C   UNK d   1      51.999  89.673  18.339  0.00  0.00     0.024 A 
ATOM     25  C   UNK d   1      55.636  90.179  21.598  0.00  0.00     0.103 A 
ATOM     26  O   UNK d   1      54.808  92.314  21.242  0.00  0.00    -0.268 OA
ENDBRANCH  14  15
ENDBRANCH   1  14
TORSDOF 2
ENDMDL
