MODEL 1
REMARK VINA RESULT:    -8.843      0.000      0.000
REMARK INTER + INTRA:         -12.363
REMARK INTER:                 -10.911
REMARK INTRA:                  -1.452
REMARK UNBOUND:                -1.452
REMARK  4 active torsions:
REMARK  status: ('A' for Active; 'I' for Inactive)
REMARK    1  A    between atoms: S_1  and  N_4 
REMARK    2  A    between atoms: S_1  and  C_26 
REMARK       I    between atoms: N_7  and  C_10 
REMARK    3  A    between atoms: C_10  and  C_12 
REMARK    4  A    between atoms: C_12  and  C_13 
ROOT
ATOM      1  N   UNK d   1      53.068  83.078  26.008  0.00  0.00    -0.304 N 
ATOM      2  C   UNK d   1      53.102  81.697  25.846  0.00  0.00     0.155 C 
ATOM      3  C   UNK d   1      51.901  81.266  24.992  0.00  0.00     0.146 C 
ATOM      4  N   UNK d   1      51.705  82.228  23.907  0.00  0.00    -0.349 N 
ATOM      5  C   UNK d   1      51.494  83.606  24.305  0.00  0.00     0.146 C 
ATOM      6  C   UNK d   1      51.814  83.674  25.805  0.00  0.00     0.155 C 
ATOM      7  C   UNK d   1      51.745  81.800  22.550  0.00  0.00     0.222 C 
ATOM      8  O   UNK d   1      51.956  80.583  22.335  0.00  0.00    -0.273 OA
ENDROOT
BRANCH   7   9
ATOM      9  C   UNK d   1      51.549  82.752  21.458  0.00  0.00     0.138 C 
BRANCH   9  10
ATOM     10  C   UNK d   1      52.779  82.963  20.588  0.00  0.00     0.186 C 
ATOM     11  N   UNK d   1      53.761  83.832  21.180  0.00  0.00    -0.343 N 
ATOM     12  C   UNK d   1      54.200  85.143  20.854  0.00  0.00     0.254 C 
ATOM     13  H   UNK d   1      54.287  83.462  22.033  0.00  0.00     0.163 HD
ATOM     14  O   UNK d   1      55.324  85.549  21.251  0.00  0.00    -0.268 OA
ATOM     15  C   UNK d   1      53.469  86.156  20.062  0.00  0.00     0.058 A 
ATOM     16  C   UNK d   1      52.482  85.915  19.100  0.00  0.00     0.050 A 
ATOM     17  C   UNK d   1      53.824  87.450  20.343  0.00  0.00     0.019 A 
ATOM     18  C   UNK d   1      51.896  86.969  18.459  0.00  0.00     0.030 A 
ATOM     19  N   UNK d   1      52.003  84.640  18.700  0.00  0.00    -0.324 N 
ATOM     20  C   UNK d   1      52.238  88.297  18.725  0.00  0.00     0.002 A 
ATOM     21  C   UNK d   1      53.224  88.504  19.690  0.00  0.00     0.001 A 
ATOM     22  C   UNK d   1      52.353  83.357  19.228  0.00  0.00     0.245 C 
ATOM     23  H   UNK d   1      51.322  84.654  17.941  0.00  0.00     0.169 HD
ATOM     24  O   UNK d   1      52.271  82.430  18.347  0.00  0.00    -0.271 OA
ENDBRANCH   9  10
ENDBRANCH   7   9
BRANCH   1  25
ATOM     25  S   UNK d   1      54.319  83.920  26.697  0.00  0.00     0.260 S 
ATOM     26  O   UNK d   1      53.815  84.605  27.954  0.00  0.00    -0.200 OA
ATOM     27  O   UNK d   1      55.476  83.052  27.147  0.00  0.00    -0.200 OA
BRANCH  25  28
ATOM     28  C   UNK d   1      54.978  85.196  25.668  0.00  0.00     0.079 A 
ATOM     29  C   UNK d   1      54.188  86.214  25.186  0.00  0.00     0.027 A 
ATOM     30  C   UNK d   1      54.746  87.184  24.383  0.00  0.00     0.025 A 
ATOM     31  C   UNK d   1      56.082  87.195  24.026  0.00  0.00     0.034 A 
ATOM     32  C   UNK d   1      56.878  86.167  24.514  0.00  0.00     0.025 A 
ATOM     33 Cl   UNK d   1      56.793  88.412  23.018  0.00  0.00    -0.084 Cl
ATOM     34  C   UNK d   1      56.315  85.200  25.316  0.00  0.00     0.027 A 
ENDBRANCH  25  28
ENDBRANCH   1  25
TORSDOF 4
ENDMDL
