/Users/jonathanwahrer/Desktop/Msc/3_Semester/Drug_Design_Praktikum/waehrer_HTS_screening/HTS_experiment/out/docking_results/vina_output/3npc/2419_docked.pdbqt
 OpenBabel03192221173D

 32 36  0  0  1  0  0  0  0  0999 V2000
   53.8710   84.5130   19.6530 C   0  0  0  0  0  0  0  0  0  0  0  0
   54.5290   83.3880   19.1290 C   0  0  0  0  0  3  0  0  0  0  0  0
   54.1750   83.3000   17.8530 N   0  0  0  0  0  0  0  0  0  0  0  0
   54.4020   82.4970   16.7680 C   0  0  0  0  0  0  0  0  0  0  0  0
   53.6590   83.0430   15.7520 C   0  0  0  0  0  0  0  0  0  0  0  0
   53.0400   84.1060   16.2420 N   0  0  0  0  0  0  0  0  0  0  0  0
   53.3550   84.2800   17.5580 C   0  0  1  0  0  3  0  0  0  0  0  0
   53.1490   85.0540   18.6650 N   0  0  0  0  0  0  0  0  0  0  0  0
   53.6460   82.4770   14.4740 C   0  0  0  0  0  3  0  0  0  0  0  0
   54.3940   81.3470   14.2210 C   0  0  0  0  0  3  0  0  0  0  0  0
   55.1310   80.8190   15.2570 C   0  0  0  0  0  3  0  0  0  0  0  0
   55.1480   81.3760   16.5300 C   0  0  0  0  0  3  0  0  0  0  0  0
   52.4010   84.6960   15.6770 H   0  0  0  0  0  0  0  0  0  0  0  0
   52.2790   86.1890   18.6270 C   0  0  0  0  0  2  0  0  0  0  0  0
   52.9040   87.5230   18.5520 C   0  0  0  0  0  2  0  0  0  0  0  0
   52.1470   88.7000   19.0500 C   0  0  0  0  0  2  0  0  0  0  0  0
   52.8180   89.9450   18.7470 N   0  0  0  0  0  4  0  0  0  0  0  0
   53.1510   90.0600   17.7930 H   0  0  0  0  0  0  0  0  0  0  0  0
   52.0520   90.7070   18.8420 H   0  0  0  0  0  0  0  0  0  0  0  0
   53.8100   90.3040   19.7180 C   0  0  0  0  0  3  0  0  0  0  0  0
   55.2270   89.9960   19.3230 C   0  0  0  0  0  2  0  0  0  0  0  0
   56.0390   89.9860   20.6270 C   0  0  0  0  0  2  0  0  0  0  0  0
   55.9750   91.3440   21.2350 C   0  0  0  0  0  2  0  0  0  0  0  0
   54.5690   91.8670   21.4130 C   0  0  0  0  0  2  0  0  0  0  0  0
   53.7910   91.7800   20.0950 C   0  0  0  0  0  2  0  0  0  0  0  0
   54.0000   84.9240   21.0340 C   0  0  0  0  0  0  0  0  0  0  0  0
   54.8470   85.9710   21.3350 C   0  0  0  0  0  3  0  0  0  0  0  0
   55.0150   86.4230   22.6130 C   0  0  0  0  0  3  0  0  0  0  0  0
   54.3510   85.8580   23.6580 C   0  0  0  0  0  0  0  0  0  0  0  0
   54.5830   86.4900   25.4620 Br  0  0  0  0  0  0  0  0  0  0  0  0
   53.5020   84.8180   23.4020 C   0  0  0  0  0  3  0  0  0  0  0  0
   53.3390   84.3610   22.0720 C   0  0  0  0  0  3  0  0  0  0  0  0
  1 26  1  0  0  0  0
  2  1  2  0  0  0  0
  3  2  1  0  0  0  0
  4  3  1  0  0  0  0
  5  6  1  0  0  0  0
  5  4  2  0  0  0  0
  7  6  1  1  0  0  0
  7  3  1  0  0  0  0
  7  8  1  0  0  0  0
  8  1  1  0  0  0  0
  9  5  1  0  0  0  0
 10  9  2  0  0  0  0
 10 11  1  0  0  0  0
 11 12  2  0  0  0  0
 12  4  1  0  0  0  0
 13  6  1  0  0  0  0
 14  8  1  0  0  0  0
 15 14  1  0  0  0  0
 15 16  1  0  0  0  0
 17 19  1  0  0  0  0
 17 16  1  0  0  0  0
 17 20  1  0  0  0  0
 18 17  1  0  0  0  0
 20 25  1  0  0  0  0
 21 20  1  0  0  0  0
 21 22  1  0  0  0  0
 22 23  1  0  0  0  0
 23 24  1  0  0  0  0
 25 24  1  0  0  0  0
 26 27  2  0  0  0  0
 26 32  1  0  0  0  0
 27 28  1  0  0  0  0
 28 29  2  0  0  0  0
 29 30  1  0  0  0  0
 31 29  1  0  0  0  0
 32 31  2  0  0  0  0
M  END
>  <Pose>
1

>  <Score>
-8.846

$$$$
