MODEL 1
REMARK VINA RESULT:    -9.020      0.000      0.000
REMARK INTER + INTRA:         -12.741
REMARK INTER:                 -11.656
REMARK INTRA:                  -1.084
REMARK UNBOUND:                -1.084
REMARK  5 active torsions:
REMARK  status: ('A' for Active; 'I' for Inactive)
REMARK    1  A    between atoms: C_7  and  N_11 
REMARK    2  A    between atoms: C_13  and  C_17 
REMARK       I    between atoms: C_17  and  N_19 
REMARK    3  A    between atoms: N_19  and  C_20 
REMARK    4  A    between atoms: C_20  and  C_21 
REMARK    5  A    between atoms: C_21  and  N_22 
ROOT
ATOM      1  N   UNK d   1      55.811  87.398  22.583  0.00  0.00    -0.299 N 
ATOM      2  C   UNK d   1      55.683  87.989  23.914  0.00  0.00     0.148 C 
ATOM      3  C   UNK d   1      56.240  86.913  24.818  0.00  0.00     0.105 C 
ATOM      4  C   UNK d   1      57.468  86.447  24.045  0.00  0.00     0.119 C 
ATOM      5  C   UNK d   1      57.070  86.719  22.619  0.00  0.00     0.226 C 
ATOM      6  O   UNK d   1      57.743  86.399  21.594  0.00  0.00    -0.273 OA
ENDROOT
BRANCH   3   7
ATOM      7  C   UNK d   1      55.287  85.791  24.994  0.00  0.00     0.223 C 
ATOM      8  O   UNK d   1      55.751  84.655  25.261  0.00  0.00    -0.273 OA
ATOM      9  N   UNK d   1      53.888  85.953  24.872  0.00  0.00    -0.359 N 
ATOM     10  H   UNK d   1      53.536  86.918  24.646  0.00  0.00     0.162 HD
BRANCH   9  11
ATOM     11  C   UNK d   1      52.957  84.868  25.042  0.00  0.00     0.152 C 
BRANCH  11  12
ATOM     12  C   UNK d   1      52.673  84.230  23.699  0.00  0.00     0.292 C 
BRANCH  12  13
ATOM     13  N   UNK d   1      51.263  84.125  23.413  0.00  0.00     0.094 N 
ATOM     14  C   UNK d   1      51.116  84.038  21.965  0.00  0.00     0.298 C 
ATOM     15  C   UNK d   1      51.300  82.596  21.499  0.00  0.00     0.198 C 
ATOM     16  O   UNK d   1      50.285  81.770  21.921  0.00  0.00    -0.388 OA
ATOM     17  C   UNK d   1      49.675  82.318  23.025  0.00  0.00     0.198 C 
ATOM     18  C   UNK d   1      50.673  82.935  23.984  0.00  0.00     0.298 C 
ENDBRANCH  12  13
ENDBRANCH  11  12
ENDBRANCH   9  11
ENDBRANCH   3   7
BRANCH   1  19
ATOM     19  C   UNK d   1      54.887  87.489  21.511  0.00  0.00     0.165 A 
ATOM     20  N   UNK d   1      53.887  86.672  21.155  0.00  0.00    -0.155 NA
ATOM     21  N   UNK d   1      53.271  87.136  20.078  0.00  0.00    -0.275 N 
ATOM     22  C   UNK d   1      53.861  88.300  19.683  0.00  0.00     0.065 A 
ATOM     23  H   UNK d   1      52.456  86.752  19.539  0.00  0.00     0.189 HD
ATOM     24  C   UNK d   1      53.658  89.192  18.672  0.00  0.00     0.051 A 
ATOM     25  C   UNK d   1      54.875  88.522  20.582  0.00  0.00     0.040 A 
ATOM     26  C   UNK d   1      54.445  90.312  18.528  0.00  0.00     0.013 A 
ATOM     27 Br   UNK d   1      54.142  91.542  17.108  0.00  0.00    -0.051 Br
ATOM     28  C   UNK d   1      55.478  90.544  19.439  0.00  0.00     0.020 A 
ATOM     29  C   UNK d   1      55.685  89.645  20.461  0.00  0.00     0.019 A 
ENDBRANCH   1  19
TORSDOF 5
ENDMDL
