MODEL 1
REMARK VINA RESULT:    -8.351      0.000      0.000
REMARK INTER + INTRA:         -10.168
REMARK INTER:                  -9.327
REMARK INTRA:                  -0.841
REMARK UNBOUND:                -0.841
REMARK  2 active torsions:
REMARK  status: ('A' for Active; 'I' for Inactive)
REMARK    1  A    between atoms: C_4  and  C_8 
REMARK       I    between atoms: C_8  and  N_10 
REMARK    2  A    between atoms: N_13  and  C_16 
ROOT
ATOM      1  C   UNK d   1      56.815  87.572  21.959  0.00  0.00     0.204 C 
ATOM      2  O   UNK d   1      57.457  86.587  21.359  0.00  0.00    -0.170 OA
ATOM      3  N   UNK d   1      56.988  87.692  23.329  0.00  0.00    -0.355 N 
ATOM      4  C   UNK d   1      57.836  86.685  24.010  0.00  0.00     0.145 C 
ATOM      5  C   UNK d   1      56.942  85.992  25.003  0.00  0.00     0.144 C 
ATOM      6  N   UNK d   1      55.636  86.559  25.128  0.00  0.00    -0.362 N 
ATOM      7  C   UNK d   1      55.337  87.973  24.957  0.00  0.00     0.144 C 
ATOM      8  C   UNK d   1      56.474  88.664  24.221  0.00  0.00     0.145 C 
ENDROOT
BRANCH   1   9
ATOM      9  C   UNK d   1      56.034  88.355  21.037  0.00  0.00     0.089 A 
ATOM     10  N   UNK d   1      56.389  89.317  20.184  0.00  0.00    -0.342 N 
ATOM     11  C   UNK d   1      55.323  89.786  19.477  0.00  0.00     0.126 A 
ATOM     12  H   UNK d   1      57.323  89.738  20.011  0.00  0.00     0.167 HD
ATOM     13 Cl   UNK d   1      55.297  91.037  18.253  0.00  0.00    -0.063 Cl
ATOM     14  C   UNK d   1      54.209  89.102  19.881  0.00  0.00     0.074 A 
ATOM     15  C   UNK d   1      54.653  88.224  20.840  0.00  0.00     0.061 A 
ATOM     16 Cl   UNK d   1      52.577  89.318  19.286  0.00  0.00    -0.081 Cl
ENDBRANCH   1   9
BRANCH   6  17
ATOM     17  C   UNK d   1      54.529  85.721  25.435  0.00  0.00     0.142 A 
ATOM     18  N   UNK d   1      54.174  85.478  26.711  0.00  0.00    -0.224 NA
ATOM     19  C   UNK d   1      53.124  84.681  27.022  0.00  0.00     0.237 A 
ATOM     20  N   UNK d   1      52.398  84.104  26.049  0.00  0.00    -0.222 NA
ATOM     21  C   UNK d   1      52.687  84.296  24.753  0.00  0.00     0.162 A 
ATOM     22  N   UNK d   1      52.130  83.846  23.613  0.00  0.00    -0.256 N 
ATOM     23  C   UNK d   1      53.775  85.122  24.449  0.00  0.00     0.076 A 
ATOM     24  N   UNK d   1      52.824  84.356  22.615  0.00  0.00    -0.182 NA
ATOM     25  C   UNK d   1      50.975  82.960  23.470  0.00  0.00     0.182 C 
ATOM     26  C   UNK d   1      53.829  85.134  23.080  0.00  0.00     0.158 A 
ENDBRANCH   6  17
TORSDOF 2
ENDMDL
