/Users/jonathanwahrer/Desktop/Msc/3_Semester/Drug_Design_Praktikum/waehrer_HTS_screening/HTS_experiment/out/docking_results/vina_output/3npc/2432_docked.pdbqt
 OpenBabel03192221173D

 26 29  0  0  0  0  0  0  0  0999 V2000
   56.8150   87.5720   21.9590 C   0  0  0  0  0  0  0  0  0  0  0  0
   57.4570   86.5870   21.3590 O   0  0  0  0  0  0  0  0  0  0  0  0
   56.9880   87.6920   23.3290 N   0  0  0  0  0  0  0  0  0  0  0  0
   57.8360   86.6850   24.0100 C   0  0  0  0  0  2  0  0  0  0  0  0
   56.9420   85.9920   25.0030 C   0  0  0  0  0  2  0  0  0  0  0  0
   55.6360   86.5590   25.1280 N   0  0  0  0  0  0  0  0  0  0  0  0
   55.3370   87.9730   24.9570 C   0  0  0  0  0  2  0  0  0  0  0  0
   56.4740   88.6640   24.2210 C   0  0  0  0  0  2  0  0  0  0  0  0
   56.0340   88.3550   21.0370 C   0  0  0  0  0  0  0  0  0  0  0  0
   56.3890   89.3170   20.1840 N   0  0  0  0  0  0  0  0  0  0  0  0
   55.3230   89.7860   19.4770 C   0  0  0  0  0  0  0  0  0  0  0  0
   57.3230   89.7380   20.0110 H   0  0  0  0  0  0  0  0  0  0  0  0
   55.2970   91.0370   18.2530 Cl  0  0  0  0  0  0  0  0  0  0  0  0
   54.2090   89.1020   19.8810 C   0  0  0  0  0  0  0  0  0  0  0  0
   54.6530   88.2240   20.8400 C   0  0  0  0  0  3  0  0  0  0  0  0
   52.5770   89.3180   19.2860 Cl  0  0  0  0  0  0  0  0  0  0  0  0
   54.5290   85.7210   25.4350 C   0  0  0  0  0  0  0  0  0  0  0  0
   54.1740   85.4780   26.7110 N   0  0  0  0  0  0  0  0  0  0  0  0
   53.1240   84.6810   27.0220 C   0  0  0  0  0  3  0  0  0  0  0  0
   52.3980   84.1040   26.0490 N   0  0  0  0  0  0  0  0  0  0  0  0
   52.6870   84.2960   24.7530 C   0  0  0  0  0  0  0  0  0  0  0  0
   52.1300   83.8460   23.6130 N   0  0  0  0  0  0  0  0  0  0  0  0
   53.7750   85.1220   24.4490 C   0  0  0  0  0  0  0  0  0  0  0  0
   52.8240   84.3560   22.6150 N   0  0  0  0  0  0  0  0  0  0  0  0
   50.9750   82.9600   23.4700 C   0  0  0  0  0  1  0  0  0  0  0  0
   53.8290   85.1340   23.0800 C   0  0  0  0  0  3  0  0  0  0  0  0
  1  3  1  0  0  0  0
  2  1  2  0  0  0  0
  3  4  1  0  0  0  0
  3  8  1  0  0  0  0
  4  5  1  0  0  0  0
  5  6  1  0  0  0  0
  6 17  1  0  0  0  0
  7  6  1  0  0  0  0
  8  7  1  0  0  0  0
  9  1  1  0  0  0  0
 10  9  1  0  0  0  0
 11 14  2  0  0  0  0
 11 10  1  0  0  0  0
 12 10  1  0  0  0  0
 13 11  1  0  0  0  0
 14 15  1  0  0  0  0
 15  9  2  0  0  0  0
 16 14  1  0  0  0  0
 17 18  1  0  0  0  0
 18 19  2  0  0  0  0
 20 19  1  0  0  0  0
 21 20  2  0  0  0  0
 22 21  1  0  0  0  0
 23 21  1  0  0  0  0
 23 17  2  0  0  0  0
 24 26  2  0  0  0  0
 24 22  1  0  0  0  0
 25 22  1  0  0  0  0
 26 23  1  0  0  0  0
M  END
>  <Pose>
1

>  <Score>
-8.351

$$$$
