MODEL 1
REMARK VINA RESULT:    -8.725      0.000      0.000
REMARK INTER + INTRA:         -12.322
REMARK INTER:                 -11.275
REMARK INTRA:                  -1.048
REMARK UNBOUND:                -1.048
REMARK  5 active torsions:
REMARK  status: ('A' for Active; 'I' for Inactive)
REMARK    1  A    between atoms: C_5  and  C_8 
REMARK    2  A    between atoms: N_15  and  C_16 
REMARK    3  A    between atoms: C_16  and  C_17 
REMARK    4  A    between atoms: C_17  and  C_18 
REMARK    5  A    between atoms: C_18  and  N_19 
ROOT
ATOM      1  C   UNK d   1      53.795  84.512  19.762  0.00  0.00     0.078 A 
ATOM      2  C   UNK d   1      54.481  83.407  19.227  0.00  0.00     0.146 A 
ATOM      3  N   UNK d   1      54.176  83.290  17.936  0.00  0.00    -0.153 N 
ATOM      4  C   UNK d   1      54.415  82.529  16.837  0.00  0.00     0.083 A 
ATOM      5  C   UNK d   1      53.689  83.064  15.828  0.00  0.00     0.077 A 
ATOM      6  N   UNK d   1      53.035  84.122  16.330  0.00  0.00    -0.189 N 
ATOM      7  C   UNK d   1      53.328  84.276  17.640  0.00  0.00     0.692 A 
ATOM      8  N   UNK d   1      53.084  85.040  18.756  0.00  0.00    -0.180 N 
ATOM      9  C   UNK d   1      53.722  82.505  14.563  0.00  0.00     0.032 A 
ATOM     10  C   UNK d   1      54.498  81.387  14.304  0.00  0.00     0.002 A 
ATOM     11  C   UNK d   1      55.243  80.839  15.338  0.00  0.00     0.002 A 
ATOM     12  C   UNK d   1      55.187  81.421  16.585  0.00  0.00     0.033 A 
ATOM     13  H   UNK d   1      52.376  84.744  15.792  0.00  0.00     0.184 HD
ENDROOT
BRANCH   8  14
ATOM     14  C   UNK d   1      52.200  86.158  18.775  0.00  0.00     0.149 C 
BRANCH  14  15
ATOM     15  C   UNK d   1      52.860  87.507  18.899  0.00  0.00     0.048 C 
BRANCH  15  16
ATOM     16  C   UNK d   1      52.004  88.635  19.268  0.00  0.00     0.236 C 
BRANCH  16  17
ATOM     17  N   UNK d   1      52.035  89.836  18.485  0.00  0.00    -0.071 N 
ATOM     18  C   UNK d   1      52.085  91.033  19.306  0.00  0.00     0.235 C 
ATOM     19  C   UNK d   1      53.422  91.501  19.694  0.00  0.00     0.028 C 
ATOM     20  C   UNK d   1      54.577  90.878  19.002  0.00  0.00     0.003 C 
ATOM     21  C   UNK d   1      54.239  90.531  17.596  0.00  0.00     0.028 C 
ATOM     22  C   UNK d   1      52.948  89.828  17.399  0.00  0.00     0.235 C 
ATOM     23  H   UNK d   1      51.078  89.899  18.069  0.00  0.00     0.279 HD
ENDBRANCH  16  17
ENDBRANCH  15  16
ENDBRANCH  14  15
ENDBRANCH   8  14
BRANCH   1  24
ATOM     24  C   UNK d   1      53.915  84.883  21.176  0.00  0.00    -0.007 A 
ATOM     25  C   UNK d   1      54.807  85.898  21.520  0.00  0.00     0.015 A 
ATOM     26  C   UNK d   1      55.000  86.344  22.813  0.00  0.00     0.020 A 
ATOM     27  C   UNK d   1      54.298  85.789  23.842  0.00  0.00     0.011 A 
ATOM     28 Br   UNK d   1      54.527  86.367  25.634  0.00  0.00    -0.051 Br
ATOM     29  C   UNK d   1      53.414  84.791  23.538  0.00  0.00     0.020 A 
ATOM     30  C   UNK d   1      53.221  84.337  22.211  0.00  0.00     0.015 A 
ENDBRANCH   1  24
TORSDOF 5
ENDMDL
