MODEL 1
REMARK VINA RESULT:    -6.765      0.000      0.000
REMARK INTER + INTRA:         -10.241
REMARK INTER:                  -9.137
REMARK INTRA:                  -1.103
REMARK UNBOUND:                -1.103
REMARK  6 active torsions:
REMARK  status: ('A' for Active; 'I' for Inactive)
REMARK    1  A    between atoms: C_10  and  C_22 
REMARK    2  A    between atoms: N_15  and  C_18 
REMARK    3  A    between atoms: C_18  and  C_19 
REMARK    4  A    between atoms: C_19  and  C_20 
REMARK    5  A    between atoms: C_22  and  C_23 
REMARK    6  A    between atoms: C_23  and  C_24 
REMARK       I    between atoms: C_24  and  N_26 
ROOT
ATOM      1 Cl   UNK d   1      55.239  86.224  21.222  0.00  0.00    -0.082 Cl
ATOM      2  C   UNK d   1      55.038  86.444  22.957  0.00  0.00     0.061 A 
ATOM      3  C   UNK d   1      54.052  85.673  23.591  0.00  0.00     0.066 A 
ATOM      4  C   UNK d   1      53.900  85.846  24.939  0.00  0.00     0.008 A 
ATOM      5  C   UNK d   1      54.698  86.760  25.659  0.00  0.00     0.012 A 
ATOM      6  C   UNK d   1      55.659  87.509  25.028  0.00  0.00     0.002 A 
ATOM      7  C   UNK d   1      55.808  87.330  23.670  0.00  0.00     0.026 A 
ATOM      8  C   UNK d   1      52.834  84.941  25.392  0.00  0.00     0.151 A 
ATOM      9  N   UNK d   1      51.804  85.568  26.141  0.00  0.00    -0.395 N 
ATOM     10  C   UNK d   1      51.222  84.686  27.054  0.00  0.00     0.092 C 
ATOM     11  C   UNK d   1      52.211  83.548  27.187  0.00  0.00     0.117 C 
ATOM     12  C   UNK d   1      53.395  83.883  26.339  0.00  0.00     0.135 C 
ATOM     13  C   UNK d   1      53.799  82.644  25.622  0.00  0.00     0.234 C 
ATOM     14  O   UNK d   1      54.823  82.552  24.906  0.00  0.00    -0.272 OA
ATOM     15  N   UNK d   1      52.826  81.637  25.905  0.00  0.00    -0.288 N 
ATOM     16  C   UNK d   1      51.734  82.293  26.567  0.00  0.00     0.233 C 
ATOM     17  O   UNK d   1      50.573  81.856  26.602  0.00  0.00    -0.272 OA
ATOM     18  C   UNK d   1      52.360  84.262  24.183  0.00  0.00     0.256 A 
ATOM     19  O   UNK d   1      51.428  83.408  24.061  0.00  0.00    -0.270 OA
ATOM     20  N   UNK d   1      53.132  84.713  23.086  0.00  0.00    -0.323 N 
ATOM     21  H   UNK d   1      51.180  86.201  25.614  0.00  0.00     0.155 HD
ATOM     22  H   UNK d   1      53.075  84.425  22.081  0.00  0.00     0.169 HD
ENDROOT
BRANCH  10  23
ATOM     23  C   UNK d   1      50.744  85.201  28.356  0.00  0.00     0.035 C 
BRANCH  23  24
ATOM     24  C   UNK d   1      49.862  84.342  29.170  0.00  0.00     0.104 C 
BRANCH  24  25
ATOM     25  C   UNK d   1      48.480  84.162  28.713  0.00  0.00     0.215 C 
ATOM     26  O   UNK d   1      47.565  84.871  29.170  0.00  0.00    -0.274 OA
ATOM     27  N   UNK d   1      48.108  83.189  27.739  0.00  0.00    -0.370 N 
ATOM     28  H   UNK d   1      48.388  83.241  26.744  0.00  0.00     0.159 HD
ATOM     29  H   UNK d   1      47.528  82.387  28.038  0.00  0.00     0.159 HD
ENDBRANCH  24  25
ENDBRANCH  23  24
ENDBRANCH  10  23
BRANCH  15  30
ATOM     30  C   UNK d   1      52.893  80.239  25.610  0.00  0.00     0.135 C 
BRANCH  30  31
ATOM     31  C   UNK d   1      53.396  79.880  24.258  0.00  0.00     0.020 C 
BRANCH  31  32
ATOM     32  C   UNK d   1      52.535  80.259  23.105  0.00  0.00    -0.003 C 
ATOM     33  C   UNK d   1      53.284  81.129  22.101  0.00  0.00     0.005 C 
ENDBRANCH  31  32
ENDBRANCH  30  31
ENDBRANCH  15  30
TORSDOF 6
ENDMDL
