# created with PyMOL 2.5.2
@<TRIPOS>MOLECULE
2jam.A
32 34 1                 
SMALL
USER_CHARGES
@<TRIPOS>ATOM
1	   C	13.429	3.742	11.429	C.2	1	UNK0	0.000	
2	   C	12.170	4.028	11.988	C.2	1	UNK0	0.000	
3	   C	12.013	5.407	11.990	C.2	1	UNK0	0.000	
4	   C	13.187	5.915	11.442	C.2	1	UNK0	0.000	
5	   C	11.151	2.999	12.497	C.3	1	UNK0	0.000	
6	   C	13.570	7.379	11.226	C.3	1	UNK0	0.000	
7	   N	14.000	4.915	11.113	N.pl3	1	UNK0	0.000	
8	   H	14.910	5.023	10.688	 H	1	UNK0	0.000	
9	   C	10.818	6.266	12.544	C.2	1	UNK0	0.000	
10	   N	9.881	6.669	11.682	N.pl3	1	UNK0	0.000	
11	   H	9.992	6.427	10.708	 H	1	UNK0	0.000	
12	   O	10.743	6.492	13.747	O.2	1	UNK0	0.000	
13	   C	8.681	7.453	12.079	C.3	1	UNK0	0.000	
14	   C	7.495	6.457	12.140	C.3	1	UNK0	0.000	
15	   N	6.215	7.006	12.673	N.4	1	UNK0	0.000	
16	   H	5.514	6.322	12.426	 H	1	UNK0	0.000	
17	   C	5.846	8.290	12.027	C.3	1	UNK0	0.000	
18	   C	4.887	8.097	10.840	C.3	1	UNK0	0.000	
19	   C	6.171	7.109	14.154	C.3	1	UNK0	0.000	
20	   C	5.024	8.045	14.572	C.3	1	UNK0	0.000	
21	   C	13.919	2.438	11.274	C.3	1	UNK0	0.000	
22	   C	10.943	0.135	8.782	C.2	1	UNK0	0.000	
23	   C	11.481	-0.410	7.601	C.2	1	UNK0	0.000	
24	   C	12.833	-0.216	7.314	C.2	1	UNK0	0.000	
25	   C	11.738	0.870	9.663	C.2	1	UNK0	0.000	
26	   C	13.079	1.068	9.373	C.2	1	UNK0	0.000	
27	   C	13.628	0.528	8.195	C.2	1	UNK0	0.000	
28	   C	14.112	1.742	10.049	C.2	1	UNK0	0.000	
29	   C	15.242	1.581	9.230	C.2	1	UNK0	0.000	
30	   N	14.928	0.866	8.158	N.2	1	UNK0	0.000	
31	   O	16.392	1.998	9.420	O.2	1	UNK0	0.000	
32	  Cl	9.284	-0.117	9.182	Cl	1	UNK0	0.000	
@<TRIPOS>BOND
1 22 23 1
2 22 25 2
3 22 32 1
4 23 24 2
5 24 27 1
6 25 26 1
7 26 27 1
8 26 28 2
9 27 30 2
10 28 29 1
11 21 28 1
12 29 30 1
13 29 31 2
14 1 21 1
15 1 2 2
16 1 7 1
17 2 3 1
18 2 5 1
19 3 4 2
20 3 9 1
21 4 6 1
22 4 7 1
23 9 10 1
24 9 12 2
25 13 14 1
26 10 13 1
27 14 15 1
28 15 17 1
29 17 18 1
30 15 19 1
31 19 20 1
32 7 8 1
33 10 11 1
34 15 16 1
@<TRIPOS>SUBSTRUCTURE
1	UNK0	1	GROUP	1 ****	UNK
