# created with PyMOL 2.5.2
@<TRIPOS>MOLECULE
3e7o.B
30 34 1                 
SMALL
USER_CHARGES
@<TRIPOS>ATOM
1	   C	-42.250	-66.926	53.372	C.2	1	UNK0	0.000	
2	   C	-42.669	-67.619	54.511	C.2	1	UNK0	0.000	
3	   C	-41.944	-68.727	54.969	C.2	1	UNK0	0.000	
4	   C	-41.110	-67.328	52.681	C.2	1	UNK0	0.000	
5	   C	-40.393	-68.422	53.144	C.2	1	UNK0	0.000	
6	   C	-40.803	-69.117	54.272	C.2	1	UNK0	0.000	
7	   N	-39.923	-70.107	54.467	N.pl3	1	UNK0	0.000	
8	   H	-39.952	-70.784	55.217	 H	1	UNK0	0.000	
9	   N	-38.962	-70.045	53.460	N.2	1	UNK0	0.000	
10	   C	-39.248	-69.025	52.639	C.2	1	UNK0	0.000	
11	   C	-38.396	-68.637	51.474	C.2	1	UNK0	0.000	
12	   C	-38.751	-67.451	50.838	C.2	1	UNK0	0.000	
13	   C	-38.061	-66.983	49.725	C.2	1	UNK0	0.000	
14	   C	-36.982	-67.716	49.225	C.2	1	UNK0	0.000	
15	   C	-36.624	-68.914	49.854	C.2	1	UNK0	0.000	
16	   C	-37.328	-69.381	50.969	C.2	1	UNK0	0.000	
17	   N	-38.480	-65.798	49.203	N.pl3	1	UNK0	0.000	
18	   H	-38.269	-64.965	49.734	 H	1	UNK0	0.000	
19	   C	-39.144	-65.630	48.055	C.2	1	UNK0	0.000	
20	   O	-39.447	-66.572	47.352	O.2	1	UNK0	0.000	
21	   C	-39.468	-64.387	47.676	C.2	1	UNK0	0.000	
22	   C	-39.071	-63.242	48.248	C.2	1	UNK0	0.000	
23	   C	-39.571	-62.244	47.638	C.2	1	UNK0	0.000	
24	   C	-40.314	-62.564	46.656	C.2	1	UNK0	0.000	
25	   O	-40.329	-64.016	46.578	O.3	1	UNK0	0.000	
26	   C	-43.027	-65.754	52.882	C.2	1	UNK0	0.000	
27	   N	-42.804	-64.462	53.203	N.2	1	UNK0	0.000	
28	   N	-43.751	-63.690	52.518	N.2	1	UNK0	0.000	
29	   C	-44.519	-64.541	51.806	C.3	1	UNK0	0.000	
30	   N	-44.076	-65.796	52.036	N.2	1	UNK0	0.000	
@<TRIPOS>BOND
1 1 2 2
2 1 4 1
3 1 26 1
4 2 3 1
5 3 6 2
6 4 5 2
7 5 6 1
8 5 10 1
9 6 7 1
10 7 8 1
11 7 9 1
12 9 10 2
13 10 11 1
14 11 12 2
15 11 16 1
16 12 13 1
17 13 14 2
18 13 17 1
19 14 15 1
20 15 16 2
21 17 18 1
22 17 19 1
23 26 27 1
24 26 30 2
25 27 28 2
26 28 29 1
27 29 30 1
28 19 20 2
29 19 21 1
30 21 22 2
31 21 25 1
32 22 23 1
33 23 24 2
34 24 25 1
@<TRIPOS>SUBSTRUCTURE
1	UNK0	1	GROUP	1 ****	UNK
