3e7o.B


 30 34  0  0  0  0  0  0  0  0999 V2000
  -42.2504  -66.9264   53.3724 C   0  0  0  0  0  0  0  0  0  0  0  0
  -42.6688  -67.6192   54.5109 C   0  0  0  0  0  0  0  0  0  0  0  0
  -41.9440  -68.7268   54.9688 C   0  0  0  0  0  0  0  0  0  0  0  0
  -41.1097  -67.3285   52.6806 C   0  0  0  0  0  0  0  0  0  0  0  0
  -40.3934  -68.4222   53.1441 C   0  0  0  0  0  0  0  0  0  0  0  0
  -40.8026  -69.1168   54.2725 C   0  0  0  0  0  0  0  0  0  0  0  0
  -39.9233  -70.1074   54.4675 N   0  0  0  0  0  0  0  0  0  0  0  0
  -39.9516  -70.7842   55.2166 H   0  0  0  0  0  0  0  0  0  0  0  0
  -38.9619  -70.0451   53.4597 N   0  0  0  0  0  0  0  0  0  0  0  0
  -39.2475  -69.0255   52.6385 C   0  0  0  0  0  0  0  0  0  0  0  0
  -38.3958  -68.6368   51.4737 C   0  0  0  0  0  0  0  0  0  0  0  0
  -38.7508  -67.4507   50.8379 C   0  0  0  0  0  0  0  0  0  0  0  0
  -38.0605  -66.9834   49.7254 C   0  0  0  0  0  0  0  0  0  0  0  0
  -36.9817  -67.7162   49.2252 C   0  0  0  0  0  0  0  0  0  0  0  0
  -36.6243  -68.9145   49.8539 C   0  0  0  0  0  0  0  0  0  0  0  0
  -37.3284  -69.3810   50.9687 C   0  0  0  0  0  0  0  0  0  0  0  0
  -38.4801  -65.7978   49.2029 N   0  0  0  0  0  0  0  0  0  0  0  0
  -38.2691  -64.9651   49.7340 H   0  0  0  0  0  0  0  0  0  0  0  0
  -39.1442  -65.6298   48.0554 C   0  0  0  0  0  0  0  0  0  0  0  0
  -39.4473  -66.5721   47.3518 O   0  0  0  0  0  0  0  0  0  0  0  0
  -39.4685  -64.3869   47.6765 C   0  0  0  0  0  0  0  0  0  0  0  0
  -39.0711  -63.2418   48.2479 C   0  0  0  0  0  0  0  0  0  0  0  0
  -39.5710  -62.2442   47.6378 C   0  0  0  0  0  0  0  0  0  0  0  0
  -40.3140  -62.5638   46.6563 C   0  0  0  0  0  0  0  0  0  0  0  0
  -40.3287  -64.0158   46.5785 O   0  0  0  0  0  0  0  0  0  0  0  0
  -43.0268  -65.7541   52.8816 C   0  0  0  0  0  0  0  0  0  0  0  0
  -42.8044  -64.4619   53.2035 N   0  0  0  0  0  0  0  0  0  0  0  0
  -43.7513  -63.6904   52.5175 N   0  0  0  0  0  0  0  0  0  0  0  0
  -44.5194  -64.5407   51.8065 C   0  0  0  0  0  0  0  0  0  0  0  0
  -44.0759  -65.7961   52.0362 N   0  0  0  0  0  0  0  0  0  0  0  0
  1  2  2  0  0  0
  1  4  1  0  0  0
  1 26  1  0  0  0
  2  3  1  0  0  0
  3  6  2  0  0  0
  4  5  2  0  0  0
  5  6  1  0  0  0
  5 10  1  0  0  0
  6  7  1  0  0  0
  7  8  1  0  0  0
  7  9  1  0  0  0
  9 10  2  0  0  0
 10 11  1  0  0  0
 11 12  2  0  0  0
 11 16  1  0  0  0
 12 13  1  0  0  0
 13 14  2  0  0  0
 13 17  1  0  0  0
 14 15  1  0  0  0
 15 16  2  0  0  0
 17 18  1  0  0  0
 17 19  1  0  0  0
 26 27  1  0  0  0
 26 30  2  0  0  0
 27 28  2  0  0  0
 28 29  1  0  0  0
 29 30  1  0  0  0
 19 20  2  0  0  0
 19 21  1  0  0  0
 21 22  2  0  0  0
 21 25  1  0  0  0
 22 23  1  0  0  0
 23 24  2  0  0  0
 24 25  1  0  0  0
M  END
> <minimizedAffinity>
-9.78289

$$$$
3e7o.B


 30 34  0  0  0  0  0  0  0  0999 V2000
  -38.7172  -68.7669   51.9490 C   0  0  0  0  0  0  0  0  0  0  0  0
  -38.2430  -69.8277   52.7242 C   0  0  0  0  0  0  0  0  0  0  0  0
  -38.9254  -70.2136   53.8850 C   0  0  0  0  0  0  0  0  0  0  0  0
  -39.8722  -68.0817   52.3209 C   0  0  0  0  0  0  0  0  0  0  0  0
  -40.5462  -68.4741   53.4680 C   0  0  0  0  0  0  0  0  0  0  0  0
  -40.0815  -69.5250   54.2444 C   0  0  0  0  0  0  0  0  0  0  0  0
  -40.9303  -69.6642   55.2703 N   0  0  0  0  0  0  0  0  0  0  0  0
  -40.8599  -70.3516   56.0069 H   0  0  0  0  0  0  0  0  0  0  0  0
  -41.9279  -68.6979   55.1482 N   0  0  0  0  0  0  0  0  0  0  0  0
  -41.6951  -67.9573   54.0561 C   0  0  0  0  0  0  0  0  0  0  0  0
  -42.5962  -66.8589   53.5928 C   0  0  0  0  0  0  0  0  0  0  0  0
  -42.3103  -66.3362   52.3349 C   0  0  0  0  0  0  0  0  0  0  0  0
  -43.0520  -65.2936   51.7915 C   0  0  0  0  0  0  0  0  0  0  0  0
  -44.1131  -64.7497   52.5190 C   0  0  0  0  0  0  0  0  0  0  0  0
  -44.4010  -65.2641   53.7883 C   0  0  0  0  0  0  0  0  0  0  0  0
  -43.6455  -66.3088   54.3307 C   0  0  0  0  0  0  0  0  0  0  0  0
  -42.6983  -64.8820   50.5424 N   0  0  0  0  0  0  0  0  0  0  0  0
  -43.3320  -65.1109   49.7901 H   0  0  0  0  0  0  0  0  0  0  0  0
  -41.5936  -64.2044   50.2159 C   0  0  0  0  0  0  0  0  0  0  0  0
  -40.7702  -63.8893   51.0513 O   0  0  0  0  0  0  0  0  0  0  0  0
  -41.4055  -63.8601   48.9355 C   0  0  0  0  0  0  0  0  0  0  0  0
  -42.2881  -63.2594   48.1256 C   0  0  0  0  0  0  0  0  0  0  0  0
  -41.7840  -63.0842   46.9713 C   0  0  0  0  0  0  0  0  0  0  0  0
  -40.5920  -63.5140   46.8625 C   0  0  0  0  0  0  0  0  0  0  0  0
  -40.2147  -64.0765   48.1492 O   0  0  0  0  0  0  0  0  0  0  0  0
  -37.9859  -68.3520   50.7198 C   0  0  0  0  0  0  0  0  0  0  0  0
  -36.9192  -68.9790   50.1796 N   0  0  0  0  0  0  0  0  0  0  0  0
  -36.5522  -68.2666   49.0305 N   0  0  0  0  0  0  0  0  0  0  0  0
  -37.4054  -67.2288   48.9151 C   0  0  0  0  0  0  0  0  0  0  0  0
  -38.2730  -67.2839   49.9493 N   0  0  0  0  0  0  0  0  0  0  0  0
  1  2  2  0  0  0
  1  4  1  0  0  0
  1 26  1  0  0  0
  2  3  1  0  0  0
  3  6  2  0  0  0
  4  5  2  0  0  0
  5  6  1  0  0  0
  5 10  1  0  0  0
  6  7  1  0  0  0
  7  8  1  0  0  0
  7  9  1  0  0  0
  9 10  2  0  0  0
 10 11  1  0  0  0
 11 12  2  0  0  0
 11 16  1  0  0  0
 12 13  1  0  0  0
 13 14  2  0  0  0
 13 17  1  0  0  0
 14 15  1  0  0  0
 15 16  2  0  0  0
 17 18  1  0  0  0
 17 19  1  0  0  0
 26 27  1  0  0  0
 26 30  2  0  0  0
 27 28  2  0  0  0
 28 29  1  0  0  0
 29 30  1  0  0  0
 19 20  2  0  0  0
 19 21  1  0  0  0
 21 22  2  0  0  0
 21 25  1  0  0  0
 22 23  1  0  0  0
 23 24  2  0  0  0
 24 25  1  0  0  0
M  END
> <minimizedAffinity>
-9.77858

$$$$
3e7o.B


 30 34  0  0  0  0  0  0  0  0999 V2000
  -38.8735  -68.6369   51.8545 C   0  0  0  0  0  0  0  0  0  0  0  0
  -38.3692  -69.7321   52.5598 C   0  0  0  0  0  0  0  0  0  0  0  0
  -38.9998  -70.1672   53.7323 C   0  0  0  0  0  0  0  0  0  0  0  0
  -40.0074  -67.9661   52.3084 C   0  0  0  0  0  0  0  0  0  0  0  0
  -40.6303  -68.4072   53.4667 C   0  0  0  0  0  0  0  0  0  0  0  0
  -40.1353  -69.4925   54.1740 C   0  0  0  0  0  0  0  0  0  0  0  0
  -40.9372  -69.6748   55.2306 N   0  0  0  0  0  0  0  0  0  0  0  0
  -40.8364  -70.3943   55.9322 H   0  0  0  0  0  0  0  0  0  0  0  0
  -41.9351  -68.7018   55.1967 N   0  0  0  0  0  0  0  0  0  0  0  0
  -41.7490  -67.9143   54.1287 C   0  0  0  0  0  0  0  0  0  0  0  0
  -42.6654  -66.7944   53.7559 C   0  0  0  0  0  0  0  0  0  0  0  0
  -43.9868  -66.9347   54.1703 C   0  0  0  0  0  0  0  0  0  0  0  0
  -44.9517  -65.9803   53.8698 C   0  0  0  0  0  0  0  0  0  0  0  0
  -44.5960  -64.8481   53.1331 C   0  0  0  0  0  0  0  0  0  0  0  0
  -43.2712  -64.7044   52.7052 C   0  0  0  0  0  0  0  0  0  0  0  0
  -42.3079  -65.6727   53.0061 C   0  0  0  0  0  0  0  0  0  0  0  0
  -46.2051  -66.2101   54.3505 N   0  0  0  0  0  0  0  0  0  0  0  0
  -46.3426  -66.0864   55.3434 H   0  0  0  0  0  0  0  0  0  0  0  0
  -47.2705  -66.5834   53.6354 C   0  0  0  0  0  0  0  0  0  0  0  0
  -47.2011  -66.7621   52.4361 O   0  0  0  0  0  0  0  0  0  0  0  0
  -48.4406  -66.7508   54.2649 C   0  0  0  0  0  0  0  0  0  0  0  0
  -48.7600  -67.7292   55.1231 C   0  0  0  0  0  0  0  0  0  0  0  0
  -49.9568  -67.5899   55.5299 C   0  0  0  0  0  0  0  0  0  0  0  0
  -50.5521  -66.5812   55.0343 C   0  0  0  0  0  0  0  0  0  0  0  0
  -49.6141  -65.9196   54.1416 O   0  0  0  0  0  0  0  0  0  0  0  0
  -38.1970  -68.1699   50.6126 C   0  0  0  0  0  0  0  0  0  0  0  0
  -38.5907  -67.1416   49.8314 N   0  0  0  0  0  0  0  0  0  0  0  0
  -37.6714  -67.0390   48.7794 N   0  0  0  0  0  0  0  0  0  0  0  0
  -36.7538  -68.0114   48.9550 C   0  0  0  0  0  0  0  0  0  0  0  0
  -37.0822  -68.6994   50.0704 N   0  0  0  0  0  0  0  0  0  0  0  0
  1  2  2  0  0  0
  1  4  1  0  0  0
  1 26  1  0  0  0
  2  3  1  0  0  0
  3  6  2  0  0  0
  4  5  2  0  0  0
  5  6  1  0  0  0
  5 10  1  0  0  0
  6  7  1  0  0  0
  7  8  1  0  0  0
  7  9  1  0  0  0
  9 10  2  0  0  0
 10 11  1  0  0  0
 11 12  2  0  0  0
 11 16  1  0  0  0
 12 13  1  0  0  0
 13 14  2  0  0  0
 13 17  1  0  0  0
 14 15  1  0  0  0
 15 16  2  0  0  0
 17 18  1  0  0  0
 17 19  1  0  0  0
 26 27  1  0  0  0
 26 30  2  0  0  0
 27 28  2  0  0  0
 28 29  1  0  0  0
 29 30  1  0  0  0
 19 20  2  0  0  0
 19 21  1  0  0  0
 21 22  2  0  0  0
 21 25  1  0  0  0
 22 23  1  0  0  0
 23 24  2  0  0  0
 24 25  1  0  0  0
M  END
> <minimizedAffinity>
-9.71427

$$$$
3e7o.B


 30 34  0  0  0  0  0  0  0  0999 V2000
  -41.2183  -67.6152   53.3897 C   0  0  0  0  0  0  0  0  0  0  0  0
  -40.8534  -68.6916   54.2017 C   0  0  0  0  0  0  0  0  0  0  0  0
  -39.7670  -69.5032   53.8512 C   0  0  0  0  0  0  0  0  0  0  0  0
  -40.5072  -67.3372   52.2240 C   0  0  0  0  0  0  0  0  0  0  0  0
  -39.4283  -68.1413   51.8872 C   0  0  0  0  0  0  0  0  0  0  0  0
  -39.0602  -69.2130   52.6867 C   0  0  0  0  0  0  0  0  0  0  0  0
  -37.9996  -69.7911   52.1094 N   0  0  0  0  0  0  0  0  0  0  0  0
  -37.5015  -70.5968   52.4599 H   0  0  0  0  0  0  0  0  0  0  0  0
  -37.7001  -69.0909   50.9416 N   0  0  0  0  0  0  0  0  0  0  0  0
  -38.5756  -68.0878   50.7905 C   0  0  0  0  0  0  0  0  0  0  0  0
  -38.5197  -67.1018   49.6690 C   0  0  0  0  0  0  0  0  0  0  0  0
  -37.2801  -66.5072   49.4517 C   0  0  0  0  0  0  0  0  0  0  0  0
  -37.0918  -65.5533   48.4583 C   0  0  0  0  0  0  0  0  0  0  0  0
  -38.1682  -65.1749   47.6525 C   0  0  0  0  0  0  0  0  0  0  0  0
  -39.4198  -65.7618   47.8709 C   0  0  0  0  0  0  0  0  0  0  0  0
  -39.6024  -66.7160   48.8771 C   0  0  0  0  0  0  0  0  0  0  0  0
  -35.8298  -65.0603   48.3197 N   0  0  0  0  0  0  0  0  0  0  0  0
  -35.1673  -65.6363   47.8203 H   0  0  0  0  0  0  0  0  0  0  0  0
  -35.3834  -63.8880   48.7806 C   0  0  0  0  0  0  0  0  0  0  0  0
  -36.1049  -63.1304   49.3975 O   0  0  0  0  0  0  0  0  0  0  0  0
  -34.1110  -63.5456   48.5412 C   0  0  0  0  0  0  0  0  0  0  0  0
  -33.0151  -64.0862   49.0910 C   0  0  0  0  0  0  0  0  0  0  0  0
  -31.9682  -63.5189   48.6444 C   0  0  0  0  0  0  0  0  0  0  0  0
  -32.2057  -62.5934   47.8049 C   0  0  0  0  0  0  0  0  0  0  0  0
  -33.6490  -62.5094   47.6491 O   0  0  0  0  0  0  0  0  0  0  0  0
  -42.3790  -66.7582   53.7588 C   0  0  0  0  0  0  0  0  0  0  0  0
  -43.1890  -66.9328   54.8248 N   0  0  0  0  0  0  0  0  0  0  0  0
  -44.1384  -65.9030   54.8025 N   0  0  0  0  0  0  0  0  0  0  0  0
  -43.8756  -65.1413   53.7213 C   0  0  0  0  0  0  0  0  0  0  0  0
  -42.8060  -65.6701   53.0875 N   0  0  0  0  0  0  0  0  0  0  0  0
  1  2  2  0  0  0
  1  4  1  0  0  0
  1 26  1  0  0  0
  2  3  1  0  0  0
  3  6  2  0  0  0
  4  5  2  0  0  0
  5  6  1  0  0  0
  5 10  1  0  0  0
  6  7  1  0  0  0
  7  8  1  0  0  0
  7  9  1  0  0  0
  9 10  2  0  0  0
 10 11  1  0  0  0
 11 12  2  0  0  0
 11 16  1  0  0  0
 12 13  1  0  0  0
 13 14  2  0  0  0
 13 17  1  0  0  0
 14 15  1  0  0  0
 15 16  2  0  0  0
 17 18  1  0  0  0
 17 19  1  0  0  0
 26 27  1  0  0  0
 26 30  2  0  0  0
 27 28  2  0  0  0
 28 29  1  0  0  0
 29 30  1  0  0  0
 19 20  2  0  0  0
 19 21  1  0  0  0
 21 22  2  0  0  0
 21 25  1  0  0  0
 22 23  1  0  0  0
 23 24  2  0  0  0
 24 25  1  0  0  0
M  END
> <minimizedAffinity>
-9.38437

$$$$
3e7o.B


 30 34  0  0  0  0  0  0  0  0999 V2000
  -38.2463  -66.6021   48.8507 C   0  0  0  0  0  0  0  0  0  0  0  0
  -37.1227  -67.3332   48.4580 C   0  0  0  0  0  0  0  0  0  0  0  0
  -36.6673  -68.4017   49.2407 C   0  0  0  0  0  0  0  0  0  0  0  0
  -38.9255  -66.9268   50.0233 C   0  0  0  0  0  0  0  0  0  0  0  0
  -38.4725  -67.9907   50.7895 C   0  0  0  0  0  0  0  0  0  0  0  0
  -37.3569  -68.7207   50.4080 C   0  0  0  0  0  0  0  0  0  0  0  0
  -37.1682  -69.6680   51.3350 N   0  0  0  0  0  0  0  0  0  0  0  0
  -36.4337  -70.3612   51.3311 H   0  0  0  0  0  0  0  0  0  0  0  0
  -38.1590  -69.5341   52.3067 N   0  0  0  0  0  0  0  0  0  0  0  0
  -38.9541  -68.5035   51.9886 C   0  0  0  0  0  0  0  0  0  0  0  0
  -40.1528  -68.1052   52.7871 C   0  0  0  0  0  0  0  0  0  0  0  0
  -41.0672  -67.2856   52.1317 C   0  0  0  0  0  0  0  0  0  0  0  0
  -42.2140  -66.8191   52.7640 C   0  0  0  0  0  0  0  0  0  0  0  0
  -42.4636  -67.1763   54.0911 C   0  0  0  0  0  0  0  0  0  0  0  0
  -41.5442  -67.9929   54.7594 C   0  0  0  0  0  0  0  0  0  0  0  0
  -40.3894  -68.4524   54.1180 C   0  0  0  0  0  0  0  0  0  0  0  0
  -43.0496  -66.0465   52.0158 N   0  0  0  0  0  0  0  0  0  0  0  0
  -43.4727  -66.4817   51.2086 H   0  0  0  0  0  0  0  0  0  0  0  0
  -43.3637  -64.7683   52.2466 C   0  0  0  0  0  0  0  0  0  0  0  0
  -42.9000  -64.1593   53.1896 O   0  0  0  0  0  0  0  0  0  0  0  0
  -44.2200  -64.1570   51.4180 C   0  0  0  0  0  0  0  0  0  0  0  0
  -45.5451  -64.3439   51.3488 C   0  0  0  0  0  0  0  0  0  0  0  0
  -46.0512  -63.6056   50.4456 C   0  0  0  0  0  0  0  0  0  0  0  0
  -45.1987  -62.8855   49.8354 C   0  0  0  0  0  0  0  0  0  0  0  0
  -43.8951  -63.1756   50.4108 O   0  0  0  0  0  0  0  0  0  0  0  0
  -38.7243  -65.4607   48.0221 C   0  0  0  0  0  0  0  0  0  0  0  0
  -39.9932  -65.2541   47.6096 N   0  0  0  0  0  0  0  0  0  0  0  0
  -40.0044  -64.0657   46.8681 N   0  0  0  0  0  0  0  0  0  0  0  0
  -38.7412  -63.5938   46.8515 C   0  0  0  0  0  0  0  0  0  0  0  0
  -37.9659  -64.4503   47.5520 N   0  0  0  0  0  0  0  0  0  0  0  0
  1  2  2  0  0  0
  1  4  1  0  0  0
  1 26  1  0  0  0
  2  3  1  0  0  0
  3  6  2  0  0  0
  4  5  2  0  0  0
  5  6  1  0  0  0
  5 10  1  0  0  0
  6  7  1  0  0  0
  7  8  1  0  0  0
  7  9  1  0  0  0
  9 10  2  0  0  0
 10 11  1  0  0  0
 11 12  2  0  0  0
 11 16  1  0  0  0
 12 13  1  0  0  0
 13 14  2  0  0  0
 13 17  1  0  0  0
 14 15  1  0  0  0
 15 16  2  0  0  0
 17 18  1  0  0  0
 17 19  1  0  0  0
 26 27  1  0  0  0
 26 30  2  0  0  0
 27 28  2  0  0  0
 28 29  1  0  0  0
 29 30  1  0  0  0
 19 20  2  0  0  0
 19 21  1  0  0  0
 21 22  2  0  0  0
 21 25  1  0  0  0
 22 23  1  0  0  0
 23 24  2  0  0  0
 24 25  1  0  0  0
M  END
> <minimizedAffinity>
-9.37619

$$$$
3e7o.B


 30 34  0  0  0  0  0  0  0  0999 V2000
  -41.3212  -67.7352   53.5588 C   0  0  0  0  0  0  0  0  0  0  0  0
  -42.2903  -67.6083   54.5567 C   0  0  0  0  0  0  0  0  0  0  0  0
  -43.1872  -66.5327   54.5365 C   0  0  0  0  0  0  0  0  0  0  0  0
  -41.2357  -66.7949   52.5339 C   0  0  0  0  0  0  0  0  0  0  0  0
  -42.1318  -65.7362   52.5170 C   0  0  0  0  0  0  0  0  0  0  0  0
  -43.0959  -65.6017   53.5047 C   0  0  0  0  0  0  0  0  0  0  0  0
  -43.8001  -64.4986   53.2223 N   0  0  0  0  0  0  0  0  0  0  0  0
  -44.5766  -64.1392   53.7589 H   0  0  0  0  0  0  0  0  0  0  0  0
  -43.2783  -63.9307   52.0608 N   0  0  0  0  0  0  0  0  0  0  0  0
  -42.2500  -64.6733   51.6287 C   0  0  0  0  0  0  0  0  0  0  0  0
  -41.4866  -64.3824   50.3775 C   0  0  0  0  0  0  0  0  0  0  0  0
  -40.1024  -64.4889   50.4786 C   0  0  0  0  0  0  0  0  0  0  0  0
  -39.2686  -64.2214   49.3990 C   0  0  0  0  0  0  0  0  0  0  0  0
  -39.8246  -63.8348   48.1773 C   0  0  0  0  0  0  0  0  0  0  0  0
  -41.2151  -63.7169   48.0705 C   0  0  0  0  0  0  0  0  0  0  0  0
  -42.0466  -63.9814   49.1636 C   0  0  0  0  0  0  0  0  0  0  0  0
  -37.9326  -64.3849   49.6070 N   0  0  0  0  0  0  0  0  0  0  0  0
  -37.4419  -63.6182   50.0443 H   0  0  0  0  0  0  0  0  0  0  0  0
  -37.2084  -65.4619   49.2885 C   0  0  0  0  0  0  0  0  0  0  0  0
  -37.7098  -66.4307   48.7546 O   0  0  0  0  0  0  0  0  0  0  0  0
  -35.9012  -65.4666   49.5795 C   0  0  0  0  0  0  0  0  0  0  0  0
  -35.2170  -66.4414   50.1937 C   0  0  0  0  0  0  0  0  0  0  0  0
  -33.9938  -66.1159   50.3167 C   0  0  0  0  0  0  0  0  0  0  0  0
  -33.7190  -64.9685   49.8419 C   0  0  0  0  0  0  0  0  0  0  0  0
  -34.9520  -64.4142   49.3062 O   0  0  0  0  0  0  0  0  0  0  0  0
  -40.3626  -68.8746   53.5862 C   0  0  0  0  0  0  0  0  0  0  0  0
  -39.8565  -69.5140   52.5101 N   0  0  0  0  0  0  0  0  0  0  0  0
  -38.9917  -70.5095   52.9828 N   0  0  0  0  0  0  0  0  0  0  0  0
  -39.0059  -70.4438   54.3296 C   0  0  0  0  0  0  0  0  0  0  0  0
  -39.8462  -69.4494   54.6907 N   0  0  0  0  0  0  0  0  0  0  0  0
  1  2  2  0  0  0
  1  4  1  0  0  0
  1 26  1  0  0  0
  2  3  1  0  0  0
  3  6  2  0  0  0
  4  5  2  0  0  0
  5  6  1  0  0  0
  5 10  1  0  0  0
  6  7  1  0  0  0
  7  8  1  0  0  0
  7  9  1  0  0  0
  9 10  2  0  0  0
 10 11  1  0  0  0
 11 12  2  0  0  0
 11 16  1  0  0  0
 12 13  1  0  0  0
 13 14  2  0  0  0
 13 17  1  0  0  0
 14 15  1  0  0  0
 15 16  2  0  0  0
 17 18  1  0  0  0
 17 19  1  0  0  0
 26 27  1  0  0  0
 26 30  2  0  0  0
 27 28  2  0  0  0
 28 29  1  0  0  0
 29 30  1  0  0  0
 19 20  2  0  0  0
 19 21  1  0  0  0
 21 22  2  0  0  0
 21 25  1  0  0  0
 22 23  1  0  0  0
 23 24  2  0  0  0
 24 25  1  0  0  0
M  END
> <minimizedAffinity>
-9.17525

$$$$
3e7o.B


 30 34  0  0  0  0  0  0  0  0999 V2000
  -42.6635  -64.7709   51.5901 C   0  0  0  0  0  0  0  0  0  0  0  0
  -43.7931  -64.3647   52.3044 C   0  0  0  0  0  0  0  0  0  0  0  0
  -44.1945  -65.0663   53.4483 C   0  0  0  0  0  0  0  0  0  0  0  0
  -41.9246  -65.8765   52.0066 C   0  0  0  0  0  0  0  0  0  0  0  0
  -42.3244  -66.5620   53.1442 C   0  0  0  0  0  0  0  0  0  0  0  0
  -43.4456  -66.1667   53.8583 C   0  0  0  0  0  0  0  0  0  0  0  0
  -43.5756  -67.0108   54.8894 N   0  0  0  0  0  0  0  0  0  0  0  0
  -44.2988  -66.9770   55.5936 H   0  0  0  0  0  0  0  0  0  0  0  0
  -42.5421  -67.9443   54.8248 N   0  0  0  0  0  0  0  0  0  0  0  0
  -41.7788  -67.6858   53.7543 C   0  0  0  0  0  0  0  0  0  0  0  0
  -40.5498  -68.4616   53.4067 C   0  0  0  0  0  0  0  0  0  0  0  0
  -39.9319  -68.1063   52.2112 C   0  0  0  0  0  0  0  0  0  0  0  0
  -38.7952  -68.7626   51.7534 C   0  0  0  0  0  0  0  0  0  0  0  0
  -38.2520  -69.8071   52.5051 C   0  0  0  0  0  0  0  0  0  0  0  0
  -38.8730  -70.1760   53.7039 C   0  0  0  0  0  0  0  0  0  0  0  0
  -40.0204  -69.5148   54.1541 C   0  0  0  0  0  0  0  0  0  0  0  0
  -38.2614  -68.3112   50.5846 N   0  0  0  0  0  0  0  0  0  0  0  0
  -38.9111  -68.0603   49.8532 H   0  0  0  0  0  0  0  0  0  0  0  0
  -36.9610  -68.1681   50.3120 C   0  0  0  0  0  0  0  0  0  0  0  0
  -36.1053  -68.4493   51.1267 O   0  0  0  0  0  0  0  0  0  0  0  0
  -36.6043  -67.6919   49.1122 C   0  0  0  0  0  0  0  0  0  0  0  0
  -36.6566  -66.4165   48.7045 C   0  0  0  0  0  0  0  0  0  0  0  0
  -36.2481  -66.3167   47.5044 C   0  0  0  0  0  0  0  0  0  0  0  0
  -35.8990  -67.4255   46.9883 C   0  0  0  0  0  0  0  0  0  0  0  0
  -36.1004  -68.4549   47.9954 O   0  0  0  0  0  0  0  0  0  0  0  0
  -42.2427  -64.0293   50.3691 C   0  0  0  0  0  0  0  0  0  0  0  0
  -40.9728  -63.7444   50.0099 N   0  0  0  0  0  0  0  0  0  0  0  0
  -41.0272  -63.0473   48.7960 N   0  0  0  0  0  0  0  0  0  0  0  0
  -42.3283  -62.9285   48.4621 C   0  0  0  0  0  0  0  0  0  0  0  0
  -43.0634  -63.5244   49.4264 N   0  0  0  0  0  0  0  0  0  0  0  0
  1  2  2  0  0  0
  1  4  1  0  0  0
  1 26  1  0  0  0
  2  3  1  0  0  0
  3  6  2  0  0  0
  4  5  2  0  0  0
  5  6  1  0  0  0
  5 10  1  0  0  0
  6  7  1  0  0  0
  7  8  1  0  0  0
  7  9  1  0  0  0
  9 10  2  0  0  0
 10 11  1  0  0  0
 11 12  2  0  0  0
 11 16  1  0  0  0
 12 13  1  0  0  0
 13 14  2  0  0  0
 13 17  1  0  0  0
 14 15  1  0  0  0
 15 16  2  0  0  0
 17 18  1  0  0  0
 17 19  1  0  0  0
 26 27  1  0  0  0
 26 30  2  0  0  0
 27 28  2  0  0  0
 28 29  1  0  0  0
 29 30  1  0  0  0
 19 20  2  0  0  0
 19 21  1  0  0  0
 21 22  2  0  0  0
 21 25  1  0  0  0
 22 23  1  0  0  0
 23 24  2  0  0  0
 24 25  1  0  0  0
M  END
> <minimizedAffinity>
-9.05666

$$$$
3e7o.B


 30 34  0  0  0  0  0  0  0  0999 V2000
  -39.1607  -65.8630   48.8592 C   0  0  0  0  0  0  0  0  0  0  0  0
  -38.0867  -65.9183   47.9678 C   0  0  0  0  0  0  0  0  0  0  0  0
  -37.0545  -66.8448   48.1632 C   0  0  0  0  0  0  0  0  0  0  0  0
  -39.2172  -66.7270   49.9510 C   0  0  0  0  0  0  0  0  0  0  0  0
  -38.1947  -67.6463   50.1341 C   0  0  0  0  0  0  0  0  0  0  0  0
  -37.1239  -67.7069   49.2550 C   0  0  0  0  0  0  0  0  0  0  0  0
  -36.3109  -68.6783   49.6884 N   0  0  0  0  0  0  0  0  0  0  0  0
  -35.4460  -68.9640   49.2521 H   0  0  0  0  0  0  0  0  0  0  0  0
  -36.8622  -69.2279   50.8450 N   0  0  0  0  0  0  0  0  0  0  0  0
  -38.0080  -68.5954   51.1326 C   0  0  0  0  0  0  0  0  0  0  0  0
  -38.8902  -68.9618   52.2817 C   0  0  0  0  0  0  0  0  0  0  0  0
  -40.1398  -68.3489   52.3003 C   0  0  0  0  0  0  0  0  0  0  0  0
  -41.0510  -68.5791   53.3246 C   0  0  0  0  0  0  0  0  0  0  0  0
  -40.7129  -69.4458   54.3666 C   0  0  0  0  0  0  0  0  0  0  0  0
  -39.4548  -70.0589   54.3593 C   0  0  0  0  0  0  0  0  0  0  0  0
  -38.5412  -69.8166   53.3284 C   0  0  0  0  0  0  0  0  0  0  0  0
  -42.2525  -67.9458   53.2237 N   0  0  0  0  0  0  0  0  0  0  0  0
  -42.7066  -67.9702   52.3219 H   0  0  0  0  0  0  0  0  0  0  0  0
  -42.8887  -67.2955   54.2025 C   0  0  0  0  0  0  0  0  0  0  0  0
  -42.4184  -67.2081   55.3189 O   0  0  0  0  0  0  0  0  0  0  0  0
  -44.0781  -66.7399   53.9379 C   0  0  0  0  0  0  0  0  0  0  0  0
  -45.2085  -67.3783   53.6056 C   0  0  0  0  0  0  0  0  0  0  0  0
  -46.1502  -66.5448   53.4167 C   0  0  0  0  0  0  0  0  0  0  0  0
  -45.8019  -65.3326   53.5809 C   0  0  0  0  0  0  0  0  0  0  0  0
  -44.3928  -65.3313   53.9401 O   0  0  0  0  0  0  0  0  0  0  0  0
  -40.2531  -64.8717   48.6551 C   0  0  0  0  0  0  0  0  0  0  0  0
  -41.1011  -64.4167   49.6021 N   0  0  0  0  0  0  0  0  0  0  0  0
  -41.9588  -63.4947   48.9883 N   0  0  0  0  0  0  0  0  0  0  0  0
  -41.6056  -63.4250   47.6887 C   0  0  0  0  0  0  0  0  0  0  0  0
  -40.5694  -64.2693   47.4914 N   0  0  0  0  0  0  0  0  0  0  0  0
  1  2  2  0  0  0
  1  4  1  0  0  0
  1 26  1  0  0  0
  2  3  1  0  0  0
  3  6  2  0  0  0
  4  5  2  0  0  0
  5  6  1  0  0  0
  5 10  1  0  0  0
  6  7  1  0  0  0
  7  8  1  0  0  0
  7  9  1  0  0  0
  9 10  2  0  0  0
 10 11  1  0  0  0
 11 12  2  0  0  0
 11 16  1  0  0  0
 12 13  1  0  0  0
 13 14  2  0  0  0
 13 17  1  0  0  0
 14 15  1  0  0  0
 15 16  2  0  0  0
 17 18  1  0  0  0
 17 19  1  0  0  0
 26 27  1  0  0  0
 26 30  2  0  0  0
 27 28  2  0  0  0
 28 29  1  0  0  0
 29 30  1  0  0  0
 19 20  2  0  0  0
 19 21  1  0  0  0
 21 22  2  0  0  0
 21 25  1  0  0  0
 22 23  1  0  0  0
 23 24  2  0  0  0
 24 25  1  0  0  0
M  END
> <minimizedAffinity>
-8.82054

$$$$
3e7o.B


 30 34  0  0  0  0  0  0  0  0999 V2000
  -34.0265  -66.5031   49.9909 C   0  0  0  0  0  0  0  0  0  0  0  0
  -33.4173  -67.5645   50.6642 C   0  0  0  0  0  0  0  0  0  0  0  0
  -34.1906  -68.6202   51.1635 C   0  0  0  0  0  0  0  0  0  0  0  0
  -35.4079  -66.4823   49.8088 C   0  0  0  0  0  0  0  0  0  0  0  0
  -36.1663  -67.5347   50.3001 C   0  0  0  0  0  0  0  0  0  0  0  0
  -35.5698  -68.5916   50.9712 C   0  0  0  0  0  0  0  0  0  0  0  0
  -36.5455  -69.4392   51.3207 N   0  0  0  0  0  0  0  0  0  0  0  0
  -36.4228  -70.3086   51.8199 H   0  0  0  0  0  0  0  0  0  0  0  0
  -37.7598  -68.9166   50.8779 N   0  0  0  0  0  0  0  0  0  0  0  0
  -37.5398  -67.7463   50.2634 C   0  0  0  0  0  0  0  0  0  0  0  0
  -38.6165  -66.9329   49.6213 C   0  0  0  0  0  0  0  0  0  0  0  0
  -39.8149  -66.8580   50.3253 C   0  0  0  0  0  0  0  0  0  0  0  0
  -40.9089  -66.1563   49.8322 C   0  0  0  0  0  0  0  0  0  0  0  0
  -40.8130  -65.5067   48.5993 C   0  0  0  0  0  0  0  0  0  0  0  0
  -39.6141  -65.5850   47.8815 C   0  0  0  0  0  0  0  0  0  0  0  0
  -38.5202  -66.2988   48.3817 C   0  0  0  0  0  0  0  0  0  0  0  0
  -42.0195  -66.1291   50.6200 N   0  0  0  0  0  0  0  0  0  0  0  0
  -42.6479  -66.9167   50.5499 H   0  0  0  0  0  0  0  0  0  0  0  0
  -42.3582  -65.1611   51.4767 C   0  0  0  0  0  0  0  0  0  0  0  0
  -41.6682  -64.1727   51.6253 O   0  0  0  0  0  0  0  0  0  0  0  0
  -43.4821  -65.2997   52.1917 C   0  0  0  0  0  0  0  0  0  0  0  0
  -43.9898  -66.4396   52.6802 C   0  0  0  0  0  0  0  0  0  0  0  0
  -45.0730  -66.2111   53.3060 C   0  0  0  0  0  0  0  0  0  0  0  0
  -45.4099  -64.9847   53.3157 C   0  0  0  0  0  0  0  0  0  0  0  0
  -44.3954  -64.2505   52.5767 O   0  0  0  0  0  0  0  0  0  0  0  0
  -33.2041  -65.3770   49.4681 C   0  0  0  0  0  0  0  0  0  0  0  0
  -33.3400  -64.0742   49.7955 N   0  0  0  0  0  0  0  0  0  0  0  0
  -32.3637  -63.3606   49.0885 N   0  0  0  0  0  0  0  0  0  0  0  0
  -31.6715  -64.2536   48.3523 C   0  0  0  0  0  0  0  0  0  0  0  0
  -32.1912  -65.4789   48.5845 N   0  0  0  0  0  0  0  0  0  0  0  0
  1  2  2  0  0  0
  1  4  1  0  0  0
  1 26  1  0  0  0
  2  3  1  0  0  0
  3  6  2  0  0  0
  4  5  2  0  0  0
  5  6  1  0  0  0
  5 10  1  0  0  0
  6  7  1  0  0  0
  7  8  1  0  0  0
  7  9  1  0  0  0
  9 10  2  0  0  0
 10 11  1  0  0  0
 11 12  2  0  0  0
 11 16  1  0  0  0
 12 13  1  0  0  0
 13 14  2  0  0  0
 13 17  1  0  0  0
 14 15  1  0  0  0
 15 16  2  0  0  0
 17 18  1  0  0  0
 17 19  1  0  0  0
 26 27  1  0  0  0
 26 30  2  0  0  0
 27 28  2  0  0  0
 28 29  1  0  0  0
 29 30  1  0  0  0
 19 20  2  0  0  0
 19 21  1  0  0  0
 21 22  2  0  0  0
 21 25  1  0  0  0
 22 23  1  0  0  0
 23 24  2  0  0  0
 24 25  1  0  0  0
M  END
> <minimizedAffinity>
-8.46138

$$$$
3e7o.B


 30 34  0  0  0  0  0  0  0  0999 V2000
  -39.2539  -68.7085   52.3448 C   0  0  0  0  0  0  0  0  0  0  0  0
  -38.2071  -69.6273   52.2386 C   0  0  0  0  0  0  0  0  0  0  0  0
  -37.3022  -69.5458   51.1725 C   0  0  0  0  0  0  0  0  0  0  0  0
  -39.4096  -67.7025   51.3932 C   0  0  0  0  0  0  0  0  0  0  0  0
  -38.5055  -67.6242   50.3441 C   0  0  0  0  0  0  0  0  0  0  0  0
  -37.4644  -68.5332   50.2301 C   0  0  0  0  0  0  0  0  0  0  0  0
  -36.7722  -68.2060   49.1318 N   0  0  0  0  0  0  0  0  0  0  0  0
  -35.9514  -68.6824   48.7863 H   0  0  0  0  0  0  0  0  0  0  0  0
  -37.3781  -67.0951   48.5465 N   0  0  0  0  0  0  0  0  0  0  0  0
  -38.4460  -66.7393   49.2736 C   0  0  0  0  0  0  0  0  0  0  0  0
  -39.3030  -65.5555   48.9617 C   0  0  0  0  0  0  0  0  0  0  0  0
  -40.5469  -65.5320   49.5858 C   0  0  0  0  0  0  0  0  0  0  0  0
  -41.4552  -64.5030   49.3655 C   0  0  0  0  0  0  0  0  0  0  0  0
  -41.1202  -63.4616   48.4969 C   0  0  0  0  0  0  0  0  0  0  0  0
  -39.8748  -63.4829   47.8588 C   0  0  0  0  0  0  0  0  0  0  0  0
  -38.9693  -64.5256   48.0808 C   0  0  0  0  0  0  0  0  0  0  0  0
  -42.6299  -64.5713   50.0513 N   0  0  0  0  0  0  0  0  0  0  0  0
  -43.4574  -64.7950   49.5174 H   0  0  0  0  0  0  0  0  0  0  0  0
  -42.7932  -64.3708   51.3624 C   0  0  0  0  0  0  0  0  0  0  0  0
  -41.8577  -64.0917   52.0849 O   0  0  0  0  0  0  0  0  0  0  0  0
  -44.0207  -64.4942   51.8835 C   0  0  0  0  0  0  0  0  0  0  0  0
  -45.1858  -64.2710   51.2602 C   0  0  0  0  0  0  0  0  0  0  0  0
  -46.1596  -64.4772   52.0517 C   0  0  0  0  0  0  0  0  0  0  0  0
  -45.8037  -64.8342   53.2193 C   0  0  0  0  0  0  0  0  0  0  0  0
  -44.3504  -64.8805   53.2345 O   0  0  0  0  0  0  0  0  0  0  0  0
  -40.2204  -68.8015   53.4740 C   0  0  0  0  0  0  0  0  0  0  0  0
  -40.1181  -68.1687   54.6622 N   0  0  0  0  0  0  0  0  0  0  0  0
  -41.2391  -68.5237   55.4237 N   0  0  0  0  0  0  0  0  0  0  0  0
  -41.9811  -69.3636   54.6738 C   0  0  0  0  0  0  0  0  0  0  0  0
  -41.3529  -69.5323   53.4896 N   0  0  0  0  0  0  0  0  0  0  0  0
  1  2  2  0  0  0
  1  4  1  0  0  0
  1 26  1  0  0  0
  2  3  1  0  0  0
  3  6  2  0  0  0
  4  5  2  0  0  0
  5  6  1  0  0  0
  5 10  1  0  0  0
  6  7  1  0  0  0
  7  8  1  0  0  0
  7  9  1  0  0  0
  9 10  2  0  0  0
 10 11  1  0  0  0
 11 12  2  0  0  0
 11 16  1  0  0  0
 12 13  1  0  0  0
 13 14  2  0  0  0
 13 17  1  0  0  0
 14 15  1  0  0  0
 15 16  2  0  0  0
 17 18  1  0  0  0
 17 19  1  0  0  0
 26 27  1  0  0  0
 26 30  2  0  0  0
 27 28  2  0  0  0
 28 29  1  0  0  0
 29 30  1  0  0  0
 19 20  2  0  0  0
 19 21  1  0  0  0
 21 22  2  0  0  0
 21 25  1  0  0  0
 22 23  1  0  0  0
 23 24  2  0  0  0
 24 25  1  0  0  0
M  END
> <minimizedAffinity>
-8.39041

$$$$
