# created with PyMOL 2.5.2
@<TRIPOS>MOLECULE
3ELJ.A
39 42 1                 
SMALL
USER_CHARGES
@<TRIPOS>ATOM
1	   C	20.680	8.702	32.367	C.2	1	UNK0	0.000	
2	   N	21.332	7.623	31.897	N.2	1	UNK0	0.000	
3	   C	19.417	8.485	32.879	C.2	1	UNK0	0.000	
4	   C	18.933	7.202	32.869	C.2	1	UNK0	0.000	
5	   N	17.681	7.221	33.413	N.pl3	1	UNK0	0.000	
6	   H	17.087	6.413	33.528	 H	1	UNK0	0.000	
7	   C	17.351	8.495	33.777	C.2	1	UNK0	0.000	
8	   C	18.416	9.309	33.456	C.2	1	UNK0	0.000	
9	   N	19.562	6.126	32.412	N.2	1	UNK0	0.000	
10	   C	20.777	6.406	31.934	C.2	1	UNK0	0.000	
11	   N	21.147	10.020	32.386	N.pl3	1	UNK0	0.000	
12	   H	20.480	10.722	32.674	 H	1	UNK0	0.000	
13	   C	22.555	11.795	31.626	C.2	1	UNK0	0.000	
14	   C	23.789	12.307	31.289	C.2	1	UNK0	0.000	
15	   F	23.919	13.575	30.872	 F	1	UNK0	0.000	
16	   C	24.910	11.514	31.378	C.2	1	UNK0	0.000	
17	   C	24.789	10.211	31.804	C.2	1	UNK0	0.000	
18	   C	23.554	9.704	32.142	C.2	1	UNK0	0.000	
19	   C	22.424	10.488	32.056	C.2	1	UNK0	0.000	
20	   O	20.633	12.818	32.507	O.2	1	UNK0	0.000	
21	   C	21.352	12.644	31.531	C.2	1	UNK0	0.000	
22	   N	21.141	13.189	30.291	N.pl3	1	UNK0	0.000	
23	   H	20.341	13.785	30.131	 H	1	UNK0	0.000	
24	   H	21.784	12.995	29.538	 H	1	UNK0	0.000	
25	   N	21.489	5.298	31.431	N.pl3	1	UNK0	0.000	
26	   H	21.020	4.403	31.424	 H	1	UNK0	0.000	
27	   C	22.808	5.351	30.939	C.2	1	UNK0	0.000	
28	   C	23.738	4.445	31.402	C.2	1	UNK0	0.000	
29	   C	23.194	6.277	29.992	C.2	1	UNK0	0.000	
30	   C	24.491	6.300	29.532	C.2	1	UNK0	0.000	
31	   C	25.421	5.391	29.993	C.2	1	UNK0	0.000	
32	   C	25.042	4.459	30.938	C.2	1	UNK0	0.000	
33	   O	23.277	3.542	32.351	O.3	1	UNK0	0.000	
34	   C	24.318	2.643	32.708	C.3	1	UNK0	0.000	
35	   C	26.822	5.446	29.477	C.3	1	UNK0	0.000	
36	   S	26.774	5.426	27.699	S.O2	1	UNK0	0.000	
37	   O	27.048	6.763	27.205	O.2	1	UNK0	0.000	
38	   O	25.563	4.729	27.309	O.2	1	UNK0	0.000	
39	   C	28.155	4.399	27.298	C.3	1	UNK0	0.000	
@<TRIPOS>BOND
1 1 2 2
2 1 3 1
3 1 11 1
4 2 10 1
5 3 4 2
6 3 8 1
7 4 5 1
8 4 9 1
9 5 6 1
10 5 7 1
11 7 8 2
12 9 10 2
13 10 25 1
14 25 26 1
15 25 27 1
16 27 28 2
17 27 29 1
18 28 33 1
19 28 32 1
20 33 34 1
21 29 30 2
22 30 31 1
23 31 32 2
24 31 35 1
25 35 36 1
26 36 37 2
27 36 38 2
28 36 39 1
29 20 21 2
30 21 22 1
31 13 21 1
32 22 23 1
33 22 24 1
34 13 14 2
35 13 19 1
36 14 15 1
37 14 16 1
38 16 17 2
39 17 18 1
40 18 19 2
41 11 19 1
42 11 12 1
@<TRIPOS>SUBSTRUCTURE
1	UNK0	1	GROUP	1 ****	UNK
