3ELJ.A


 39 42  0  0  0  0  0  0  0  0999 V2000
   20.6798    8.7016   32.3670 C   0  0  0  0  0  0  0  0  0  0  0  0
   21.3318    7.6235   31.8975 N   0  0  0  0  0  0  0  0  0  0  0  0
   19.4172    8.4853   32.8785 C   0  0  0  0  0  0  0  0  0  0  0  0
   18.9328    7.2023   32.8687 C   0  0  0  0  0  0  0  0  0  0  0  0
   17.6809    7.2211   33.4128 N   0  0  0  0  0  0  0  0  0  0  0  0
   17.0866    6.4126   33.5284 H   0  0  0  0  0  0  0  0  0  0  0  0
   17.3513    8.4952   33.7773 C   0  0  0  0  0  0  0  0  0  0  0  0
   18.4157    9.3090   33.4558 C   0  0  0  0  0  0  0  0  0  0  0  0
   19.5624    6.1261   32.4120 N   0  0  0  0  0  0  0  0  0  0  0  0
   20.7770    6.4056   31.9336 C   0  0  0  0  0  0  0  0  0  0  0  0
   21.1473   10.0204   32.3860 N   0  0  0  0  0  0  0  0  0  0  0  0
   20.4800   10.7219   32.6738 H   0  0  0  0  0  0  0  0  0  0  0  0
   22.5545   11.7952   31.6258 C   0  0  0  0  0  0  0  0  0  0  0  0
   23.7894   12.3067   31.2893 C   0  0  0  0  0  0  0  0  0  0  0  0
   23.9185   13.5753   30.8724 F   0  0  0  0  0  0  0  0  0  0  0  0
   24.9101   11.5136   31.3775 C   0  0  0  0  0  0  0  0  0  0  0  0
   24.7895   10.2110   31.8044 C   0  0  0  0  0  0  0  0  0  0  0  0
   23.5540    9.7038   32.1420 C   0  0  0  0  0  0  0  0  0  0  0  0
   22.4242   10.4882   32.0560 C   0  0  0  0  0  0  0  0  0  0  0  0
   20.6328   12.8180   32.5069 O   0  0  0  0  0  0  0  0  0  0  0  0
   21.3522   12.6441   31.5306 C   0  0  0  0  0  0  0  0  0  0  0  0
   21.1407   13.1889   30.2911 N   0  0  0  0  0  0  0  0  0  0  0  0
   20.3411   13.7849   30.1311 H   0  0  0  0  0  0  0  0  0  0  0  0
   21.7844   12.9945   29.5375 H   0  0  0  0  0  0  0  0  0  0  0  0
   21.4885    5.2977   31.4315 N   0  0  0  0  0  0  0  0  0  0  0  0
   21.0202    4.4028   31.4244 H   0  0  0  0  0  0  0  0  0  0  0  0
   22.8076    5.3512   30.9386 C   0  0  0  0  0  0  0  0  0  0  0  0
   23.7377    4.4454   31.4024 C   0  0  0  0  0  0  0  0  0  0  0  0
   23.1940    6.2766   29.9923 C   0  0  0  0  0  0  0  0  0  0  0  0
   24.4912    6.3000   29.5316 C   0  0  0  0  0  0  0  0  0  0  0  0
   25.4206    5.3913   29.9931 C   0  0  0  0  0  0  0  0  0  0  0  0
   25.0416    4.4594   30.9376 C   0  0  0  0  0  0  0  0  0  0  0  0
   23.2770    3.5419   32.3506 O   0  0  0  0  0  0  0  0  0  0  0  0
   24.3182    2.6432   32.7079 C   0  0  0  0  0  0  0  0  0  0  0  0
   26.8222    5.4457   29.4774 C   0  0  0  0  0  0  0  0  0  0  0  0
   26.7740    5.4262   27.6990 S   0  0  0  0  0  0  0  0  0  0  0  0
   27.0480    6.7626   27.2045 O   0  0  0  0  0  0  0  0  0  0  0  0
   25.5627    4.7291   27.3086 O   0  0  0  0  0  0  0  0  0  0  0  0
   28.1551    4.3987   27.2979 C   0  0  0  0  0  0  0  0  0  0  0  0
  1  2  2  0  0  0
  1  3  1  0  0  0
  1 11  1  0  0  0
  2 10  1  0  0  0
  3  4  2  0  0  0
  3  8  1  0  0  0
  4  5  1  0  0  0
  4  9  1  0  0  0
  5  6  1  0  0  0
  5  7  1  0  0  0
  7  8  2  0  0  0
  9 10  2  0  0  0
 10 25  1  0  0  0
 25 26  1  0  0  0
 25 27  1  0  0  0
 27 28  2  0  0  0
 27 29  1  0  0  0
 28 33  1  0  0  0
 28 32  1  0  0  0
 33 34  1  0  0  0
 29 30  2  0  0  0
 30 31  1  0  0  0
 31 32  2  0  0  0
 31 35  1  0  0  0
 35 36  1  0  0  0
 36 37  2  0  0  0
 36 38  2  0  0  0
 36 39  1  0  0  0
 20 21  2  0  0  0
 21 22  1  0  0  0
 21 13  1  0  0  0
 22 23  1  0  0  0
 22 24  1  0  0  0
 13 14  2  0  0  0
 13 19  1  0  0  0
 14 15  1  0  0  0
 14 16  1  0  0  0
 16 17  2  0  0  0
 17 18  1  0  0  0
 18 19  2  0  0  0
 19 11  1  0  0  0
 11 12  1  0  0  0
M  END
> <minimizedAffinity>
-10.52212

$$$$
3ELJ.A


 39 42  0  0  0  0  0  0  0  0999 V2000
   20.8041    8.6697   32.7447 C   0  0  0  0  0  0  0  0  0  0  0  0
   21.4347    7.6520   32.1327 N   0  0  0  0  0  0  0  0  0  0  0  0
   19.4720    8.4783   33.0471 C   0  0  0  0  0  0  0  0  0  0  0  0
   18.9029    7.2785   32.7044 C   0  0  0  0  0  0  0  0  0  0  0  0
   17.5938    7.3083   33.0903 N   0  0  0  0  0  0  0  0  0  0  0  0
   16.9332    6.5557   32.9589 H   0  0  0  0  0  0  0  0  0  0  0  0
   17.3101    8.5067   33.6804 C   0  0  0  0  0  0  0  0  0  0  0  0
   18.4634    9.2606   33.6681 C   0  0  0  0  0  0  0  0  0  0  0  0
   19.5097    6.2622   32.1025 N   0  0  0  0  0  0  0  0  0  0  0  0
   20.7944    6.5132   31.8404 C   0  0  0  0  0  0  0  0  0  0  0  0
   21.3578    9.9041   33.1022 N   0  0  0  0  0  0  0  0  0  0  0  0
   22.0462    9.8827   33.8410 H   0  0  0  0  0  0  0  0  0  0  0  0
   21.7516   11.5578   31.4232 C   0  0  0  0  0  0  0  0  0  0  0  0
   21.5114   12.7885   30.8510 C   0  0  0  0  0  0  0  0  0  0  0  0
   22.1649   13.1719   29.7438 F   0  0  0  0  0  0  0  0  0  0  0  0
   20.5925   13.6425   31.4156 C   0  0  0  0  0  0  0  0  0  0  0  0
   19.9160   13.2594   32.5511 C   0  0  0  0  0  0  0  0  0  0  0  0
   20.1570   12.0278   33.1190 C   0  0  0  0  0  0  0  0  0  0  0  0
   21.0764   11.1646   32.5634 C   0  0  0  0  0  0  0  0  0  0  0  0
   23.7827   10.3789   31.4017 O   0  0  0  0  0  0  0  0  0  0  0  0
   22.7373   10.6417   30.8195 C   0  0  0  0  0  0  0  0  0  0  0  0
   22.3714   10.1427   29.5967 N   0  0  0  0  0  0  0  0  0  0  0  0
   22.9842    9.5066   29.1069 H   0  0  0  0  0  0  0  0  0  0  0  0
   21.4889   10.4110   29.1853 H   0  0  0  0  0  0  0  0  0  0  0  0
   21.4860    5.4672   31.1972 N   0  0  0  0  0  0  0  0  0  0  0  0
   21.0149    4.5784   31.1071 H   0  0  0  0  0  0  0  0  0  0  0  0
   22.7889    5.5749   30.6709 C   0  0  0  0  0  0  0  0  0  0  0  0
   23.7446    4.6542   31.0440 C   0  0  0  0  0  0  0  0  0  0  0  0
   23.1340    6.5689   29.7799 C   0  0  0  0  0  0  0  0  0  0  0  0
   24.4163    6.6440   29.2843 C   0  0  0  0  0  0  0  0  0  0  0  0
   25.3714    5.7205   29.6549 C   0  0  0  0  0  0  0  0  0  0  0  0
   25.0337    4.7202   30.5435 C   0  0  0  0  0  0  0  0  0  0  0  0
   23.3250    3.6808   31.9407 O   0  0  0  0  0  0  0  0  0  0  0  0
   24.4449    2.9464   32.4160 C   0  0  0  0  0  0  0  0  0  0  0  0
   26.7559    5.8320   29.1036 C   0  0  0  0  0  0  0  0  0  0  0  0
   26.8975    4.7471   27.7006 S   0  0  0  0  0  0  0  0  0  0  0  0
   25.5903    4.5917   27.0901 O   0  0  0  0  0  0  0  0  0  0  0  0
   27.6544    3.5856   28.1290 O   0  0  0  0  0  0  0  0  0  0  0  0
   27.9092    5.6890   26.5991 C   0  0  0  0  0  0  0  0  0  0  0  0
  1  2  2  0  0  0
  1  3  1  0  0  0
  1 11  1  0  0  0
  2 10  1  0  0  0
  3  4  2  0  0  0
  3  8  1  0  0  0
  4  5  1  0  0  0
  4  9  1  0  0  0
  5  6  1  0  0  0
  5  7  1  0  0  0
  7  8  2  0  0  0
  9 10  2  0  0  0
 10 25  1  0  0  0
 25 26  1  0  0  0
 25 27  1  0  0  0
 27 28  2  0  0  0
 27 29  1  0  0  0
 28 33  1  0  0  0
 28 32  1  0  0  0
 33 34  1  0  0  0
 29 30  2  0  0  0
 30 31  1  0  0  0
 31 32  2  0  0  0
 31 35  1  0  0  0
 35 36  1  0  0  0
 36 37  2  0  0  0
 36 38  2  0  0  0
 36 39  1  0  0  0
 20 21  2  0  0  0
 21 22  1  0  0  0
 21 13  1  0  0  0
 22 23  1  0  0  0
 22 24  1  0  0  0
 13 14  2  0  0  0
 13 19  1  0  0  0
 14 15  1  0  0  0
 14 16  1  0  0  0
 16 17  2  0  0  0
 17 18  1  0  0  0
 18 19  2  0  0  0
 19 11  1  0  0  0
 11 12  1  0  0  0
M  END
> <minimizedAffinity>
-10.11474

$$$$
3ELJ.A


 39 42  0  0  0  0  0  0  0  0999 V2000
   20.7870    8.6405   32.2546 C   0  0  0  0  0  0  0  0  0  0  0  0
   21.3762    7.6089   31.6249 N   0  0  0  0  0  0  0  0  0  0  0  0
   19.5373    8.4052   32.7892 C   0  0  0  0  0  0  0  0  0  0  0  0
   19.0015    7.1518   32.6388 C   0  0  0  0  0  0  0  0  0  0  0  0
   17.7735    7.1449   33.2349 N   0  0  0  0  0  0  0  0  0  0  0  0
   17.1519    6.3497   33.2735 H   0  0  0  0  0  0  0  0  0  0  0  0
   17.5100    8.3729   33.7712 C   0  0  0  0  0  0  0  0  0  0  0  0
   18.5931    9.1832   33.5088 C   0  0  0  0  0  0  0  0  0  0  0  0
   19.5690    6.1212   32.0230 N   0  0  0  0  0  0  0  0  0  0  0  0
   20.7744    6.4167   31.5313 C   0  0  0  0  0  0  0  0  0  0  0  0
   21.3077    9.9288   32.4194 N   0  0  0  0  0  0  0  0  0  0  0  0
   20.6928   10.6021   32.8539 H   0  0  0  0  0  0  0  0  0  0  0  0
   22.6813   11.6897   31.5703 C   0  0  0  0  0  0  0  0  0  0  0  0
   23.9053   12.2041   31.2001 C   0  0  0  0  0  0  0  0  0  0  0  0
   24.0117   13.4555   30.7282 F   0  0  0  0  0  0  0  0  0  0  0  0
   25.0384   11.4318   31.3110 C   0  0  0  0  0  0  0  0  0  0  0  0
   24.9411   10.1470   31.7943 C   0  0  0  0  0  0  0  0  0  0  0  0
   23.7165    9.6370   32.1653 C   0  0  0  0  0  0  0  0  0  0  0  0
   22.5744   10.4005   32.0571 C   0  0  0  0  0  0  0  0  0  0  0  0
   20.7353   12.6944   32.4182 O   0  0  0  0  0  0  0  0  0  0  0  0
   21.4656   12.5162   31.4509 C   0  0  0  0  0  0  0  0  0  0  0  0
   21.2554   13.0363   30.2005 N   0  0  0  0  0  0  0  0  0  0  0  0
   20.4472   13.6158   30.0239 H   0  0  0  0  0  0  0  0  0  0  0  0
   21.9086   12.8400   29.4556 H   0  0  0  0  0  0  0  0  0  0  0  0
   21.4206    5.3576   30.8630 N   0  0  0  0  0  0  0  0  0  0  0  0
   20.9086    4.8791   30.1357 H   0  0  0  0  0  0  0  0  0  0  0  0
   22.7314    4.9195   31.1387 C   0  0  0  0  0  0  0  0  0  0  0  0
   23.7783    5.4122   30.3891 C   0  0  0  0  0  0  0  0  0  0  0  0
   23.0010    4.0203   32.1485 C   0  0  0  0  0  0  0  0  0  0  0  0
   24.2940    3.6144   32.3914 C   0  0  0  0  0  0  0  0  0  0  0  0
   25.3416    4.1103   31.6438 C   0  0  0  0  0  0  0  0  0  0  0  0
   25.0813    5.0133   30.6334 C   0  0  0  0  0  0  0  0  0  0  0  0
   23.4325    6.3153   29.3929 O   0  0  0  0  0  0  0  0  0  0  0  0
   24.3011    7.4393   29.4368 C   0  0  0  0  0  0  0  0  0  0  0  0
   26.7334    3.6463   31.9284 C   0  0  0  0  0  0  0  0  0  0  0  0
   27.3225    2.7240   30.5257 S   0  0  0  0  0  0  0  0  0  0  0  0
   27.8493    3.6492   29.5397 O   0  0  0  0  0  0  0  0  0  0  0  0
   26.2844    1.7757   30.1669 O   0  0  0  0  0  0  0  0  0  0  0  0
   28.6791    1.8228   31.2126 C   0  0  0  0  0  0  0  0  0  0  0  0
  1  2  2  0  0  0
  1  3  1  0  0  0
  1 11  1  0  0  0
  2 10  1  0  0  0
  3  4  2  0  0  0
  3  8  1  0  0  0
  4  5  1  0  0  0
  4  9  1  0  0  0
  5  6  1  0  0  0
  5  7  1  0  0  0
  7  8  2  0  0  0
  9 10  2  0  0  0
 10 25  1  0  0  0
 25 26  1  0  0  0
 25 27  1  0  0  0
 27 28  2  0  0  0
 27 29  1  0  0  0
 28 33  1  0  0  0
 28 32  1  0  0  0
 33 34  1  0  0  0
 29 30  2  0  0  0
 30 31  1  0  0  0
 31 32  2  0  0  0
 31 35  1  0  0  0
 35 36  1  0  0  0
 36 37  2  0  0  0
 36 38  2  0  0  0
 36 39  1  0  0  0
 20 21  2  0  0  0
 21 22  1  0  0  0
 21 13  1  0  0  0
 22 23  1  0  0  0
 22 24  1  0  0  0
 13 14  2  0  0  0
 13 19  1  0  0  0
 14 15  1  0  0  0
 14 16  1  0  0  0
 16 17  2  0  0  0
 17 18  1  0  0  0
 18 19  2  0  0  0
 19 11  1  0  0  0
 11 12  1  0  0  0
M  END
> <minimizedAffinity>
-9.95112

$$$$
3ELJ.A


 39 42  0  0  0  0  0  0  0  0999 V2000
   21.0893    8.5036   32.4496 C   0  0  0  0  0  0  0  0  0  0  0  0
   21.6967    7.5257   31.7548 N   0  0  0  0  0  0  0  0  0  0  0  0
   19.7805    8.2759   32.8209 C   0  0  0  0  0  0  0  0  0  0  0  0
   19.2092    7.0835   32.4570 C   0  0  0  0  0  0  0  0  0  0  0  0
   17.9252    7.0733   32.9204 N   0  0  0  0  0  0  0  0  0  0  0  0
   17.2687    6.3163   32.7934 H   0  0  0  0  0  0  0  0  0  0  0  0
   17.6601    8.2386   33.5813 C   0  0  0  0  0  0  0  0  0  0  0  0
   18.7997    9.0118   33.5359 C   0  0  0  0  0  0  0  0  0  0  0  0
   19.7935    6.1061   31.7739 N   0  0  0  0  0  0  0  0  0  0  0  0
   21.0565    6.3905   31.4483 C   0  0  0  0  0  0  0  0  0  0  0  0
   21.6456    9.7297   32.8307 N   0  0  0  0  0  0  0  0  0  0  0  0
   22.3785    9.6863   33.5243 H   0  0  0  0  0  0  0  0  0  0  0  0
   21.9179   11.4700   31.2164 C   0  0  0  0  0  0  0  0  0  0  0  0
   21.6249   12.7216   30.7190 C   0  0  0  0  0  0  0  0  0  0  0  0
   22.2103   13.1712   29.5986 F   0  0  0  0  0  0  0  0  0  0  0  0
   20.7230   13.5284   31.3732 C   0  0  0  0  0  0  0  0  0  0  0  0
   20.1162   13.0773   32.5230 C   0  0  0  0  0  0  0  0  0  0  0  0
   20.4097   11.8250   33.0160 C   0  0  0  0  0  0  0  0  0  0  0  0
   21.3128   11.0086   32.3703 C   0  0  0  0  0  0  0  0  0  0  0  0
   24.0288   10.4789   30.9384 O   0  0  0  0  0  0  0  0  0  0  0  0
   22.8855   10.6044   30.5165 C   0  0  0  0  0  0  0  0  0  0  0  0
   22.3877    9.9876   29.3985 N   0  0  0  0  0  0  0  0  0  0  0  0
   22.9784    9.3751   28.8544 H   0  0  0  0  0  0  0  0  0  0  0  0
   21.4303   10.1456   29.1187 H   0  0  0  0  0  0  0  0  0  0  0  0
   21.7233    5.3869   30.7175 N   0  0  0  0  0  0  0  0  0  0  0  0
   21.2640    5.0202   29.8962 H   0  0  0  0  0  0  0  0  0  0  0  0
   22.9863    4.8592   31.0529 C   0  0  0  0  0  0  0  0  0  0  0  0
   24.0994    5.2817   30.3578 C   0  0  0  0  0  0  0  0  0  0  0  0
   23.1448    3.9403   32.0685 C   0  0  0  0  0  0  0  0  0  0  0  0
   24.3939    3.4460   32.3705 C   0  0  0  0  0  0  0  0  0  0  0  0
   25.5078    3.8716   31.6773 C   0  0  0  0  0  0  0  0  0  0  0  0
   25.3588    4.7938   30.6617 C   0  0  0  0  0  0  0  0  0  0  0  0
   23.8646    6.2098   29.3522 O   0  0  0  0  0  0  0  0  0  0  0  0
   24.7083    7.3394   29.5304 C   0  0  0  0  0  0  0  0  0  0  0  0
   26.8493    3.3125   32.0254 C   0  0  0  0  0  0  0  0  0  0  0  0
   27.3589    2.2088   30.7264 S   0  0  0  0  0  0  0  0  0  0  0  0
   26.2379    1.9807   29.8336 O   0  0  0  0  0  0  0  0  0  0  0  0
   28.0417    1.0923   31.3531 O   0  0  0  0  0  0  0  0  0  0  0  0
   28.5604    3.1756   29.8628 C   0  0  0  0  0  0  0  0  0  0  0  0
  1  2  2  0  0  0
  1  3  1  0  0  0
  1 11  1  0  0  0
  2 10  1  0  0  0
  3  4  2  0  0  0
  3  8  1  0  0  0
  4  5  1  0  0  0
  4  9  1  0  0  0
  5  6  1  0  0  0
  5  7  1  0  0  0
  7  8  2  0  0  0
  9 10  2  0  0  0
 10 25  1  0  0  0
 25 26  1  0  0  0
 25 27  1  0  0  0
 27 28  2  0  0  0
 27 29  1  0  0  0
 28 33  1  0  0  0
 28 32  1  0  0  0
 33 34  1  0  0  0
 29 30  2  0  0  0
 30 31  1  0  0  0
 31 32  2  0  0  0
 31 35  1  0  0  0
 35 36  1  0  0  0
 36 37  2  0  0  0
 36 38  2  0  0  0
 36 39  1  0  0  0
 20 21  2  0  0  0
 21 22  1  0  0  0
 21 13  1  0  0  0
 22 23  1  0  0  0
 22 24  1  0  0  0
 13 14  2  0  0  0
 13 19  1  0  0  0
 14 15  1  0  0  0
 14 16  1  0  0  0
 16 17  2  0  0  0
 17 18  1  0  0  0
 18 19  2  0  0  0
 19 11  1  0  0  0
 11 12  1  0  0  0
M  END
> <minimizedAffinity>
-9.93889

$$$$
3ELJ.A


 39 42  0  0  0  0  0  0  0  0999 V2000
   22.3541    6.7806   30.5958 C   0  0  0  0  0  0  0  0  0  0  0  0
   22.7579    7.9370   30.0411 N   0  0  0  0  0  0  0  0  0  0  0  0
   21.4132    6.8730   31.6003 C   0  0  0  0  0  0  0  0  0  0  0  0
   20.9685    8.1225   31.9489 C   0  0  0  0  0  0  0  0  0  0  0  0
   20.0548    7.9789   32.9529 N   0  0  0  0  0  0  0  0  0  0  0  0
   19.5660    8.7383   33.4053 H   0  0  0  0  0  0  0  0  0  0  0  0
   19.8997    6.6561   33.2549 C   0  0  0  0  0  0  0  0  0  0  0  0
   20.7358    5.9391   32.4271 C   0  0  0  0  0  0  0  0  0  0  0  0
   21.3534    9.2741   31.4113 N   0  0  0  0  0  0  0  0  0  0  0  0
   22.2622    9.1126   30.4469 C   0  0  0  0  0  0  0  0  0  0  0  0
   22.7928    5.4942   30.2632 N   0  0  0  0  0  0  0  0  0  0  0  0
   22.3222    5.0538   29.4855 H   0  0  0  0  0  0  0  0  0  0  0  0
   25.0996    4.8917   30.4204 C   0  0  0  0  0  0  0  0  0  0  0  0
   26.1317    4.1758   30.9878 C   0  0  0  0  0  0  0  0  0  0  0  0
   27.3916    4.3203   30.5499 F   0  0  0  0  0  0  0  0  0  0  0  0
   25.8768    3.2982   32.0161 C   0  0  0  0  0  0  0  0  0  0  0  0
   24.5884    3.1424   32.4736 C   0  0  0  0  0  0  0  0  0  0  0  0
   23.5596    3.8612   31.9057 C   0  0  0  0  0  0  0  0  0  0  0  0
   23.8025    4.7419   30.8739 C   0  0  0  0  0  0  0  0  0  0  0  0
   25.1507    5.5112   28.1557 O   0  0  0  0  0  0  0  0  0  0  0  0
   25.3714    5.8321   29.3172 C   0  0  0  0  0  0  0  0  0  0  0  0
   25.8726    7.0434   29.7166 N   0  0  0  0  0  0  0  0  0  0  0  0
   26.0891    7.7517   29.0298 H   0  0  0  0  0  0  0  0  0  0  0  0
   26.0255    7.2280   30.6977 H   0  0  0  0  0  0  0  0  0  0  0  0
   22.7090   10.3055   29.8442 N   0  0  0  0  0  0  0  0  0  0  0  0
   23.0966   10.2450   28.9135 H   0  0  0  0  0  0  0  0  0  0  0  0
   22.6526   11.5769   30.4494 C   0  0  0  0  0  0  0  0  0  0  0  0
   23.7543   12.0482   31.1311 C   0  0  0  0  0  0  0  0  0  0  0  0
   21.5296   12.3727   30.3679 C   0  0  0  0  0  0  0  0  0  0  0  0
   21.5092   13.6106   30.9702 C   0  0  0  0  0  0  0  0  0  0  0  0
   22.6128   14.0833   31.6491 C   0  0  0  0  0  0  0  0  0  0  0  0
   23.7423   13.2951   31.7326 C   0  0  0  0  0  0  0  0  0  0  0  0
   24.8490   11.1951   31.1689 O   0  0  0  0  0  0  0  0  0  0  0  0
   24.8227   10.4277   32.3647 C   0  0  0  0  0  0  0  0  0  0  0  0
   22.5578   15.4291   32.2967 C   0  0  0  0  0  0  0  0  0  0  0  0
   21.8534   16.5860   31.1431 S   0  0  0  0  0  0  0  0  0  0  0  0
   22.2200   17.9324   31.5412 O   0  0  0  0  0  0  0  0  0  0  0  0
   20.4597   16.2229   30.9657 O   0  0  0  0  0  0  0  0  0  0  0  0
   22.7180   16.2004   29.6504 C   0  0  0  0  0  0  0  0  0  0  0  0
  1  2  2  0  0  0
  1  3  1  0  0  0
  1 11  1  0  0  0
  2 10  1  0  0  0
  3  4  2  0  0  0
  3  8  1  0  0  0
  4  5  1  0  0  0
  4  9  1  0  0  0
  5  6  1  0  0  0
  5  7  1  0  0  0
  7  8  2  0  0  0
  9 10  2  0  0  0
 10 25  1  0  0  0
 25 26  1  0  0  0
 25 27  1  0  0  0
 27 28  2  0  0  0
 27 29  1  0  0  0
 28 33  1  0  0  0
 28 32  1  0  0  0
 33 34  1  0  0  0
 29 30  2  0  0  0
 30 31  1  0  0  0
 31 32  2  0  0  0
 31 35  1  0  0  0
 35 36  1  0  0  0
 36 37  2  0  0  0
 36 38  2  0  0  0
 36 39  1  0  0  0
 20 21  2  0  0  0
 21 22  1  0  0  0
 21 13  1  0  0  0
 22 23  1  0  0  0
 22 24  1  0  0  0
 13 14  2  0  0  0
 13 19  1  0  0  0
 14 15  1  0  0  0
 14 16  1  0  0  0
 16 17  2  0  0  0
 17 18  1  0  0  0
 18 19  2  0  0  0
 19 11  1  0  0  0
 11 12  1  0  0  0
M  END
> <minimizedAffinity>
-9.52113

$$$$
3ELJ.A


 39 42  0  0  0  0  0  0  0  0999 V2000
   24.6748    7.2574   29.9705 C   0  0  0  0  0  0  0  0  0  0  0  0
   24.1908    8.4440   29.5636 N   0  0  0  0  0  0  0  0  0  0  0  0
   23.8051    6.4401   30.6622 C   0  0  0  0  0  0  0  0  0  0  0  0
   22.5300    6.8971   30.8768 C   0  0  0  0  0  0  0  0  0  0  0  0
   21.8517    5.9394   31.5743 N   0  0  0  0  0  0  0  0  0  0  0  0
   20.8892    6.0112   31.8721 H   0  0  0  0  0  0  0  0  0  0  0  0
   22.6677    4.8699   31.8095 C   0  0  0  0  0  0  0  0  0  0  0  0
   23.8958    5.1525   31.2524 C   0  0  0  0  0  0  0  0  0  0  0  0
   22.0341    8.0636   30.4809 N   0  0  0  0  0  0  0  0  0  0  0  0
   22.9263    8.8027   29.8178 C   0  0  0  0  0  0  0  0  0  0  0  0
   25.9701    6.7678   29.7692 N   0  0  0  0  0  0  0  0  0  0  0  0
   26.5764    6.7758   30.5770 H   0  0  0  0  0  0  0  0  0  0  0  0
   27.4832    7.0305   27.9388 C   0  0  0  0  0  0  0  0  0  0  0  0
   28.0673    6.5850   26.7726 C   0  0  0  0  0  0  0  0  0  0  0  0
   28.9934    7.3225   26.1414 F   0  0  0  0  0  0  0  0  0  0  0  0
   27.7019    5.3702   26.2402 C   0  0  0  0  0  0  0  0  0  0  0  0
   26.7534    4.6052   26.8796 C   0  0  0  0  0  0  0  0  0  0  0  0
   26.1733    5.0526   28.0461 C   0  0  0  0  0  0  0  0  0  0  0  0
   26.5301    6.2684   28.5879 C   0  0  0  0  0  0  0  0  0  0  0  0
   27.2223    9.3416   28.2649 O   0  0  0  0  0  0  0  0  0  0  0  0
   27.8733    8.3331   28.5101 C   0  0  0  0  0  0  0  0  0  0  0  0
   28.9885    8.2911   29.3055 N   0  0  0  0  0  0  0  0  0  0  0  0
   29.3307    9.1360   29.7405 H   0  0  0  0  0  0  0  0  0  0  0  0
   29.4683    7.4153   29.4566 H   0  0  0  0  0  0  0  0  0  0  0  0
   22.4525   10.0548   29.3776 N   0  0  0  0  0  0  0  0  0  0  0  0
   21.9994   10.0950   28.4758 H   0  0  0  0  0  0  0  0  0  0  0  0
   22.5667   11.2547   30.1079 C   0  0  0  0  0  0  0  0  0  0  0  0
   23.5710   12.1440   29.7901 C   0  0  0  0  0  0  0  0  0  0  0  0
   21.6923   11.5737   31.1250 C   0  0  0  0  0  0  0  0  0  0  0  0
   21.8322   12.7555   31.8174 C   0  0  0  0  0  0  0  0  0  0  0  0
   22.8349   13.6467   31.4968 C   0  0  0  0  0  0  0  0  0  0  0  0
   23.7123   13.3372   30.4778 C   0  0  0  0  0  0  0  0  0  0  0  0
   24.4107   11.7584   28.7538 O   0  0  0  0  0  0  0  0  0  0  0  0
   25.1186   12.8873   28.2597 C   0  0  0  0  0  0  0  0  0  0  0  0
   22.9638   14.9189   32.2704 C   0  0  0  0  0  0  0  0  0  0  0  0
   22.1730   16.2230   31.3544 S   0  0  0  0  0  0  0  0  0  0  0  0
   22.5152   16.0888   29.9506 O   0  0  0  0  0  0  0  0  0  0  0  0
   22.4313   17.4637   32.0612 O   0  0  0  0  0  0  0  0  0  0  0  0
   20.4605   15.8278   31.5420 C   0  0  0  0  0  0  0  0  0  0  0  0
  1  2  2  0  0  0
  1  3  1  0  0  0
  1 11  1  0  0  0
  2 10  1  0  0  0
  3  4  2  0  0  0
  3  8  1  0  0  0
  4  5  1  0  0  0
  4  9  1  0  0  0
  5  6  1  0  0  0
  5  7  1  0  0  0
  7  8  2  0  0  0
  9 10  2  0  0  0
 10 25  1  0  0  0
 25 26  1  0  0  0
 25 27  1  0  0  0
 27 28  2  0  0  0
 27 29  1  0  0  0
 28 33  1  0  0  0
 28 32  1  0  0  0
 33 34  1  0  0  0
 29 30  2  0  0  0
 30 31  1  0  0  0
 31 32  2  0  0  0
 31 35  1  0  0  0
 35 36  1  0  0  0
 36 37  2  0  0  0
 36 38  2  0  0  0
 36 39  1  0  0  0
 20 21  2  0  0  0
 21 22  1  0  0  0
 21 13  1  0  0  0
 22 23  1  0  0  0
 22 24  1  0  0  0
 13 14  2  0  0  0
 13 19  1  0  0  0
 14 15  1  0  0  0
 14 16  1  0  0  0
 16 17  2  0  0  0
 17 18  1  0  0  0
 18 19  2  0  0  0
 19 11  1  0  0  0
 11 12  1  0  0  0
M  END
> <minimizedAffinity>
-9.25045

$$$$
3ELJ.A


 39 42  0  0  0  0  0  0  0  0999 V2000
   25.0857    5.3308   30.8644 C   0  0  0  0  0  0  0  0  0  0  0  0
   24.0281    6.1607   30.8380 N   0  0  0  0  0  0  0  0  0  0  0  0
   24.8981    4.1109   31.4803 C   0  0  0  0  0  0  0  0  0  0  0  0
   23.6616    3.8438   32.0101 C   0  0  0  0  0  0  0  0  0  0  0  0
   23.7023    2.5976   32.5657 N   0  0  0  0  0  0  0  0  0  0  0  0
   22.9286    2.1444   33.0309 H   0  0  0  0  0  0  0  0  0  0  0  0
   24.9442    2.0545   32.3994 C   0  0  0  0  0  0  0  0  0  0  0  0
   25.7150    2.9762   31.7250 C   0  0  0  0  0  0  0  0  0  0  0  0
   22.6059    4.6491   31.9914 N   0  0  0  0  0  0  0  0  0  0  0  0
   22.8556    5.8095   31.3805 C   0  0  0  0  0  0  0  0  0  0  0  0
   26.3577    5.5782   30.3364 N   0  0  0  0  0  0  0  0  0  0  0  0
   27.0579    5.8867   30.9957 H   0  0  0  0  0  0  0  0  0  0  0  0
   27.1168    6.5979   28.3133 C   0  0  0  0  0  0  0  0  0  0  0  0
   27.5403    6.5293   27.0035 C   0  0  0  0  0  0  0  0  0  0  0  0
   27.8684    7.6406   26.3272 F   0  0  0  0  0  0  0  0  0  0  0  0
   27.6301    5.3103   26.3722 C   0  0  0  0  0  0  0  0  0  0  0  0
   27.2966    4.1639   27.0564 C   0  0  0  0  0  0  0  0  0  0  0  0
   26.8758    4.2360   28.3661 C   0  0  0  0  0  0  0  0  0  0  0  0
   26.7803    5.4515   29.0083 C   0  0  0  0  0  0  0  0  0  0  0  0
   25.9312    8.4450   29.1489 O   0  0  0  0  0  0  0  0  0  0  0  0
   27.0192    7.9042   28.9910 C   0  0  0  0  0  0  0  0  0  0  0  0
   28.2204    8.4190   29.4035 N   0  0  0  0  0  0  0  0  0  0  0  0
   28.2518    9.3103   29.8775 H   0  0  0  0  0  0  0  0  0  0  0  0
   29.0743    7.9071   29.2334 H   0  0  0  0  0  0  0  0  0  0  0  0
   21.7682    6.7048   31.3360 N   0  0  0  0  0  0  0  0  0  0  0  0
   20.8413    6.3246   31.4638 H   0  0  0  0  0  0  0  0  0  0  0  0
   21.8839    8.0935   31.1256 C   0  0  0  0  0  0  0  0  0  0  0  0
   21.4386    8.9620   32.0992 C   0  0  0  0  0  0  0  0  0  0  0  0
   22.4441    8.6114   29.9771 C   0  0  0  0  0  0  0  0  0  0  0  0
   22.5427    9.9738   29.8047 C   0  0  0  0  0  0  0  0  0  0  0  0
   22.1004   10.8424   30.7805 C   0  0  0  0  0  0  0  0  0  0  0  0
   21.5416   10.3327   31.9347 C   0  0  0  0  0  0  0  0  0  0  0  0
   20.8899    8.3698   33.2287 O   0  0  0  0  0  0  0  0  0  0  0  0
   19.6954    9.0459   33.5970 C   0  0  0  0  0  0  0  0  0  0  0  0
   22.2164   12.3162   30.5614 C   0  0  0  0  0  0  0  0  0  0  0  0
   23.8895   12.8118   30.9082 S   0  0  0  0  0  0  0  0  0  0  0  0
   24.6535   11.6458   31.3113 O   0  0  0  0  0  0  0  0  0  0  0  0
   23.8235   13.9822   31.7635 O   0  0  0  0  0  0  0  0  0  0  0  0
   24.4664   13.3230   29.3176 C   0  0  0  0  0  0  0  0  0  0  0  0
  1  2  2  0  0  0
  1  3  1  0  0  0
  1 11  1  0  0  0
  2 10  1  0  0  0
  3  4  2  0  0  0
  3  8  1  0  0  0
  4  5  1  0  0  0
  4  9  1  0  0  0
  5  6  1  0  0  0
  5  7  1  0  0  0
  7  8  2  0  0  0
  9 10  2  0  0  0
 10 25  1  0  0  0
 25 26  1  0  0  0
 25 27  1  0  0  0
 27 28  2  0  0  0
 27 29  1  0  0  0
 28 33  1  0  0  0
 28 32  1  0  0  0
 33 34  1  0  0  0
 29 30  2  0  0  0
 30 31  1  0  0  0
 31 32  2  0  0  0
 31 35  1  0  0  0
 35 36  1  0  0  0
 36 37  2  0  0  0
 36 38  2  0  0  0
 36 39  1  0  0  0
 20 21  2  0  0  0
 21 22  1  0  0  0
 21 13  1  0  0  0
 22 23  1  0  0  0
 22 24  1  0  0  0
 13 14  2  0  0  0
 13 19  1  0  0  0
 14 15  1  0  0  0
 14 16  1  0  0  0
 16 17  2  0  0  0
 17 18  1  0  0  0
 18 19  2  0  0  0
 19 11  1  0  0  0
 11 12  1  0  0  0
M  END
> <minimizedAffinity>
-9.11267

$$$$
3ELJ.A


 39 42  0  0  0  0  0  0  0  0999 V2000
   23.3738    5.5201   30.4506 C   0  0  0  0  0  0  0  0  0  0  0  0
   24.1701    5.7881   29.4008 N   0  0  0  0  0  0  0  0  0  0  0  0
   23.7480    4.4644   31.2558 C   0  0  0  0  0  0  0  0  0  0  0  0
   24.8900    3.7804   30.9262 C   0  0  0  0  0  0  0  0  0  0  0  0
   25.0657    2.7870   31.8460 N   0  0  0  0  0  0  0  0  0  0  0  0
   25.8282    2.1247   31.8458 H   0  0  0  0  0  0  0  0  0  0  0  0
   24.0573    2.8218   32.7663 C   0  0  0  0  0  0  0  0  0  0  0  0
   23.2170    3.8589   32.4246 C   0  0  0  0  0  0  0  0  0  0  0  0
   25.6894    4.0319   29.8961 N   0  0  0  0  0  0  0  0  0  0  0  0
   25.2705    5.0644   29.1608 C   0  0  0  0  0  0  0  0  0  0  0  0
   22.2028    6.1976   30.8079 N   0  0  0  0  0  0  0  0  0  0  0  0
   21.3378    5.7036   30.6414 H   0  0  0  0  0  0  0  0  0  0  0  0
   20.9911    7.7372   32.1755 C   0  0  0  0  0  0  0  0  0  0  0  0
   20.8239    8.9778   32.7523 C   0  0  0  0  0  0  0  0  0  0  0  0
   19.7672    9.2346   33.5380 F   0  0  0  0  0  0  0  0  0  0  0  0
   21.7465    9.9726   32.5247 C   0  0  0  0  0  0  0  0  0  0  0  0
   22.8345    9.7201   31.7209 C   0  0  0  0  0  0  0  0  0  0  0  0
   22.9996    8.4784   31.1478 C   0  0  0  0  0  0  0  0  0  0  0  0
   22.0812    7.4746   31.3672 C   0  0  0  0  0  0  0  0  0  0  0  0
   20.3485    5.5954   32.8936 O   0  0  0  0  0  0  0  0  0  0  0  0
   20.0023    6.6700   32.4179 C   0  0  0  0  0  0  0  0  0  0  0  0
   18.7183    6.9985   32.0695 N   0  0  0  0  0  0  0  0  0  0  0  0
   17.9727    6.3297   32.2000 H   0  0  0  0  0  0  0  0  0  0  0  0
   18.5174    7.9094   31.6823 H   0  0  0  0  0  0  0  0  0  0  0  0
   26.0818    5.3723   28.0504 N   0  0  0  0  0  0  0  0  0  0  0  0
   26.1034    4.7116   27.2868 H   0  0  0  0  0  0  0  0  0  0  0  0
   26.8651    6.5378   27.9311 C   0  0  0  0  0  0  0  0  0  0  0  0
   27.6423    6.7152   26.8065 C   0  0  0  0  0  0  0  0  0  0  0  0
   26.8665    7.5163   28.9025 C   0  0  0  0  0  0  0  0  0  0  0  0
   27.6431    8.6433   28.7531 C   0  0  0  0  0  0  0  0  0  0  0  0
   28.4178    8.8223   27.6262 C   0  0  0  0  0  0  0  0  0  0  0  0
   28.4196    7.8497   26.6473 C   0  0  0  0  0  0  0  0  0  0  0  0
   27.5884    5.6917   25.8699 O   0  0  0  0  0  0  0  0  0  0  0  0
   28.1425    6.1337   24.6383 C   0  0  0  0  0  0  0  0  0  0  0  0
   29.2539   10.0541   27.4958 C   0  0  0  0  0  0  0  0  0  0  0  0
   28.4741   11.1489   26.3301 S   0  0  0  0  0  0  0  0  0  0  0  0
   27.0347   10.9914   26.4245 O   0  0  0  0  0  0  0  0  0  0  0  0
   29.1530   10.9789   25.0590 O   0  0  0  0  0  0  0  0  0  0  0  0
   28.8953   12.7411   26.9717 C   0  0  0  0  0  0  0  0  0  0  0  0
  1  2  2  0  0  0
  1  3  1  0  0  0
  1 11  1  0  0  0
  2 10  1  0  0  0
  3  4  2  0  0  0
  3  8  1  0  0  0
  4  5  1  0  0  0
  4  9  1  0  0  0
  5  6  1  0  0  0
  5  7  1  0  0  0
  7  8  2  0  0  0
  9 10  2  0  0  0
 10 25  1  0  0  0
 25 26  1  0  0  0
 25 27  1  0  0  0
 27 28  2  0  0  0
 27 29  1  0  0  0
 28 33  1  0  0  0
 28 32  1  0  0  0
 33 34  1  0  0  0
 29 30  2  0  0  0
 30 31  1  0  0  0
 31 32  2  0  0  0
 31 35  1  0  0  0
 35 36  1  0  0  0
 36 37  2  0  0  0
 36 38  2  0  0  0
 36 39  1  0  0  0
 20 21  2  0  0  0
 21 22  1  0  0  0
 21 13  1  0  0  0
 22 23  1  0  0  0
 22 24  1  0  0  0
 13 14  2  0  0  0
 13 19  1  0  0  0
 14 15  1  0  0  0
 14 16  1  0  0  0
 16 17  2  0  0  0
 17 18  1  0  0  0
 18 19  2  0  0  0
 19 11  1  0  0  0
 11 12  1  0  0  0
M  END
> <minimizedAffinity>
-8.90851

$$$$
3ELJ.A


 39 42  0  0  0  0  0  0  0  0999 V2000
   22.8197    7.7256   31.0809 C   0  0  0  0  0  0  0  0  0  0  0  0
   23.7544    8.6815   30.9375 N   0  0  0  0  0  0  0  0  0  0  0  0
   21.7071    8.0569   31.8260 C   0  0  0  0  0  0  0  0  0  0  0  0
   21.6428    9.3207   32.3547 C   0  0  0  0  0  0  0  0  0  0  0  0
   20.4718    9.4276   33.0481 N   0  0  0  0  0  0  0  0  0  0  0  0
   20.1645   10.2522   33.5439 H   0  0  0  0  0  0  0  0  0  0  0  0
   19.7774    8.2542   32.9718 C   0  0  0  0  0  0  0  0  0  0  0  0
   20.5235    7.3770   32.2153 C   0  0  0  0  0  0  0  0  0  0  0  0
   22.5539   10.2775   32.2217 N   0  0  0  0  0  0  0  0  0  0  0  0
   23.6014    9.8914   31.4897 C   0  0  0  0  0  0  0  0  0  0  0  0
   22.8607    6.4288   30.5569 N   0  0  0  0  0  0  0  0  0  0  0  0
   22.3319    6.2772   29.7098 H   0  0  0  0  0  0  0  0  0  0  0  0
   24.7685    4.9912   30.5091 C   0  0  0  0  0  0  0  0  0  0  0  0
   25.4830    3.9058   30.9688 C   0  0  0  0  0  0  0  0  0  0  0  0
   26.6728    3.5894   30.4358 F   0  0  0  0  0  0  0  0  0  0  0  0
   24.9774    3.1299   31.9861 C   0  0  0  0  0  0  0  0  0  0  0  0
   23.7582    3.4455   32.5406 C   0  0  0  0  0  0  0  0  0  0  0  0
   23.0479    4.5323   32.0802 C   0  0  0  0  0  0  0  0  0  0  0  0
   23.5433    5.3158   31.0605 C   0  0  0  0  0  0  0  0  0  0  0  0
   24.9962    5.6046   28.2536 O   0  0  0  0  0  0  0  0  0  0  0  0
   25.3089    5.8232   29.4178 C   0  0  0  0  0  0  0  0  0  0  0  0
   26.1564    6.8178   29.8308 N   0  0  0  0  0  0  0  0  0  0  0  0
   26.5753    7.4383   29.1528 H   0  0  0  0  0  0  0  0  0  0  0  0
   26.3623    6.9302   30.8132 H   0  0  0  0  0  0  0  0  0  0  0  0
   24.6020   10.8692   31.3202 N   0  0  0  0  0  0  0  0  0  0  0  0
   24.8901   11.3925   32.1346 H   0  0  0  0  0  0  0  0  0  0  0  0
   25.2287   11.1677   30.0938 C   0  0  0  0  0  0  0  0  0  0  0  0
   24.6355   12.0692   29.2358 C   0  0  0  0  0  0  0  0  0  0  0  0
   26.4288   10.5940   29.7310 C   0  0  0  0  0  0  0  0  0  0  0  0
   27.0141   10.9093   28.5254 C   0  0  0  0  0  0  0  0  0  0  0  0
   26.4223   11.8139   27.6688 C   0  0  0  0  0  0  0  0  0  0  0  0
   25.2228   12.3956   28.0254 C   0  0  0  0  0  0  0  0  0  0  0  0
   23.4316   12.6090   29.6680 O   0  0  0  0  0  0  0  0  0  0  0  0
   23.4311   14.0152   29.4631 C   0  0  0  0  0  0  0  0  0  0  0  0
   27.0798   12.1315   26.3648 C   0  0  0  0  0  0  0  0  0  0  0  0
   27.8010   13.7542   26.4729 S   0  0  0  0  0  0  0  0  0  0  0  0
   26.9051   14.6206   27.2161 O   0  0  0  0  0  0  0  0  0  0  0  0
   28.2424   14.1190   25.1395 O   0  0  0  0  0  0  0  0  0  0  0  0
   29.2328   13.4626   27.4673 C   0  0  0  0  0  0  0  0  0  0  0  0
  1  2  2  0  0  0
  1  3  1  0  0  0
  1 11  1  0  0  0
  2 10  1  0  0  0
  3  4  2  0  0  0
  3  8  1  0  0  0
  4  5  1  0  0  0
  4  9  1  0  0  0
  5  6  1  0  0  0
  5  7  1  0  0  0
  7  8  2  0  0  0
  9 10  2  0  0  0
 10 25  1  0  0  0
 25 26  1  0  0  0
 25 27  1  0  0  0
 27 28  2  0  0  0
 27 29  1  0  0  0
 28 33  1  0  0  0
 28 32  1  0  0  0
 33 34  1  0  0  0
 29 30  2  0  0  0
 30 31  1  0  0  0
 31 32  2  0  0  0
 31 35  1  0  0  0
 35 36  1  0  0  0
 36 37  2  0  0  0
 36 38  2  0  0  0
 36 39  1  0  0  0
 20 21  2  0  0  0
 21 22  1  0  0  0
 21 13  1  0  0  0
 22 23  1  0  0  0
 22 24  1  0  0  0
 13 14  2  0  0  0
 13 19  1  0  0  0
 14 15  1  0  0  0
 14 16  1  0  0  0
 16 17  2  0  0  0
 17 18  1  0  0  0
 18 19  2  0  0  0
 19 11  1  0  0  0
 11 12  1  0  0  0
M  END
> <minimizedAffinity>
-8.77925

$$$$
3ELJ.A


 39 42  0  0  0  0  0  0  0  0999 V2000
   23.5110    8.8789   30.1563 C   0  0  0  0  0  0  0  0  0  0  0  0
   23.2123    7.5682   30.1290 N   0  0  0  0  0  0  0  0  0  0  0  0
   24.8306    9.2162   29.9379 C   0  0  0  0  0  0  0  0  0  0  0  0
   25.7230    8.1996   29.7119 C   0  0  0  0  0  0  0  0  0  0  0  0
   26.9558    8.7556   29.5260 N   0  0  0  0  0  0  0  0  0  0  0  0
   27.8037    8.2383   29.3429 H   0  0  0  0  0  0  0  0  0  0  0  0
   26.8724   10.1152   29.6243 C   0  0  0  0  0  0  0  0  0  0  0  0
   25.5570   10.4343   29.8821 C   0  0  0  0  0  0  0  0  0  0  0  0
   25.4463    6.9013   29.6788 N   0  0  0  0  0  0  0  0  0  0  0  0
   24.1541    6.6456   29.8960 C   0  0  0  0  0  0  0  0  0  0  0  0
   22.6233    9.9354   30.3879 N   0  0  0  0  0  0  0  0  0  0  0  0
   22.6355   10.6807   29.7064 H   0  0  0  0  0  0  0  0  0  0  0  0
   21.4438   11.3653   31.8955 C   0  0  0  0  0  0  0  0  0  0  0  0
   20.5615   11.5716   32.9341 C   0  0  0  0  0  0  0  0  0  0  0  0
   20.2905   12.8108   33.3711 F   0  0  0  0  0  0  0  0  0  0  0  0
   19.9464   10.4994   33.5379 C   0  0  0  0  0  0  0  0  0  0  0  0
   20.2164    9.2239   33.0974 C   0  0  0  0  0  0  0  0  0  0  0  0
   21.0971    9.0217   32.0578 C   0  0  0  0  0  0  0  0  0  0  0  0
   21.7206   10.0878   31.4464 C   0  0  0  0  0  0  0  0  0  0  0  0
   23.2599   12.8089   31.5300 O   0  0  0  0  0  0  0  0  0  0  0  0
   22.1047   12.5140   31.2481 C   0  0  0  0  0  0  0  0  0  0  0  0
   21.3219   13.1803   30.3418 N   0  0  0  0  0  0  0  0  0  0  0  0
   21.6904   13.9809   29.8484 H   0  0  0  0  0  0  0  0  0  0  0  0
   20.3765   12.8708   30.1673 H   0  0  0  0  0  0  0  0  0  0  0  0
   23.8059    5.2803   29.8758 N   0  0  0  0  0  0  0  0  0  0  0  0
   23.3160    4.9325   29.0639 H   0  0  0  0  0  0  0  0  0  0  0  0
   24.0937    4.3663   30.9092 C   0  0  0  0  0  0  0  0  0  0  0  0
   25.1679    3.5129   30.7743 C   0  0  0  0  0  0  0  0  0  0  0  0
   23.3389    4.3094   32.0616 C   0  0  0  0  0  0  0  0  0  0  0  0
   23.6489    3.4047   33.0520 C   0  0  0  0  0  0  0  0  0  0  0  0
   24.7259    2.5535   32.9184 C   0  0  0  0  0  0  0  0  0  0  0  0
   25.4890    2.6060   31.7699 C   0  0  0  0  0  0  0  0  0  0  0  0
   25.8838    3.6288   29.5904 O   0  0  0  0  0  0  0  0  0  0  0  0
   27.2708    3.7524   29.8742 C   0  0  0  0  0  0  0  0  0  0  0  0
   25.0336    1.5790   34.0089 C   0  0  0  0  0  0  0  0  0  0  0  0
   24.3506   -0.0030   33.5662 S   0  0  0  0  0  0  0  0  0  0  0  0
   25.4029   -0.8325   33.0091 O   0  0  0  0  0  0  0  0  0  0  0  0
   23.1340    0.2478   32.8161 O   0  0  0  0  0  0  0  0  0  0  0  0
   23.9006   -0.6706   35.1397 C   0  0  0  0  0  0  0  0  0  0  0  0
  1  2  2  0  0  0
  1  3  1  0  0  0
  1 11  1  0  0  0
  2 10  1  0  0  0
  3  4  2  0  0  0
  3  8  1  0  0  0
  4  5  1  0  0  0
  4  9  1  0  0  0
  5  6  1  0  0  0
  5  7  1  0  0  0
  7  8  2  0  0  0
  9 10  2  0  0  0
 10 25  1  0  0  0
 25 26  1  0  0  0
 25 27  1  0  0  0
 27 28  2  0  0  0
 27 29  1  0  0  0
 28 33  1  0  0  0
 28 32  1  0  0  0
 33 34  1  0  0  0
 29 30  2  0  0  0
 30 31  1  0  0  0
 31 32  2  0  0  0
 31 35  1  0  0  0
 35 36  1  0  0  0
 36 37  2  0  0  0
 36 38  2  0  0  0
 36 39  1  0  0  0
 20 21  2  0  0  0
 21 22  1  0  0  0
 21 13  1  0  0  0
 22 23  1  0  0  0
 22 24  1  0  0  0
 13 14  2  0  0  0
 13 19  1  0  0  0
 14 15  1  0  0  0
 14 16  1  0  0  0
 16 17  2  0  0  0
 17 18  1  0  0  0
 18 19  2  0  0  0
 19 11  1  0  0  0
 11 12  1  0  0  0
M  END
> <minimizedAffinity>
-8.52924

$$$$
