# created with PyMOL 2.5.2
@<TRIPOS>MOLECULE
3npc.B
41 45 1                 
SMALL
USER_CHARGES
@<TRIPOS>ATOM
1	   C	55.052	93.235	23.143	C.2	1	UNK0	0.000	
2	   O	53.925	93.670	22.954	O.2	1	UNK0	0.000	
3	   N	55.834	93.724	24.147	N.pl3	1	UNK0	0.000	
4	   H	56.775	93.369	24.233	 H	1	UNK0	0.000	
5	   N	55.571	92.264	22.358	N.pl3	1	UNK0	0.000	
6	   H	56.523	91.979	22.537	 H	1	UNK0	0.000	
7	   C	55.404	94.695	25.068	C.2	1	UNK0	0.000	
8	   C	56.139	95.883	25.330	C.2	1	UNK0	0.000	
9	   C	55.629	96.807	26.296	C.2	1	UNK0	0.000	
10	   C	54.405	96.520	26.980	C.2	1	UNK0	0.000	
11	   C	53.728	95.366	26.697	C.2	1	UNK0	0.000	
12	   C	54.225	94.454	25.765	C.2	1	UNK0	0.000	
13	   C	57.350	96.182	24.660	C.2	1	UNK0	0.000	
14	   C	58.019	97.340	24.935	C.2	1	UNK0	0.000	
15	   C	57.529	98.252	25.885	C.2	1	UNK0	0.000	
16	   C	56.362	97.997	26.551	C.2	1	UNK0	0.000	
17	   O	53.938	97.416	27.906	O.3	1	UNK0	0.000	
18	   C	52.513	97.519	27.970	C.3	1	UNK0	0.000	
19	   C	52.169	98.643	28.957	C.3	1	UNK0	0.000	
20	   N	51.700	99.860	28.246	N.3	1	UNK0	0.000	
21	   C	50.423	100.335	28.826	C.3	1	UNK0	0.000	
22	   C	50.007	101.606	28.086	C.3	1	UNK0	0.000	
23	   O	49.761	101.261	26.720	O.3	1	UNK0	0.000	
24	   C	50.955	100.763	26.113	C.3	1	UNK0	0.000	
25	   C	51.420	99.502	26.843	C.3	1	UNK0	0.000	
26	   C	54.891	91.626	21.318	C.2	1	UNK0	0.000	
27	   N	54.908	90.280	21.112	N.pl3	1	UNK0	0.000	
28	   N	54.136	89.991	20.001	N.2	1	UNK0	0.000	
29	   C	53.645	91.107	19.537	C.3	1	UNK0	0.000	
30	   C	54.096	92.163	20.344	C.2	1	UNK0	0.000	
31	   C	55.594	89.311	21.848	C.2	1	UNK0	0.000	
32	   C	56.252	88.304	21.148	C.2	1	UNK0	0.000	
33	   C	56.929	87.333	21.857	C.2	1	UNK0	0.000	
34	   C	56.954	87.374	23.247	C.2	1	UNK0	0.000	
35	   C	56.296	88.375	23.938	C.2	1	UNK0	0.000	
36	   C	55.608	89.344	23.242	C.2	1	UNK0	0.000	
37	   C	57.703	86.315	24.004	C.3	1	UNK0	0.000	
38	   C	52.750	91.202	18.327	C.3	1	UNK0	0.000	
39	   C	53.600	91.733	17.173	C.3	1	UNK0	0.000	
40	   C	52.196	89.828	17.931	C.3	1	UNK0	0.000	
41	   C	51.567	92.127	18.622	C.3	1	UNK0	0.000	
@<TRIPOS>BOND
1 1 2 2
2 1 3 1
3 1 5 1
4 3 4 1
5 3 7 1
6 5 6 1
7 5 26 1
8 7 8 2
9 7 12 1
10 8 9 1
11 8 13 1
12 9 10 2
13 9 16 1
14 10 11 1
15 10 17 1
16 11 12 2
17 13 14 2
18 14 15 1
19 15 16 2
20 17 18 1
21 18 19 1
22 19 20 1
23 20 21 1
24 20 25 1
25 21 22 1
26 22 23 1
27 23 24 1
28 24 25 1
29 26 27 1
30 26 30 2
31 27 28 2
32 27 31 1
33 28 29 1
34 29 30 1
35 29 38 1
36 31 32 2
37 31 36 1
38 32 33 1
39 33 34 2
40 34 35 1
41 34 37 1
42 35 36 2
43 38 39 1
44 38 40 1
45 38 41 1
@<TRIPOS>SUBSTRUCTURE
1	UNK0	1	GROUP	1 ****	UNK
