3npc.B


 41 45  0  0  0  0  0  0  0  0999 V2000
   55.0519   93.2352   23.1426 C   0  0  0  0  0  0  0  0  0  0  0  0
   53.9254   93.6696   22.9542 O   0  0  0  0  0  0  0  0  0  0  0  0
   55.8336   93.7243   24.1466 N   0  0  0  0  0  0  0  0  0  0  0  0
   56.7751   93.3694   24.2331 H   0  0  0  0  0  0  0  0  0  0  0  0
   55.5709   92.2641   22.3579 N   0  0  0  0  0  0  0  0  0  0  0  0
   56.5229   91.9786   22.5373 H   0  0  0  0  0  0  0  0  0  0  0  0
   55.4036   94.6947   25.0684 C   0  0  0  0  0  0  0  0  0  0  0  0
   56.1395   95.8833   25.3297 C   0  0  0  0  0  0  0  0  0  0  0  0
   55.6294   96.8069   26.2961 C   0  0  0  0  0  0  0  0  0  0  0  0
   54.4046   96.5201   26.9799 C   0  0  0  0  0  0  0  0  0  0  0  0
   53.7278   95.3658   26.6973 C   0  0  0  0  0  0  0  0  0  0  0  0
   54.2253   94.4541   25.7653 C   0  0  0  0  0  0  0  0  0  0  0  0
   57.3498   96.1823   24.6602 C   0  0  0  0  0  0  0  0  0  0  0  0
   58.0193   97.3401   24.9353 C   0  0  0  0  0  0  0  0  0  0  0  0
   57.5295   98.2517   25.8851 C   0  0  0  0  0  0  0  0  0  0  0  0
   56.3620   97.9970   26.5505 C   0  0  0  0  0  0  0  0  0  0  0  0
   53.9380   97.4161   27.9058 O   0  0  0  0  0  0  0  0  0  0  0  0
   52.5133   97.5187   27.9700 C   0  0  0  0  0  0  0  0  0  0  0  0
   52.1687   98.6434   28.9571 C   0  0  0  0  0  0  0  0  0  0  0  0
   51.7002   99.8602   28.2457 N   0  0  0  0  0  0  0  0  0  0  0  0
   50.4229  100.3349   28.8255 C   0  0  0  0  0  0  0  0  0  0  0  0
   50.0074  101.6057   28.0855 C   0  0  0  0  0  0  0  0  0  0  0  0
   49.7606  101.2607   26.7198 O   0  0  0  0  0  0  0  0  0  0  0  0
   50.9554  100.7634   26.1130 C   0  0  0  0  0  0  0  0  0  0  0  0
   51.4199   99.5019   26.8434 C   0  0  0  0  0  0  0  0  0  0  0  0
   54.8909   91.6257   21.3179 C   0  0  0  0  0  0  0  0  0  0  0  0
   54.9079   90.2802   21.1120 N   0  0  0  0  0  0  0  0  0  0  0  0
   54.1363   89.9912   20.0014 N   0  0  0  0  0  0  0  0  0  0  0  0
   53.6451   91.1067   19.5372 C   0  0  0  0  0  0  0  0  0  0  0  0
   54.0963   92.1632   20.3438 C   0  0  0  0  0  0  0  0  0  0  0  0
   55.5942   89.3106   21.8478 C   0  0  0  0  0  0  0  0  0  0  0  0
   56.2518   88.3044   21.1480 C   0  0  0  0  0  0  0  0  0  0  0  0
   56.9286   87.3332   21.8572 C   0  0  0  0  0  0  0  0  0  0  0  0
   56.9540   87.3740   23.2471 C   0  0  0  0  0  0  0  0  0  0  0  0
   56.2958   88.3747   23.9377 C   0  0  0  0  0  0  0  0  0  0  0  0
   55.6076   89.3445   23.2420 C   0  0  0  0  0  0  0  0  0  0  0  0
   57.7026   86.3150   24.0037 C   0  0  0  0  0  0  0  0  0  0  0  0
   52.7501   91.2020   18.3270 C   0  0  0  0  0  0  0  0  0  0  0  0
   53.6002   91.7333   17.1727 C   0  0  0  0  0  0  0  0  0  0  0  0
   52.1962   89.8277   17.9307 C   0  0  0  0  0  0  0  0  0  0  0  0
   51.5670   92.1266   18.6217 C   0  0  0  0  0  0  0  0  0  0  0  0
  1  2  2  0  0  0
  1  3  1  0  0  0
  1  5  1  0  0  0
  3  4  1  0  0  0
  3  7  1  0  0  0
  7  8  2  0  0  0
  7 12  1  0  0  0
  8  9  1  0  0  0
  8 13  1  0  0  0
  9 10  2  0  0  0
  9 16  1  0  0  0
 10 11  1  0  0  0
 10 17  1  0  0  0
 11 12  2  0  0  0
  5  6  1  0  0  0
  5 26  1  0  0  0
 26 27  1  0  0  0
 26 30  2  0  0  0
 27 28  2  0  0  0
 27 31  1  0  0  0
 28 29  1  0  0  0
 29 30  1  0  0  0
 29 38  1  0  0  0
 31 32  2  0  0  0
 31 36  1  0  0  0
 38 39  1  0  0  0
 38 40  1  0  0  0
 38 41  1  0  0  0
 32 33  1  0  0  0
 33 34  2  0  0  0
 34 35  1  0  0  0
 34 37  1  0  0  0
 35 36  2  0  0  0
 13 14  2  0  0  0
 14 15  1  0  0  0
 15 16  2  0  0  0
 17 18  1  0  0  0
 18 19  1  0  0  0
 19 20  1  0  0  0
 20 21  1  0  0  0
 20 25  1  0  0  0
 21 22  1  0  0  0
 22 23  1  0  0  0
 23 24  1  0  0  0
 24 25  1  0  0  0
M  END
> <minimizedAffinity>
-14.11292

$$$$
