# created with PyMOL 2.5.2
@<TRIPOS>MOLECULE
3sx0.A
34 36 1                 
SMALL
USER_CHARGES
@<TRIPOS>ATOM
1	   C	21.620	63.618	-8.268	C.3	1	UNK0	0.000	
2	   O	20.194	63.335	-8.455	O.3	1	UNK0	0.000	
3	   C	22.198	63.898	-9.672	C.3	1	UNK0	0.000	
4	   O	23.187	62.891	-9.981	O.3	1	UNK0	0.000	
5	   H	23.481	63.041	-10.883	 H	1	UNK0	0.000	
6	   C	20.963	63.690	-10.590	C.3	1	UNK0	0.000	
7	   O	21.321	62.940	-11.703	O.3	1	UNK0	0.000	
8	   H	21.715	62.124	-11.389	 H	1	UNK0	0.000	
9	   C	20.115	62.731	-9.752	C.3	1	UNK0	0.000	
10	   N	16.000	59.678	-10.249	N.2	1	UNK0	0.000	
11	   C	17.244	59.419	-9.846	C.2	1	UNK0	0.000	
12	   N	18.198	60.342	-9.789	N.2	1	UNK0	0.000	
13	   C	17.920	61.601	-10.133	C.2	1	UNK0	0.000	
14	   C	16.643	61.918	-10.557	C.2	1	UNK0	0.000	
15	   C	15.660	60.916	-10.621	C.2	1	UNK0	0.000	
16	   N	14.409	61.141	-11.023	N.pl3	1	UNK0	0.000	
17	   H	14.128	62.071	-11.302	 H	1	UNK0	0.000	
18	   H	13.743	60.383	-11.050	 H	1	UNK0	0.000	
19	   C	16.711	63.270	-10.831	C.2	1	UNK0	0.000	
20	   C	17.948	63.728	-10.586	C.3	1	UNK0	0.000	
21	   N	18.678	62.697	-10.167	N.pl3	1	UNK0	0.000	
22	  Br	15.269	64.380	-11.434	Br	1	UNK0	0.000	
23	   C	21.617	64.807	-7.337	C.3	1	UNK0	0.000	
24	   S	23.305	65.240	-6.783	S.3	1	UNK0	0.000	
25	   C	23.537	64.148	-5.308	C.3	1	UNK0	0.000	
26	   C	24.537	63.014	-5.535	C.3	1	UNK0	0.000	
27	   N	23.757	62.341	-3.254	N.4	1	UNK0	0.000	
28	   H	23.576	63.307	-3.021	 H	1	UNK0	0.000	
29	   H	24.000	61.832	-2.416	 H	1	UNK0	0.000	
30	   H	22.929	61.934	-3.667	 H	1	UNK0	0.000	
31	   C	24.886	62.266	-4.227	C.3	1	UNK0	0.000	
32	   C	26.119	62.906	-3.577	C.2	1	UNK0	0.000	
33	   O	27.162	62.904	-4.245	O.co2	1	UNK0	0.000	
34	   O	26.002	63.361	-2.423	O.co2	1	UNK0	0.000	
@<TRIPOS>BOND
1 27 28 1
2 27 29 1
3 27 30 1
4 27 31 1
5 31 32 1
6 26 31 1
7 32 33 1
8 32 34 2
9 25 26 1
10 24 25 1
11 23 24 1
12 1 23 1
13 1 2 1
14 1 3 1
15 2 9 1
16 3 4 1
17 3 6 1
18 4 5 1
19 6 7 1
20 6 9 1
21 7 8 1
22 9 21 1
23 10 11 2
24 10 15 1
25 11 12 1
26 12 13 2
27 13 14 1
28 13 21 1
29 14 15 1
30 14 19 2
31 15 16 2
32 16 17 1
33 16 18 1
34 19 20 1
35 19 22 1
36 20 21 1
@<TRIPOS>SUBSTRUCTURE
1	UNK0	1	GROUP	1 ****	UNK
