# created with PyMOL 2.5.2
@<TRIPOS>MOLECULE
4agl.A
15 15 1                 
SMALL
USER_CHARGES
@<TRIPOS>ATOM
1	   C	91.711	99.032	-42.867	C.2	1	UNK0	0.000	
2	   C	92.023	97.839	-42.204	C.2	1	UNK0	0.000	
3	   C	91.598	96.614	-42.712	C.2	1	UNK0	0.000	
4	   C	90.842	96.546	-43.891	C.2	1	UNK0	0.000	
5	   C	90.951	98.959	-44.054	C.2	1	UNK0	0.000	
6	   C	90.519	97.727	-44.563	C.2	1	UNK0	0.000	
7	   O	92.783	97.902	-41.069	O.3	1	UNK0	0.000	
8	   H	92.988	97.053	-40.670	 H	1	UNK0	0.000	
9	   I	92.086	94.867	-41.640	 I	1	UNK0	0.000	
10	   I	89.393	97.689	-46.326	 I	1	UNK0	0.000	
11	   C	92.140	100.385	-42.319	C.3	1	UNK0	0.000	
12	   N	91.466	100.763	-41.063	N.4	1	UNK0	0.000	
13	   H	91.191	99.888	-40.640	 H	1	UNK0	0.000	
14	   C	92.349	101.419	-40.077	C.3	1	UNK0	0.000	
15	   C	90.248	101.553	-41.307	C.3	1	UNK0	0.000	
@<TRIPOS>BOND
1 1 2 2
2 1 11 1
3 1 5 1
4 2 3 1
5 2 7 1
6 3 4 2
7 3 9 1
8 11 12 1
9 12 13 1
10 12 14 1
11 12 15 1
12 4 6 1
13 5 6 2
14 6 10 1
15 7 8 1
@<TRIPOS>SUBSTRUCTURE
1	UNK0	1	GROUP	1 ****	UNK
