# created with PyMOL 2.5.2
@<TRIPOS>MOLECULE
4x21.A
31 34 1                 
SMALL
USER_CHARGES
@<TRIPOS>ATOM
1	   C	18.936	32.396	70.744	C.2	1	UNK0	0.000	
2	   N	17.811	33.007	70.435	N.2	1	UNK0	0.000	
3	   C	16.728	32.630	71.096	C.2	1	UNK0	0.000	
4	   C	16.794	31.646	72.068	C.2	1	UNK0	0.000	
5	   C	18.042	31.069	72.326	C.2	1	UNK0	0.000	
6	   N	19.111	31.444	71.657	N.2	1	UNK0	0.000	
7	   I	15.174	30.993	73.210	 I	1	UNK0	0.000	
8	   C	15.492	33.293	70.747	C.2	1	UNK0	0.000	
9	   C	14.294	32.757	70.489	C.2	1	UNK0	0.000	
10	   N	13.356	33.663	70.182	N.pl3	1	UNK0	0.000	
11	   H	12.385	33.469	69.981	 H	1	UNK0	0.000	
12	   C	13.934	34.876	70.187	C.2	1	UNK0	0.000	
13	   C	15.285	34.707	70.547	C.2	1	UNK0	0.000	
14	   C	16.120	35.812	70.632	C.2	1	UNK0	0.000	
15	   C	15.559	37.047	70.358	C.2	1	UNK0	0.000	
16	   C	14.229	37.215	70.026	C.2	1	UNK0	0.000	
17	   C	13.410	36.115	69.921	C.2	1	UNK0	0.000	
18	   N	20.039	32.731	70.099	N.pl3	1	UNK0	0.000	
19	   H	20.628	31.965	69.804	 H	1	UNK0	0.000	
20	   N	23.838	36.686	67.201	N.pl3	1	UNK0	0.000	
21	   H	23.186	36.241	66.571	 H	1	UNK0	0.000	
22	   C	23.542	36.727	68.583	C.2	1	UNK0	0.000	
23	   O	24.315	37.269	69.371	O.2	1	UNK0	0.000	
24	   N	22.388	36.137	68.977	N.pl3	1	UNK0	0.000	
25	   C	21.879	36.055	70.344	C.3	1	UNK0	0.000	
26	   C	21.457	34.673	70.746	C.3	1	UNK0	0.000	
27	   C	20.510	34.058	69.759	C.3	1	UNK0	0.000	
28	   C	21.022	34.152	68.372	C.3	1	UNK0	0.000	
29	   C	21.501	35.529	68.023	C.3	1	UNK0	0.000	
30	   C	24.852	38.453	65.697	C.3	1	UNK0	0.000	
31	   C	25.058	37.266	66.662	C.3	1	UNK0	0.000	
@<TRIPOS>BOND
1 30 31 1
2 20 31 1
3 20 21 1
4 20 22 1
5 22 23 2
6 22 24 1
7 24 25 1
8 24 29 1
9 25 26 1
10 26 27 1
11 27 28 1
12 18 27 1
13 28 29 1
14 18 19 1
15 1 18 1
16 1 2 2
17 1 6 1
18 2 3 1
19 3 4 2
20 3 8 1
21 4 5 1
22 4 7 1
23 5 6 2
24 8 9 2
25 8 13 1
26 9 10 1
27 10 11 1
28 10 12 1
29 12 13 2
30 12 17 1
31 13 14 1
32 14 15 2
33 15 16 1
34 16 17 2
@<TRIPOS>SUBSTRUCTURE
1	UNK0	1	GROUP	1 ****	UNK
