4x21.A


 31 34  0  0  0  0  0  0  0  0999 V2000
   18.9364   32.3961   70.7443 C   0  0  0  0  0  0  0  0  0  0  0  0
   17.8114   33.0070   70.4353 N   0  0  0  0  0  0  0  0  0  0  0  0
   16.7284   32.6298   71.0960 C   0  0  0  0  0  0  0  0  0  0  0  0
   16.7943   31.6462   72.0683 C   0  0  0  0  0  0  0  0  0  0  0  0
   18.0417   31.0695   72.3259 C   0  0  0  0  0  0  0  0  0  0  0  0
   19.1106   31.4442   71.6573 N   0  0  0  0  0  0  0  0  0  0  0  0
   15.1735   30.9929   73.2099 I   0  0  0  0  0  0  0  0  0  0  0  0
   15.4921   33.2932   70.7472 C   0  0  0  0  0  0  0  0  0  0  0  0
   14.2938   32.7575   70.4891 C   0  0  0  0  0  0  0  0  0  0  0  0
   13.3560   33.6634   70.1818 N   0  0  0  0  0  0  0  0  0  0  0  0
   12.3854   33.4689   69.9813 H   0  0  0  0  0  0  0  0  0  0  0  0
   13.9338   34.8757   70.1872 C   0  0  0  0  0  0  0  0  0  0  0  0
   15.2847   34.7068   70.5468 C   0  0  0  0  0  0  0  0  0  0  0  0
   16.1198   35.8116   70.6322 C   0  0  0  0  0  0  0  0  0  0  0  0
   15.5591   37.0471   70.3585 C   0  0  0  0  0  0  0  0  0  0  0  0
   14.2292   37.2150   70.0256 C   0  0  0  0  0  0  0  0  0  0  0  0
   13.4100   36.1154   69.9208 C   0  0  0  0  0  0  0  0  0  0  0  0
   20.0388   32.7306   70.0986 N   0  0  0  0  0  0  0  0  0  0  0  0
   20.6276   31.9646   69.8044 H   0  0  0  0  0  0  0  0  0  0  0  0
   23.8385   36.6856   67.2007 N   0  0  0  0  0  0  0  0  0  0  0  0
   23.1859   36.2408   66.5713 H   0  0  0  0  0  0  0  0  0  0  0  0
   23.5423   36.7273   68.5833 C   0  0  0  0  0  0  0  0  0  0  0  0
   24.3147   37.2692   69.3707 O   0  0  0  0  0  0  0  0  0  0  0  0
   22.3878   36.1374   68.9769 N   0  0  0  0  0  0  0  0  0  0  0  0
   21.8795   36.0553   70.3445 C   0  0  0  0  0  0  0  0  0  0  0  0
   21.4571   34.6730   70.7456 C   0  0  0  0  0  0  0  0  0  0  0  0
   20.5101   34.0581   69.7589 C   0  0  0  0  0  0  0  0  0  0  0  0
   21.0222   34.1522   68.3718 C   0  0  0  0  0  0  0  0  0  0  0  0
   21.5007   35.5291   68.0228 C   0  0  0  0  0  0  0  0  0  0  0  0
   24.8519   38.4535   65.6969 C   0  0  0  0  0  0  0  0  0  0  0  0
   25.0580   37.2662   66.6617 C   0  0  0  0  0  0  0  0  0  0  0  0
 30 31  1  0  0  0
 31 20  1  0  0  0
 20 21  1  0  0  0
 20 22  1  0  0  0
 22 23  2  0  0  0
 22 24  1  0  0  0
 24 25  1  0  0  0
 24 29  1  0  0  0
 25 26  1  0  0  0
 26 27  1  0  0  0
 27 28  1  0  0  0
 27 18  1  0  0  0
 28 29  1  0  0  0
 18 19  1  0  0  0
 18  1  1  0  0  0
  1  2  2  0  0  0
  1  6  1  0  0  0
  2  3  1  0  0  0
  3  4  2  0  0  0
  3  8  1  0  0  0
  4  5  1  0  0  0
  4  7  1  0  0  0
  5  6  2  0  0  0
  8  9  2  0  0  0
  8 13  1  0  0  0
  9 10  1  0  0  0
 10 11  1  0  0  0
 10 12  1  0  0  0
 12 13  2  0  0  0
 12 17  1  0  0  0
 13 14  1  0  0  0
 14 15  2  0  0  0
 15 16  1  0  0  0
 16 17  2  0  0  0
M  END
> <minimizedAffinity>
-8.82467

$$$$
4x21.A


 31 34  0  0  0  0  0  0  0  0999 V2000
   18.7148   31.9185   72.5363 C   0  0  0  0  0  0  0  0  0  0  0  0
   17.9550   32.9583   72.2608 N   0  0  0  0  0  0  0  0  0  0  0  0
   16.7023   32.7056   71.9167 C   0  0  0  0  0  0  0  0  0  0  0  0
   16.2269   31.4062   71.8635 C   0  0  0  0  0  0  0  0  0  0  0  0
   17.1151   30.3757   72.1862 C   0  0  0  0  0  0  0  0  0  0  0  0
   18.3611   30.6361   72.5175 N   0  0  0  0  0  0  0  0  0  0  0  0
   14.2668   30.8763   71.3798 I   0  0  0  0  0  0  0  0  0  0  0  0
   15.8730   33.8476   71.6031 C   0  0  0  0  0  0  0  0  0  0  0  0
   14.5529   33.9970   71.7600 C   0  0  0  0  0  0  0  0  0  0  0  0
   14.0953   35.1875   71.3503 N   0  0  0  0  0  0  0  0  0  0  0  0
   13.1390   35.5077   71.4068 H   0  0  0  0  0  0  0  0  0  0  0  0
   15.1319   35.8803   70.8513 C   0  0  0  0  0  0  0  0  0  0  0  0
   16.2868   35.0871   70.9916 C   0  0  0  0  0  0  0  0  0  0  0  0
   17.5125   35.5688   70.5547 C   0  0  0  0  0  0  0  0  0  0  0  0
   17.5288   36.8362   69.9987 C   0  0  0  0  0  0  0  0  0  0  0  0
   16.3994   37.6223   69.8796 C   0  0  0  0  0  0  0  0  0  0  0  0
   15.1829   37.1329   70.2939 C   0  0  0  0  0  0  0  0  0  0  0  0
   19.9761   32.1241   72.8692 N   0  0  0  0  0  0  0  0  0  0  0  0
   20.2231   31.8997   73.8225 H   0  0  0  0  0  0  0  0  0  0  0  0
   22.2338   35.5221   68.1966 N   0  0  0  0  0  0  0  0  0  0  0  0
   21.9356   36.0861   68.9796 H   0  0  0  0  0  0  0  0  0  0  0  0
   22.5249   34.1536   68.4051 C   0  0  0  0  0  0  0  0  0  0  0  0
   22.8975   33.4458   67.4719 O   0  0  0  0  0  0  0  0  0  0  0  0
   22.3607   33.6809   69.6642 N   0  0  0  0  0  0  0  0  0  0  0  0
   22.5967   32.3101   70.1124 C   0  0  0  0  0  0  0  0  0  0  0  0
   21.4629   31.7358   70.9092 C   0  0  0  0  0  0  0  0  0  0  0  0
   21.0504   32.6308   72.0394 C   0  0  0  0  0  0  0  0  0  0  0  0
   20.8223   34.0225   71.5849 C   0  0  0  0  0  0  0  0  0  0  0  0
   21.9402   34.5447   70.7338 C   0  0  0  0  0  0  0  0  0  0  0  0
   21.0151   36.4808   66.1942 C   0  0  0  0  0  0  0  0  0  0  0  0
   22.3526   36.1384   66.8848 C   0  0  0  0  0  0  0  0  0  0  0  0
 30 31  1  0  0  0
 31 20  1  0  0  0
 20 21  1  0  0  0
 20 22  1  0  0  0
 22 23  2  0  0  0
 22 24  1  0  0  0
 24 25  1  0  0  0
 24 29  1  0  0  0
 25 26  1  0  0  0
 26 27  1  0  0  0
 27 28  1  0  0  0
 27 18  1  0  0  0
 28 29  1  0  0  0
 18 19  1  0  0  0
 18  1  1  0  0  0
  1  2  2  0  0  0
  1  6  1  0  0  0
  2  3  1  0  0  0
  3  4  2  0  0  0
  3  8  1  0  0  0
  4  5  1  0  0  0
  4  7  1  0  0  0
  5  6  2  0  0  0
  8  9  2  0  0  0
  8 13  1  0  0  0
  9 10  1  0  0  0
 10 11  1  0  0  0
 10 12  1  0  0  0
 12 13  2  0  0  0
 12 17  1  0  0  0
 13 14  1  0  0  0
 14 15  2  0  0  0
 15 16  1  0  0  0
 16 17  2  0  0  0
M  END
> <minimizedAffinity>
-8.75079

$$$$
4x21.A


 31 34  0  0  0  0  0  0  0  0999 V2000
   22.4123   34.6588   69.6664 C   0  0  0  0  0  0  0  0  0  0  0  0
   21.3449   35.2863   69.2177 N   0  0  0  0  0  0  0  0  0  0  0  0
   21.5422   36.2036   68.2843 C   0  0  0  0  0  0  0  0  0  0  0  0
   22.8140   36.4712   67.8068 C   0  0  0  0  0  0  0  0  0  0  0  0
   23.8773   35.7392   68.3442 C   0  0  0  0  0  0  0  0  0  0  0  0
   23.6725   34.8365   69.2786 N   0  0  0  0  0  0  0  0  0  0  0  0
   23.2544   37.8576   66.3099 I   0  0  0  0  0  0  0  0  0  0  0  0
   20.3707   36.8997   67.8015 C   0  0  0  0  0  0  0  0  0  0  0  0
   20.1763   37.5020   66.6230 C   0  0  0  0  0  0  0  0  0  0  0  0
   18.9688   38.0696   66.5032 N   0  0  0  0  0  0  0  0  0  0  0  0
   18.6159   38.5485   65.6869 H   0  0  0  0  0  0  0  0  0  0  0  0
   18.3101   37.8896   67.6596 C   0  0  0  0  0  0  0  0  0  0  0  0
   19.1434   37.1477   68.5184 C   0  0  0  0  0  0  0  0  0  0  0  0
   18.7026   36.8157   69.7915 C   0  0  0  0  0  0  0  0  0  0  0  0
   17.4339   37.2386   70.1485 C   0  0  0  0  0  0  0  0  0  0  0  0
   16.6086   37.9488   69.2988 C   0  0  0  0  0  0  0  0  0  0  0  0
   17.0575   38.2947   68.0458 C   0  0  0  0  0  0  0  0  0  0  0  0
   22.2631   33.7463   70.6094 N   0  0  0  0  0  0  0  0  0  0  0  0
   23.0972   33.2396   70.8691 H   0  0  0  0  0  0  0  0  0  0  0  0
   16.1315   32.9102   71.0364 N   0  0  0  0  0  0  0  0  0  0  0  0
   16.5830   32.2017   70.4760 H   0  0  0  0  0  0  0  0  0  0  0  0
   16.9042   33.6553   71.9578 C   0  0  0  0  0  0  0  0  0  0  0  0
   16.3793   34.5180   72.6582 O   0  0  0  0  0  0  0  0  0  0  0  0
   18.2283   33.3730   72.0107 N   0  0  0  0  0  0  0  0  0  0  0  0
   19.2160   34.0114   72.8782 C   0  0  0  0  0  0  0  0  0  0  0  0
   20.4459   34.4692   72.1517 C   0  0  0  0  0  0  0  0  0  0  0  0
   21.0535   33.3805   71.3185 C   0  0  0  0  0  0  0  0  0  0  0  0
   20.0483   32.7273   70.4477 C   0  0  0  0  0  0  0  0  0  0  0  0
   18.8026   32.3434   71.1877 C   0  0  0  0  0  0  0  0  0  0  0  0
   14.3207   34.1840   69.8067 C   0  0  0  0  0  0  0  0  0  0  0  0
   14.7043   33.1376   70.8749 C   0  0  0  0  0  0  0  0  0  0  0  0
 30 31  1  0  0  0
 31 20  1  0  0  0
 20 21  1  0  0  0
 20 22  1  0  0  0
 22 23  2  0  0  0
 22 24  1  0  0  0
 24 25  1  0  0  0
 24 29  1  0  0  0
 25 26  1  0  0  0
 26 27  1  0  0  0
 27 28  1  0  0  0
 27 18  1  0  0  0
 28 29  1  0  0  0
 18 19  1  0  0  0
 18  1  1  0  0  0
  1  2  2  0  0  0
  1  6  1  0  0  0
  2  3  1  0  0  0
  3  4  2  0  0  0
  3  8  1  0  0  0
  4  5  1  0  0  0
  4  7  1  0  0  0
  5  6  2  0  0  0
  8  9  2  0  0  0
  8 13  1  0  0  0
  9 10  1  0  0  0
 10 11  1  0  0  0
 10 12  1  0  0  0
 12 13  2  0  0  0
 12 17  1  0  0  0
 13 14  1  0  0  0
 14 15  2  0  0  0
 15 16  1  0  0  0
 16 17  2  0  0  0
M  END
> <minimizedAffinity>
-8.73502

$$$$
4x21.A


 31 34  0  0  0  0  0  0  0  0999 V2000
   20.7202   34.8264   70.1527 C   0  0  0  0  0  0  0  0  0  0  0  0
   19.6083   35.5065   69.9646 N   0  0  0  0  0  0  0  0  0  0  0  0
   18.5911   35.2160   70.7599 C   0  0  0  0  0  0  0  0  0  0  0  0
   18.7099   34.2484   71.7431 C   0  0  0  0  0  0  0  0  0  0  0  0
   19.9391   33.5931   71.8647 C   0  0  0  0  0  0  0  0  0  0  0  0
   20.9412   33.8818   71.0632 N   0  0  0  0  0  0  0  0  0  0  0  0
   17.2003   33.7278   73.0874 I   0  0  0  0  0  0  0  0  0  0  0  0
   17.3675   35.9554   70.5441 C   0  0  0  0  0  0  0  0  0  0  0  0
   17.1583   37.2747   70.6150 C   0  0  0  0  0  0  0  0  0  0  0  0
   15.8905   37.6309   70.3697 N   0  0  0  0  0  0  0  0  0  0  0  0
   15.5325   38.5751   70.3475 H   0  0  0  0  0  0  0  0  0  0  0  0
   15.1793   36.5114   70.1584 C   0  0  0  0  0  0  0  0  0  0  0  0
   16.0619   35.4179   70.2473 C   0  0  0  0  0  0  0  0  0  0  0  0
   15.5838   34.1281   70.0651 C   0  0  0  0  0  0  0  0  0  0  0  0
   14.2339   33.9899   69.7928 C   0  0  0  0  0  0  0  0  0  0  0  0
   13.3720   35.0638   69.6854 C   0  0  0  0  0  0  0  0  0  0  0  0
   13.8454   36.3390   69.8882 C   0  0  0  0  0  0  0  0  0  0  0  0
   21.7556   35.0733   69.3711 N   0  0  0  0  0  0  0  0  0  0  0  0
   22.6274   34.6428   69.6445 H   0  0  0  0  0  0  0  0  0  0  0  0
   24.6753   37.7479   64.5963 N   0  0  0  0  0  0  0  0  0  0  0  0
   24.5869   36.7477   64.4878 H   0  0  0  0  0  0  0  0  0  0  0  0
   23.8048   38.4239   65.4830 C   0  0  0  0  0  0  0  0  0  0  0  0
   23.8849   39.6417   65.6284 O   0  0  0  0  0  0  0  0  0  0  0  0
   22.9068   37.6625   66.1536 N   0  0  0  0  0  0  0  0  0  0  0  0
   21.9158   38.1381   67.1166 C   0  0  0  0  0  0  0  0  0  0  0  0
   21.9058   37.3618   68.4001 C   0  0  0  0  0  0  0  0  0  0  0  0
   21.7987   35.8838   68.1708 C   0  0  0  0  0  0  0  0  0  0  0  0
   22.7971   35.4055   67.1860 C   0  0  0  0  0  0  0  0  0  0  0  0
   22.8318   36.2423   65.9429 C   0  0  0  0  0  0  0  0  0  0  0  0
   26.9999   37.6680   63.5944 C   0  0  0  0  0  0  0  0  0  0  0  0
   25.6942   38.4550   63.8369 C   0  0  0  0  0  0  0  0  0  0  0  0
 30 31  1  0  0  0
 31 20  1  0  0  0
 20 21  1  0  0  0
 20 22  1  0  0  0
 22 23  2  0  0  0
 22 24  1  0  0  0
 24 25  1  0  0  0
 24 29  1  0  0  0
 25 26  1  0  0  0
 26 27  1  0  0  0
 27 28  1  0  0  0
 27 18  1  0  0  0
 28 29  1  0  0  0
 18 19  1  0  0  0
 18  1  1  0  0  0
  1  2  2  0  0  0
  1  6  1  0  0  0
  2  3  1  0  0  0
  3  4  2  0  0  0
  3  8  1  0  0  0
  4  5  1  0  0  0
  4  7  1  0  0  0
  5  6  2  0  0  0
  8  9  2  0  0  0
  8 13  1  0  0  0
  9 10  1  0  0  0
 10 11  1  0  0  0
 10 12  1  0  0  0
 12 13  2  0  0  0
 12 17  1  0  0  0
 13 14  1  0  0  0
 14 15  2  0  0  0
 15 16  1  0  0  0
 16 17  2  0  0  0
M  END
> <minimizedAffinity>
-8.62844

$$$$
4x21.A


 31 34  0  0  0  0  0  0  0  0999 V2000
   18.7162   33.0101   71.9320 C   0  0  0  0  0  0  0  0  0  0  0  0
   17.7161   33.8028   71.6070 N   0  0  0  0  0  0  0  0  0  0  0  0
   18.0167   34.8822   70.9026 C   0  0  0  0  0  0  0  0  0  0  0  0
   19.3227   35.1451   70.5255 C   0  0  0  0  0  0  0  0  0  0  0  0
   20.3077   34.2319   70.9139 C   0  0  0  0  0  0  0  0  0  0  0  0
   20.0006   33.1670   71.6223 N   0  0  0  0  0  0  0  0  0  0  0  0
   19.9223   36.7839   69.3801 I   0  0  0  0  0  0  0  0  0  0  0  0
   16.9191   35.7574   70.5570 C   0  0  0  0  0  0  0  0  0  0  0  0
   16.8788   37.0945   70.5523 C   0  0  0  0  0  0  0  0  0  0  0  0
   15.6896   37.5942   70.1907 N   0  0  0  0  0  0  0  0  0  0  0  0
   15.4602   38.5734   70.0981 H   0  0  0  0  0  0  0  0  0  0  0  0
   14.8563   36.5638   69.9730 C   0  0  0  0  0  0  0  0  0  0  0  0
   15.5800   35.3739   70.1807 C   0  0  0  0  0  0  0  0  0  0  0  0
   14.9529   34.1469   70.0182 C   0  0  0  0  0  0  0  0  0  0  0  0
   13.6202   34.1658   69.6450 C   0  0  0  0  0  0  0  0  0  0  0  0
   12.9158   35.3326   69.4215 C   0  0  0  0  0  0  0  0  0  0  0  0
   13.5348   36.5469   69.6048 C   0  0  0  0  0  0  0  0  0  0  0  0
   18.4634   31.9296   72.6480 N   0  0  0  0  0  0  0  0  0  0  0  0
   19.1780   31.6614   73.3094 H   0  0  0  0  0  0  0  0  0  0  0  0
   12.9333   30.0138   74.7032 N   0  0  0  0  0  0  0  0  0  0  0  0
   12.8866   30.9081   74.2361 H   0  0  0  0  0  0  0  0  0  0  0  0
   14.0325   29.1606   74.4489 C   0  0  0  0  0  0  0  0  0  0  0  0
   14.1107   28.0636   74.9973 O   0  0  0  0  0  0  0  0  0  0  0  0
   14.9759   29.6215   73.5926 N   0  0  0  0  0  0  0  0  0  0  0  0
   16.1915   28.9207   73.1841 C   0  0  0  0  0  0  0  0  0  0  0  0
   17.4320   29.7569   73.2949 C   0  0  0  0  0  0  0  0  0  0  0  0
   17.2902   31.0803   72.6042 C   0  0  0  0  0  0  0  0  0  0  0  0
   16.0517   31.7842   73.0114 C   0  0  0  0  0  0  0  0  0  0  0  0
   14.8400   30.9037   72.9564 C   0  0  0  0  0  0  0  0  0  0  0  0
   10.8565   30.7558   75.9484 C   0  0  0  0  0  0  0  0  0  0  0  0
   11.8686   29.6375   75.6196 C   0  0  0  0  0  0  0  0  0  0  0  0
 30 31  1  0  0  0
 31 20  1  0  0  0
 20 21  1  0  0  0
 20 22  1  0  0  0
 22 23  2  0  0  0
 22 24  1  0  0  0
 24 25  1  0  0  0
 24 29  1  0  0  0
 25 26  1  0  0  0
 26 27  1  0  0  0
 27 28  1  0  0  0
 27 18  1  0  0  0
 28 29  1  0  0  0
 18 19  1  0  0  0
 18  1  1  0  0  0
  1  2  2  0  0  0
  1  6  1  0  0  0
  2  3  1  0  0  0
  3  4  2  0  0  0
  3  8  1  0  0  0
  4  5  1  0  0  0
  4  7  1  0  0  0
  5  6  2  0  0  0
  8  9  2  0  0  0
  8 13  1  0  0  0
  9 10  1  0  0  0
 10 11  1  0  0  0
 10 12  1  0  0  0
 12 13  2  0  0  0
 12 17  1  0  0  0
 13 14  1  0  0  0
 14 15  2  0  0  0
 15 16  1  0  0  0
 16 17  2  0  0  0
M  END
> <minimizedAffinity>
-8.57094

$$$$
4x21.A


 31 34  0  0  0  0  0  0  0  0999 V2000
   20.9096   38.2163   66.3052 C   0  0  0  0  0  0  0  0  0  0  0  0
   21.7500   37.2060   66.2198 N   0  0  0  0  0  0  0  0  0  0  0  0
   23.0159   37.5040   65.9739 C   0  0  0  0  0  0  0  0  0  0  0  0
   23.4218   38.8195   65.8261 C   0  0  0  0  0  0  0  0  0  0  0  0
   22.4494   39.8170   65.9466 C   0  0  0  0  0  0  0  0  0  0  0  0
   21.1921   39.5105   66.1813 N   0  0  0  0  0  0  0  0  0  0  0  0
   25.3893   39.4248   65.4807 I   0  0  0  0  0  0  0  0  0  0  0  0
   23.9349   36.3929   65.8687 C   0  0  0  0  0  0  0  0  0  0  0  0
   24.3305   35.7290   64.7768 C   0  0  0  0  0  0  0  0  0  0  0  0
   25.1878   34.7327   65.0359 N   0  0  0  0  0  0  0  0  0  0  0  0
   25.6235   34.1310   64.3515 H   0  0  0  0  0  0  0  0  0  0  0  0
   25.3659   34.6749   66.3657 C   0  0  0  0  0  0  0  0  0  0  0  0
   24.6048   35.7071   66.9469 C   0  0  0  0  0  0  0  0  0  0  0  0
   24.6100   35.8775   68.3240 C   0  0  0  0  0  0  0  0  0  0  0  0
   25.3888   35.0042   69.0633 C   0  0  0  0  0  0  0  0  0  0  0  0
   26.1513   34.0045   68.4915 C   0  0  0  0  0  0  0  0  0  0  0  0
   26.1265   33.8251   67.1283 C   0  0  0  0  0  0  0  0  0  0  0  0
   19.6338   37.9635   66.5341 N   0  0  0  0  0  0  0  0  0  0  0  0
   19.0719   37.7571   65.7207 H   0  0  0  0  0  0  0  0  0  0  0  0
   17.1573   35.1047   71.4506 N   0  0  0  0  0  0  0  0  0  0  0  0
   18.1671   35.0988   71.4646 H   0  0  0  0  0  0  0  0  0  0  0  0
   16.4852   36.0672   70.6614 C   0  0  0  0  0  0  0  0  0  0  0  0
   15.2570   36.1024   70.6320 O   0  0  0  0  0  0  0  0  0  0  0  0
   17.2607   36.9197   69.9490 N   0  0  0  0  0  0  0  0  0  0  0  0
   16.7913   37.9873   69.0683 C   0  0  0  0  0  0  0  0  0  0  0  0
   17.4419   37.9796   67.7168 C   0  0  0  0  0  0  0  0  0  0  0  0
   18.9384   37.9447   67.8053 C   0  0  0  0  0  0  0  0  0  0  0  0
   19.4118   36.8687   68.7071 C   0  0  0  0  0  0  0  0  0  0  0  0
   18.6952   36.8589   70.0236 C   0  0  0  0  0  0  0  0  0  0  0  0
   17.2719   33.3878   73.3088 C   0  0  0  0  0  0  0  0  0  0  0  0
   16.4326   34.1233   72.2422 C   0  0  0  0  0  0  0  0  0  0  0  0
 30 31  1  0  0  0
 31 20  1  0  0  0
 20 21  1  0  0  0
 20 22  1  0  0  0
 22 23  2  0  0  0
 22 24  1  0  0  0
 24 25  1  0  0  0
 24 29  1  0  0  0
 25 26  1  0  0  0
 26 27  1  0  0  0
 27 28  1  0  0  0
 27 18  1  0  0  0
 28 29  1  0  0  0
 18 19  1  0  0  0
 18  1  1  0  0  0
  1  2  2  0  0  0
  1  6  1  0  0  0
  2  3  1  0  0  0
  3  4  2  0  0  0
  3  8  1  0  0  0
  4  5  1  0  0  0
  4  7  1  0  0  0
  5  6  2  0  0  0
  8  9  2  0  0  0
  8 13  1  0  0  0
  9 10  1  0  0  0
 10 11  1  0  0  0
 10 12  1  0  0  0
 12 13  2  0  0  0
 12 17  1  0  0  0
 13 14  1  0  0  0
 14 15  2  0  0  0
 15 16  1  0  0  0
 16 17  2  0  0  0
M  END
> <minimizedAffinity>
-8.56949

$$$$
4x21.A


 31 34  0  0  0  0  0  0  0  0999 V2000
   14.3353   30.5672   72.6008 C   0  0  0  0  0  0  0  0  0  0  0  0
   14.3868   31.8503   72.3090 N   0  0  0  0  0  0  0  0  0  0  0  0
   15.4734   32.2755   71.6845 C   0  0  0  0  0  0  0  0  0  0  0  0
   16.4927   31.3991   71.3527 C   0  0  0  0  0  0  0  0  0  0  0  0
   16.3319   30.0542   71.6995 C   0  0  0  0  0  0  0  0  0  0  0  0
   15.2527   29.6428   72.3288 N   0  0  0  0  0  0  0  0  0  0  0  0
   18.2336   31.9322   70.3318 I   0  0  0  0  0  0  0  0  0  0  0  0
   15.5334   33.6866   71.3755 C   0  0  0  0  0  0  0  0  0  0  0  0
   16.4098   34.6040   71.7994 C   0  0  0  0  0  0  0  0  0  0  0  0
   16.1678   35.8348   71.3293 N   0  0  0  0  0  0  0  0  0  0  0  0
   16.7244   36.6587   71.5073 H   0  0  0  0  0  0  0  0  0  0  0  0
   15.0550   35.7804   70.5795 C   0  0  0  0  0  0  0  0  0  0  0  0
   14.6118   34.4440   70.5638 C   0  0  0  0  0  0  0  0  0  0  0  0
   13.4702   34.1034   69.8526 C   0  0  0  0  0  0  0  0  0  0  0  0
   12.8217   35.1228   69.1773 C   0  0  0  0  0  0  0  0  0  0  0  0
   13.2679   36.4299   69.1760 C   0  0  0  0  0  0  0  0  0  0  0  0
   14.3874   36.7676   69.8998 C   0  0  0  0  0  0  0  0  0  0  0  0
   13.2757   30.1027   73.2378 N   0  0  0  0  0  0  0  0  0  0  0  0
   12.3858   30.2601   72.7870 H   0  0  0  0  0  0  0  0  0  0  0  0
   11.4609   29.4020   79.1278 N   0  0  0  0  0  0  0  0  0  0  0  0
   10.7134   29.2401   78.4682 H   0  0  0  0  0  0  0  0  0  0  0  0
   12.8015   29.3074   78.6862 C   0  0  0  0  0  0  0  0  0  0  0  0
   13.7306   29.4916   79.4693 O   0  0  0  0  0  0  0  0  0  0  0  0
   12.9923   29.0189   77.3762 N   0  0  0  0  0  0  0  0  0  0  0  0
   14.2796   28.8744   76.6998 C   0  0  0  0  0  0  0  0  0  0  0  0
   14.3796   29.6605   75.4261 C   0  0  0  0  0  0  0  0  0  0  0  0
   13.2290   29.3958   74.5017 C   0  0  0  0  0  0  0  0  0  0  0  0
   11.9251   29.5320   75.1922 C   0  0  0  0  0  0  0  0  0  0  0  0
   11.8792   28.7921   76.4949 C   0  0  0  0  0  0  0  0  0  0  0  0
   10.3052   31.0165   80.6999 C   0  0  0  0  0  0  0  0  0  0  0  0
   11.1305   29.7264   80.5064 C   0  0  0  0  0  0  0  0  0  0  0  0
 30 31  1  0  0  0
 31 20  1  0  0  0
 20 21  1  0  0  0
 20 22  1  0  0  0
 22 23  2  0  0  0
 22 24  1  0  0  0
 24 25  1  0  0  0
 24 29  1  0  0  0
 25 26  1  0  0  0
 26 27  1  0  0  0
 27 28  1  0  0  0
 27 18  1  0  0  0
 28 29  1  0  0  0
 18 19  1  0  0  0
 18  1  1  0  0  0
  1  2  2  0  0  0
  1  6  1  0  0  0
  2  3  1  0  0  0
  3  4  2  0  0  0
  3  8  1  0  0  0
  4  5  1  0  0  0
  4  7  1  0  0  0
  5  6  2  0  0  0
  8  9  2  0  0  0
  8 13  1  0  0  0
  9 10  1  0  0  0
 10 11  1  0  0  0
 10 12  1  0  0  0
 12 13  2  0  0  0
 12 17  1  0  0  0
 13 14  1  0  0  0
 14 15  2  0  0  0
 15 16  1  0  0  0
 16 17  2  0  0  0
M  END
> <minimizedAffinity>
-8.47333

$$$$
4x21.A


 31 34  0  0  0  0  0  0  0  0999 V2000
   19.7917   36.1584   70.5077 C   0  0  0  0  0  0  0  0  0  0  0  0
   18.5475   35.8379   70.2189 N   0  0  0  0  0  0  0  0  0  0  0  0
   17.9795   34.9140   70.9775 C   0  0  0  0  0  0  0  0  0  0  0  0
   18.6705   34.3301   72.0257 C   0  0  0  0  0  0  0  0  0  0  0  0
   19.9843   34.7513   72.2526 C   0  0  0  0  0  0  0  0  0  0  0  0
   20.5435   35.6631   71.4872 N   0  0  0  0  0  0  0  0  0  0  0  0
   17.8777   32.8978   73.3207 I   0  0  0  0  0  0  0  0  0  0  0  0
   16.6175   34.5548   70.6515 C   0  0  0  0  0  0  0  0  0  0  0  0
   16.0718   33.3384   70.5411 C   0  0  0  0  0  0  0  0  0  0  0  0
   14.7744   33.3607   70.2085 N   0  0  0  0  0  0  0  0  0  0  0  0
   14.1747   32.5549   70.1019 H   0  0  0  0  0  0  0  0  0  0  0  0
   14.4115   34.6428   70.0416 C   0  0  0  0  0  0  0  0  0  0  0  0
   15.5341   35.4469   70.3168 C   0  0  0  0  0  0  0  0  0  0  0  0
   15.4346   36.8276   70.2219 C   0  0  0  0  0  0  0  0  0  0  0  0
   14.2036   37.3465   69.8595 C   0  0  0  0  0  0  0  0  0  0  0  0
   13.0970   36.5588   69.6093 C   0  0  0  0  0  0  0  0  0  0  0  0
   13.2054   35.1898   69.6833 C   0  0  0  0  0  0  0  0  0  0  0  0
   20.4024   37.0649   69.7665 N   0  0  0  0  0  0  0  0  0  0  0  0
   20.1960   38.0283   69.9885 H   0  0  0  0  0  0  0  0  0  0  0  0
   25.3844   38.5197   66.3693 N   0  0  0  0  0  0  0  0  0  0  0  0
   25.6268   38.1455   67.2756 H   0  0  0  0  0  0  0  0  0  0  0  0
   24.1009   38.2557   65.8363 C   0  0  0  0  0  0  0  0  0  0  0  0
   23.7822   38.6918   64.7323 O   0  0  0  0  0  0  0  0  0  0  0  0
   23.2620   37.5197   66.6045 N   0  0  0  0  0  0  0  0  0  0  0  0
   21.8962   37.1268   66.2641 C   0  0  0  0  0  0  0  0  0  0  0  0
   20.9019   37.4099   67.3510 C   0  0  0  0  0  0  0  0  0  0  0  0
   21.3312   36.8517   68.6749 C   0  0  0  0  0  0  0  0  0  0  0  0
   22.7199   37.2421   69.0131 C   0  0  0  0  0  0  0  0  0  0  0  0
   23.6779   37.0117   67.8836 C   0  0  0  0  0  0  0  0  0  0  0  0
   26.3016   40.8353   65.9106 C   0  0  0  0  0  0  0  0  0  0  0  0
   26.3640   39.3156   65.6470 C   0  0  0  0  0  0  0  0  0  0  0  0
 30 31  1  0  0  0
 31 20  1  0  0  0
 20 21  1  0  0  0
 20 22  1  0  0  0
 22 23  2  0  0  0
 22 24  1  0  0  0
 24 25  1  0  0  0
 24 29  1  0  0  0
 25 26  1  0  0  0
 26 27  1  0  0  0
 27 28  1  0  0  0
 27 18  1  0  0  0
 28 29  1  0  0  0
 18 19  1  0  0  0
 18  1  1  0  0  0
  1  2  2  0  0  0
  1  6  1  0  0  0
  2  3  1  0  0  0
  3  4  2  0  0  0
  3  8  1  0  0  0
  4  5  1  0  0  0
  4  7  1  0  0  0
  5  6  2  0  0  0
  8  9  2  0  0  0
  8 13  1  0  0  0
  9 10  1  0  0  0
 10 11  1  0  0  0
 10 12  1  0  0  0
 12 13  2  0  0  0
 12 17  1  0  0  0
 13 14  1  0  0  0
 14 15  2  0  0  0
 15 16  1  0  0  0
 16 17  2  0  0  0
M  END
> <minimizedAffinity>
-8.46555

$$$$
4x21.A


 31 34  0  0  0  0  0  0  0  0999 V2000
   17.8090   36.8057   69.8014 C   0  0  0  0  0  0  0  0  0  0  0  0
   17.9896   35.7936   70.6245 N   0  0  0  0  0  0  0  0  0  0  0  0
   16.9011   35.1842   71.0664 C   0  0  0  0  0  0  0  0  0  0  0  0
   15.6417   35.5970   70.6654 C   0  0  0  0  0  0  0  0  0  0  0  0
   15.5630   36.6759   69.7795 C   0  0  0  0  0  0  0  0  0  0  0  0
   16.6501   37.2814   69.3535 N   0  0  0  0  0  0  0  0  0  0  0  0
   13.8526   34.6962   71.2524 I   0  0  0  0  0  0  0  0  0  0  0  0
   17.1009   34.0810   71.9792 C   0  0  0  0  0  0  0  0  0  0  0  0
   17.5794   34.0988   73.2283 C   0  0  0  0  0  0  0  0  0  0  0  0
   17.6482   32.8864   73.7938 N   0  0  0  0  0  0  0  0  0  0  0  0
   17.9544   32.6868   74.7354 H   0  0  0  0  0  0  0  0  0  0  0  0
   17.2385   31.9832   72.8884 C   0  0  0  0  0  0  0  0  0  0  0  0
   16.8705   32.6802   71.7216 C   0  0  0  0  0  0  0  0  0  0  0  0
   16.4028   31.9810   70.6181 C   0  0  0  0  0  0  0  0  0  0  0  0
   16.3170   30.6046   70.7352 C   0  0  0  0  0  0  0  0  0  0  0  0
   16.6588   29.9226   71.8866 C   0  0  0  0  0  0  0  0  0  0  0  0
   17.1424   30.6171   72.9706 C   0  0  0  0  0  0  0  0  0  0  0  0
   18.8675   37.4524   69.3481 N   0  0  0  0  0  0  0  0  0  0  0  0
   18.9025   38.4405   69.5540 H   0  0  0  0  0  0  0  0  0  0  0  0
   24.7141   37.5855   67.2803 N   0  0  0  0  0  0  0  0  0  0  0  0
   24.6531   37.3504   68.2606 H   0  0  0  0  0  0  0  0  0  0  0  0
   23.5775   37.4069   66.4573 C   0  0  0  0  0  0  0  0  0  0  0  0
   23.6260   37.6773   65.2594 O   0  0  0  0  0  0  0  0  0  0  0  0
   22.4567   36.9412   67.0594 N   0  0  0  0  0  0  0  0  0  0  0  0
   21.1709   36.6826   66.4149 C   0  0  0  0  0  0  0  0  0  0  0  0
   20.0046   37.2880   67.1384 C   0  0  0  0  0  0  0  0  0  0  0  0
   19.9849   36.9230   68.5927 C   0  0  0  0  0  0  0  0  0  0  0  0
   21.2927   37.1756   69.2417 C   0  0  0  0  0  0  0  0  0  0  0  0
   22.4444   36.6189   68.4605 C   0  0  0  0  0  0  0  0  0  0  0  0
   26.0924   39.6372   66.7283 C   0  0  0  0  0  0  0  0  0  0  0  0
   25.9681   38.0987   66.7521 C   0  0  0  0  0  0  0  0  0  0  0  0
 30 31  1  0  0  0
 31 20  1  0  0  0
 20 21  1  0  0  0
 20 22  1  0  0  0
 22 23  2  0  0  0
 22 24  1  0  0  0
 24 25  1  0  0  0
 24 29  1  0  0  0
 25 26  1  0  0  0
 26 27  1  0  0  0
 27 28  1  0  0  0
 27 18  1  0  0  0
 28 29  1  0  0  0
 18 19  1  0  0  0
 18  1  1  0  0  0
  1  2  2  0  0  0
  1  6  1  0  0  0
  2  3  1  0  0  0
  3  4  2  0  0  0
  3  8  1  0  0  0
  4  5  1  0  0  0
  4  7  1  0  0  0
  5  6  2  0  0  0
  8  9  2  0  0  0
  8 13  1  0  0  0
  9 10  1  0  0  0
 10 11  1  0  0  0
 10 12  1  0  0  0
 12 13  2  0  0  0
 12 17  1  0  0  0
 13 14  1  0  0  0
 14 15  2  0  0  0
 15 16  1  0  0  0
 16 17  2  0  0  0
M  END
> <minimizedAffinity>
-8.42499

$$$$
4x21.A


 31 34  0  0  0  0  0  0  0  0999 V2000
   19.0506   34.1917   71.3606 C   0  0  0  0  0  0  0  0  0  0  0  0
   17.8141   34.3102   70.9230 N   0  0  0  0  0  0  0  0  0  0  0  0
   16.9232   33.4675   71.4208 C   0  0  0  0  0  0  0  0  0  0  0  0
   17.2880   32.5200   72.3621 C   0  0  0  0  0  0  0  0  0  0  0  0
   18.6261   32.4870   72.7663 C   0  0  0  0  0  0  0  0  0  0  0  0
   19.5062   33.3223   72.2587 N   0  0  0  0  0  0  0  0  0  0  0  0
   15.9751   31.1653   73.2557 I   0  0  0  0  0  0  0  0  0  0  0  0
   15.5688   33.5914   70.9304 C   0  0  0  0  0  0  0  0  0  0  0  0
   14.6384   32.6420   70.7802 C   0  0  0  0  0  0  0  0  0  0  0  0
   13.4816   33.0984   70.2822 N   0  0  0  0  0  0  0  0  0  0  0  0
   12.6484   32.5515   70.1187 H   0  0  0  0  0  0  0  0  0  0  0  0
   13.6250   34.4113   70.0384 C   0  0  0  0  0  0  0  0  0  0  0  0
   14.9232   34.7835   70.4367 C   0  0  0  0  0  0  0  0  0  0  0  0
   15.3378   36.1002   70.2958 C   0  0  0  0  0  0  0  0  0  0  0  0
   14.4245   36.9943   69.7648 C   0  0  0  0  0  0  0  0  0  0  0  0
   13.1441   36.6334   69.3930 C   0  0  0  0  0  0  0  0  0  0  0  0
   12.7443   35.3231   69.5139 C   0  0  0  0  0  0  0  0  0  0  0  0
   19.9752   35.0023   70.8790 N   0  0  0  0  0  0  0  0  0  0  0  0
   20.6736   35.3160   71.5377 H   0  0  0  0  0  0  0  0  0  0  0  0
   23.0892   37.7844   66.2920 N   0  0  0  0  0  0  0  0  0  0  0  0
   23.4382   36.8584   66.4938 H   0  0  0  0  0  0  0  0  0  0  0  0
   21.7766   38.1279   66.6922 C   0  0  0  0  0  0  0  0  0  0  0  0
   21.3235   39.2449   66.4524 O   0  0  0  0  0  0  0  0  0  0  0  0
   21.0715   37.1759   67.3498 N   0  0  0  0  0  0  0  0  0  0  0  0
   19.7071   37.3042   67.8572 C   0  0  0  0  0  0  0  0  0  0  0  0
   19.5544   36.8687   69.2844 C   0  0  0  0  0  0  0  0  0  0  0  0
   20.1141   35.4984   69.5247 C   0  0  0  0  0  0  0  0  0  0  0  0
   21.4934   35.3671   68.9997 C   0  0  0  0  0  0  0  0  0  0  0  0
   21.6299   35.8740   67.5958 C   0  0  0  0  0  0  0  0  0  0  0  0
   25.3879   38.8375   66.1473 C   0  0  0  0  0  0  0  0  0  0  0  0
   23.9494   38.7293   65.5977 C   0  0  0  0  0  0  0  0  0  0  0  0
 30 31  1  0  0  0
 31 20  1  0  0  0
 20 21  1  0  0  0
 20 22  1  0  0  0
 22 23  2  0  0  0
 22 24  1  0  0  0
 24 25  1  0  0  0
 24 29  1  0  0  0
 25 26  1  0  0  0
 26 27  1  0  0  0
 27 28  1  0  0  0
 27 18  1  0  0  0
 28 29  1  0  0  0
 18 19  1  0  0  0
 18  1  1  0  0  0
  1  2  2  0  0  0
  1  6  1  0  0  0
  2  3  1  0  0  0
  3  4  2  0  0  0
  3  8  1  0  0  0
  4  5  1  0  0  0
  4  7  1  0  0  0
  5  6  2  0  0  0
  8  9  2  0  0  0
  8 13  1  0  0  0
  9 10  1  0  0  0
 10 11  1  0  0  0
 10 12  1  0  0  0
 12 13  2  0  0  0
 12 17  1  0  0  0
 13 14  1  0  0  0
 14 15  2  0  0  0
 15 16  1  0  0  0
 16 17  2  0  0  0
M  END
> <minimizedAffinity>
-8.39586

$$$$
