# created with PyMOL 2.5.2
@<TRIPOS>MOLECULE
6e43.C
36 39 1                 
SMALL
USER_CHARGES
@<TRIPOS>ATOM
1	   C	22.111	79.626	12.204	C.2	1	UNK0	0.000	
2	   C	21.651	78.372	12.604	C.2	1	UNK0	0.000	
3	   C	21.639	78.051	13.954	C.2	1	UNK0	0.000	
4	   C	22.171	78.930	14.875	C.2	1	UNK0	0.000	
5	   C	22.609	80.191	14.483	C.2	1	UNK0	0.000	
6	   C	22.588	80.544	13.136	C.2	1	UNK0	0.000	
7	   N	21.246	76.724	14.398	N.pl3	1	UNK0	0.000	
8	   H	21.663	76.348	15.238	 H	1	UNK0	0.000	
9	   C	20.276	75.921	13.681	C.2	1	UNK0	0.000	
10	   N	20.111	74.599	14.260	N.pl3	1	UNK0	0.000	
11	   H	20.647	74.320	15.069	 H	1	UNK0	0.000	
12	   O	19.662	76.353	12.754	O.2	1	UNK0	0.000	
13	   C	19.157	73.683	13.648	C.2	1	UNK0	0.000	
14	   C	19.629	72.421	13.293	C.2	1	UNK0	0.000	
15	   C	18.769	71.514	12.688	C.2	1	UNK0	0.000	
16	   C	17.452	71.919	12.458	C.2	1	UNK0	0.000	
17	   C	16.999	73.184	12.807	C.2	1	UNK0	0.000	
18	   C	17.851	74.087	13.412	C.2	1	UNK0	0.000	
19	   C	16.475	70.932	11.786	C.3	1	UNK0	0.000	
20	   C	22.083	80.007	10.697	C.3	1	UNK0	0.000	
21	   C	21.723	79.208	9.440	C.3	1	UNK0	0.000	
22	   C	20.859	80.391	9.863	C.3	1	UNK0	0.000	
23	   C	19.499	80.056	10.500	C.2	1	UNK0	0.000	
24	   O	19.081	78.862	10.586	O.co2	1	UNK0	0.000	
25	   O	18.787	80.994	10.938	O.co2	1	UNK0	0.000	
26	   N	22.167	78.588	16.335	N.pl3	1	UNK0	0.000	
27	   C	20.906	78.983	17.086	C.3	1	UNK0	0.000	
28	   C	20.746	78.212	18.393	C.3	1	UNK0	0.000	
29	   C	19.546	78.802	19.171	C.3	1	UNK0	0.000	
30	   C	19.716	80.313	19.394	C.3	1	UNK0	0.000	
31	   C	19.934	81.098	18.093	C.3	1	UNK0	0.000	
32	   C	21.105	80.489	17.298	C.3	1	UNK0	0.000	
33	   C	23.411	78.163	17.077	C.3	1	UNK0	0.000	
34	   C	24.690	78.267	16.176	C.3	1	UNK0	0.000	
35	   C	25.799	78.979	17.018	C.3	1	UNK0	0.000	
36	   C	25.078	76.836	15.786	C.3	1	UNK0	0.000	
@<TRIPOS>BOND
1 1 2 2
2 1 6 1
3 1 20 1
4 2 3 1
5 3 4 2
6 3 7 1
7 4 5 1
8 4 26 1
9 5 6 2
10 26 33 1
11 26 27 1
12 33 34 1
13 34 35 1
14 34 36 1
15 27 28 1
16 27 32 1
17 28 29 1
18 29 30 1
19 30 31 1
20 31 32 1
21 7 8 1
22 7 9 1
23 9 10 1
24 9 12 2
25 10 11 1
26 10 13 1
27 13 14 2
28 13 18 1
29 14 15 1
30 15 16 2
31 16 17 1
32 16 19 1
33 17 18 2
34 20 21 1
35 20 22 1
36 21 22 1
37 22 23 1
38 23 24 1
39 23 25 2
@<TRIPOS>SUBSTRUCTURE
1	UNK0	1	GROUP	1 ****	UNK
