# created with PyMOL 2.5.2
@<TRIPOS>MOLECULE
6q9y.B
28 31 1                 
SMALL
USER_CHARGES
@<TRIPOS>ATOM
1	   C	-1.449	16.899	-13.424	C.2	1	UNK0	0.000	
2	   N	-0.801	16.257	-12.421	N.pl3	1	UNK0	0.000	
3	   H	-1.139	16.341	-11.473	 H	1	UNK0	0.000	
4	   O	-1.090	16.815	-14.601	O.2	1	UNK0	0.000	
5	   C	-2.275	19.804	-9.808	C.2	1	UNK0	0.000	
6	   C	-3.534	20.399	-9.899	C.2	1	UNK0	0.000	
7	   C	-4.388	20.085	-10.972	C.2	1	UNK0	0.000	
8	   C	-1.812	18.882	-10.749	C.2	1	UNK0	0.000	
9	   C	-2.668	18.582	-11.819	C.2	1	UNK0	0.000	
10	   C	-3.918	19.184	-11.933	C.2	1	UNK0	0.000	
11	   N	-4.543	18.762	-13.065	N.pl3	1	UNK0	0.000	
12	   H	-5.464	19.047	-13.367	 H	1	UNK0	0.000	
13	   C	-3.749	17.915	-13.710	C.2	1	UNK0	0.000	
14	   C	-2.593	17.735	-13.042	C.2	1	UNK0	0.000	
15	   O	-5.651	20.619	-11.128	O.3	1	UNK0	0.000	
16	   C	-6.161	21.461	-10.074	C.3	1	UNK0	0.000	
17	   C	0.379	15.447	-12.697	C.3	1	UNK0	0.000	
18	   C	0.132	13.932	-12.757	C.3	1	UNK0	0.000	
19	   N	1.447	13.388	-12.422	N.pl3	1	UNK0	0.000	
20	   C	2.331	14.378	-11.807	C.3	1	UNK0	0.000	
21	   C	1.411	15.589	-11.567	C.3	1	UNK0	0.000	
22	   C	1.905	12.182	-12.884	C.2	1	UNK0	0.000	
23	   C	3.179	11.716	-12.532	C.2	1	UNK0	0.000	
24	   C	3.677	10.509	-13.006	C.2	1	UNK0	0.000	
25	   C	2.916	9.738	-13.879	C.2	1	UNK0	0.000	
26	   C	1.644	10.182	-14.236	C.2	1	UNK0	0.000	
27	   C	1.136	11.384	-13.748	C.2	1	UNK0	0.000	
28	   C	3.460	8.416	-14.413	C.3	1	UNK0	0.000	
@<TRIPOS>BOND
1 5 6 2
2 5 8 1
3 6 7 1
4 7 10 2
5 7 15 1
6 8 9 2
7 9 10 1
8 9 14 1
9 10 11 1
10 11 12 1
11 11 13 1
12 13 14 2
13 1 14 1
14 15 16 1
15 1 2 1
16 1 4 2
17 2 3 1
18 2 17 1
19 17 18 1
20 17 21 1
21 18 19 1
22 19 20 1
23 19 22 1
24 20 21 1
25 22 23 2
26 22 27 1
27 23 24 1
28 24 25 2
29 25 26 1
30 25 28 1
31 26 27 2
@<TRIPOS>SUBSTRUCTURE
1	UNK0	1	GROUP	1 ****	UNK
