# created with PyMOL 2.5.2
@<TRIPOS>MOLECULE
6S1J
21 24 1                 
SMALL
USER_CHARGES
@<TRIPOS>ATOM
1	   N	15.696	-53.710	39.237	N.2	1	UNK0	0.000	
2	   C	16.237	-54.544	38.342	C.2	1	UNK0	0.000	
3	   C	16.190	-52.461	39.215	C.2	1	UNK0	0.000	
4	   N	17.200	-54.257	37.449	N.2	1	UNK0	0.000	
5	   C	17.179	-52.046	38.357	C.2	1	UNK0	0.000	
6	   C	17.661	-52.988	37.468	C.2	1	UNK0	0.000	
7	   N	20.369	-51.613	35.470	N.2	1	UNK0	0.000	
8	   N	19.987	-52.679	34.775	N.pl3	1	UNK0	0.000	
9	   N	20.647	-52.974	33.638	N.2	1	UNK0	0.000	
10	   C	18.653	-52.691	36.478	C.2	1	UNK0	0.000	
11	   C	19.558	-51.622	36.502	C.2	1	UNK0	0.000	
12	   C	18.978	-53.389	35.322	C.2	1	UNK0	0.000	
13	   C	18.526	-54.537	34.623	C.2	1	UNK0	0.000	
14	   C	19.147	-54.894	33.469	C.2	1	UNK0	0.000	
15	   C	20.206	-54.079	33.037	C.2	1	UNK0	0.000	
16	   N	15.764	-55.806	38.334	N.pl3	1	UNK0	0.000	
17	   C	15.264	-57.999	37.758	C.3	1	UNK0	0.000	
18	   C	16.056	-56.776	37.299	C.3	1	UNK0	0.000	
19	   C	14.776	-56.292	39.291	C.3	1	UNK0	0.000	
20	   C	14.213	-57.476	38.666	C.3	1	UNK0	0.000	
21	   F	13.139	-56.989	37.876	 F	1	UNK0	0.000	
@<TRIPOS>BOND
1 16 18 1
2 16 19 1
3 2 16 1
4 17 18 1
5 17 20 1
6 1 2 2
7 1 3 1
8 19 20 1
9 7 8 1
10 7 11 2
11 20 21 1
12 8 9 1
13 8 12 1
14 2 4 1
15 9 15 2
16 3 5 2
17 4 6 2
18 5 6 1
19 6 10 1
20 10 11 1
21 10 12 2
22 12 13 1
23 13 14 2
24 14 15 1
@<TRIPOS>SUBSTRUCTURE
1	UNK0	1	GROUP	1 ****	UNK
