6S1J


 21 24  0  0  0  0  0  0  0  0999 V2000
   15.6963  -53.7103   39.2368 N   0  0  0  0  0  0  0  0  0  0  0  0
   16.2374  -54.5437   38.3416 C   0  0  0  0  0  0  0  0  0  0  0  0
   16.1899  -52.4612   39.2145 C   0  0  0  0  0  0  0  0  0  0  0  0
   17.1999  -54.2570   37.4485 N   0  0  0  0  0  0  0  0  0  0  0  0
   17.1786  -52.0459   38.3573 C   0  0  0  0  0  0  0  0  0  0  0  0
   17.6609  -52.9878   37.4678 C   0  0  0  0  0  0  0  0  0  0  0  0
   20.3692  -51.6132   35.4699 N   0  0  0  0  0  0  0  0  0  0  0  0
   19.9868  -52.6792   34.7750 N   0  0  0  0  0  0  0  0  0  0  0  0
   20.6468  -52.9745   33.6383 N   0  0  0  0  0  0  0  0  0  0  0  0
   18.6528  -52.6908   36.4781 C   0  0  0  0  0  0  0  0  0  0  0  0
   19.5578  -51.6216   36.5019 C   0  0  0  0  0  0  0  0  0  0  0  0
   18.9780  -53.3888   35.3223 C   0  0  0  0  0  0  0  0  0  0  0  0
   18.5256  -54.5368   34.6233 C   0  0  0  0  0  0  0  0  0  0  0  0
   19.1471  -54.8938   33.4688 C   0  0  0  0  0  0  0  0  0  0  0  0
   20.2065  -54.0789   33.0367 C   0  0  0  0  0  0  0  0  0  0  0  0
   15.7638  -55.8061   38.3345 N   0  0  0  0  0  0  0  0  0  0  0  0
   15.2644  -57.9993   37.7579 C   0  0  0  0  0  0  0  0  0  0  0  0
   16.0557  -56.7757   37.2990 C   0  0  0  0  0  0  0  0  0  0  0  0
   14.7757  -56.2921   39.2908 C   0  0  0  0  0  0  0  0  0  0  0  0
   14.2126  -57.4758   38.6659 C   0  0  0  0  0  0  0  0  0  0  0  0
   13.1392  -56.9887   37.8759 F   0  0  0  0  0  0  0  0  0  0  0  0
 16 18  1  0  0  0
 16 19  1  0  0  0
 16  2  1  0  0  0
 17 18  1  0  0  0
 17 20  1  0  0  0
  1  2  2  0  0  0
  1  3  1  0  0  0
 19 20  1  0  0  0
  7  8  1  0  0  0
  7 11  2  0  0  0
 20 21  1  0  0  0
  8  9  1  0  0  0
  8 12  1  0  0  0
  2  4  1  0  0  0
  9 15  2  0  0  0
  3  5  2  0  0  0
  4  6  2  0  0  0
  5  6  1  0  0  0
  6 10  1  0  0  0
 10 11  1  0  0  0
 10 12  2  0  0  0
 12 13  1  0  0  0
 13 14  2  0  0  0
 14 15  1  0  0  0
M  END
> <minimizedAffinity>
-9.61293

$$$$
6S1J


 21 24  0  0  0  0  0  0  0  0999 V2000
   20.1030  -52.5223   35.0015 N   0  0  0  0  0  0  0  0  0  0  0  0
   19.2175  -53.5230   34.9462 C   0  0  0  0  0  0  0  0  0  0  0  0
   19.9664  -51.7063   36.0598 C   0  0  0  0  0  0  0  0  0  0  0  0
   18.2330  -53.7809   35.8241 N   0  0  0  0  0  0  0  0  0  0  0  0
   18.9976  -51.8575   37.0207 C   0  0  0  0  0  0  0  0  0  0  0  0
   18.1396  -52.9308   36.8694 C   0  0  0  0  0  0  0  0  0  0  0  0
   15.6172  -52.9442   39.4872 N   0  0  0  0  0  0  0  0  0  0  0  0
   15.5631  -54.1806   39.0038 N   0  0  0  0  0  0  0  0  0  0  0  0
   14.6616  -55.0347   39.5260 N   0  0  0  0  0  0  0  0  0  0  0  0
   17.1141  -53.2499   37.8170 C   0  0  0  0  0  0  0  0  0  0  0  0
   16.5594  -52.3818   38.7666 C   0  0  0  0  0  0  0  0  0  0  0  0
   16.4139  -54.4370   37.9884 C   0  0  0  0  0  0  0  0  0  0  0  0
   16.4025  -55.7420   37.4334 C   0  0  0  0  0  0  0  0  0  0  0  0
   15.5172  -56.6549   37.9122 C   0  0  0  0  0  0  0  0  0  0  0  0
   14.6676  -56.2360   38.9495 C   0  0  0  0  0  0  0  0  0  0  0  0
   19.3267  -54.3635   33.8976 N   0  0  0  0  0  0  0  0  0  0  0  0
   19.7446  -55.2782   31.8045 C   0  0  0  0  0  0  0  0  0  0  0  0
   19.8857  -53.9906   32.6146 C   0  0  0  0  0  0  0  0  0  0  0  0
   18.7510  -55.7034   33.8866 C   0  0  0  0  0  0  0  0  0  0  0  0
   18.6779  -56.0591   32.4807 C   0  0  0  0  0  0  0  0  0  0  0  0
   17.4189  -55.5657   32.0503 F   0  0  0  0  0  0  0  0  0  0  0  0
 16 18  1  0  0  0
 16 19  1  0  0  0
 16  2  1  0  0  0
 17 18  1  0  0  0
 17 20  1  0  0  0
  1  2  2  0  0  0
  1  3  1  0  0  0
 19 20  1  0  0  0
  7  8  1  0  0  0
  7 11  2  0  0  0
 20 21  1  0  0  0
  8  9  1  0  0  0
  8 12  1  0  0  0
  2  4  1  0  0  0
  9 15  2  0  0  0
  3  5  2  0  0  0
  4  6  2  0  0  0
  5  6  1  0  0  0
  6 10  1  0  0  0
 10 11  1  0  0  0
 10 12  2  0  0  0
 12 13  1  0  0  0
 13 14  2  0  0  0
 14 15  1  0  0  0
M  END
> <minimizedAffinity>
-9.32844

$$$$
6S1J


 21 24  0  0  0  0  0  0  0  0999 V2000
   16.8987  -57.9123   35.3823 N   0  0  0  0  0  0  0  0  0  0  0  0
   16.8648  -56.8204   36.1538 C   0  0  0  0  0  0  0  0  0  0  0  0
   17.7241  -57.8307   34.3257 C   0  0  0  0  0  0  0  0  0  0  0  0
   17.5586  -55.6831   35.9762 N   0  0  0  0  0  0  0  0  0  0  0  0
   18.4795  -56.7229   34.0304 C   0  0  0  0  0  0  0  0  0  0  0  0
   18.3735  -55.6533   34.8997 C   0  0  0  0  0  0  0  0  0  0  0  0
   20.5947  -52.9747   33.8472 N   0  0  0  0  0  0  0  0  0  0  0  0
   20.0174  -52.4828   34.9381 N   0  0  0  0  0  0  0  0  0  0  0  0
   20.3397  -51.2338   35.3267 N   0  0  0  0  0  0  0  0  0  0  0  0
   19.1379  -54.4508   34.7544 C   0  0  0  0  0  0  0  0  0  0  0  0
   20.0605  -54.1690   33.7384 C   0  0  0  0  0  0  0  0  0  0  0  0
   19.1180  -53.2975   35.5280 C   0  0  0  0  0  0  0  0  0  0  0  0
   18.4711  -52.8263   36.6987 C   0  0  0  0  0  0  0  0  0  0  0  0
   18.7486  -51.5739   37.1472 C   0  0  0  0  0  0  0  0  0  0  0  0
   19.6818  -50.8253   36.4110 C   0  0  0  0  0  0  0  0  0  0  0  0
   16.0479  -56.8682   37.2254 N   0  0  0  0  0  0  0  0  0  0  0  0
   14.4721  -57.5151   38.8035 C   0  0  0  0  0  0  0  0  0  0  0  0
   15.1770  -57.9840   37.5317 C   0  0  0  0  0  0  0  0  0  0  0  0
   15.8337  -55.7330   38.1157 C   0  0  0  0  0  0  0  0  0  0  0  0
   14.5898  -56.0350   38.8013 C   0  0  0  0  0  0  0  0  0  0  0  0
   13.5778  -55.5053   37.9593 F   0  0  0  0  0  0  0  0  0  0  0  0
 16 18  1  0  0  0
 16 19  1  0  0  0
 16  2  1  0  0  0
 17 18  1  0  0  0
 17 20  1  0  0  0
  1  2  2  0  0  0
  1  3  1  0  0  0
 19 20  1  0  0  0
  7  8  1  0  0  0
  7 11  2  0  0  0
 20 21  1  0  0  0
  8  9  1  0  0  0
  8 12  1  0  0  0
  2  4  1  0  0  0
  9 15  2  0  0  0
  3  5  2  0  0  0
  4  6  2  0  0  0
  5  6  1  0  0  0
  6 10  1  0  0  0
 10 11  1  0  0  0
 10 12  2  0  0  0
 12 13  1  0  0  0
 13 14  2  0  0  0
 14 15  1  0  0  0
M  END
> <minimizedAffinity>
-9.04307

$$$$
6S1J


 21 24  0  0  0  0  0  0  0  0999 V2000
   19.8432  -53.7586   36.4845 N   0  0  0  0  0  0  0  0  0  0  0  0
   18.9168  -54.4350   35.7968 C   0  0  0  0  0  0  0  0  0  0  0  0
   19.5530  -53.5651   37.7817 C   0  0  0  0  0  0  0  0  0  0  0  0
   17.7573  -54.9246   36.2681 N   0  0  0  0  0  0  0  0  0  0  0  0
   18.3996  -54.0076   38.3805 C   0  0  0  0  0  0  0  0  0  0  0  0
   17.5144  -54.7029   37.5780 C   0  0  0  0  0  0  0  0  0  0  0  0
   14.3176  -55.3978   39.1634 N   0  0  0  0  0  0  0  0  0  0  0  0
   14.5950  -56.5295   38.5249 N   0  0  0  0  0  0  0  0  0  0  0  0
   13.7037  -57.5376   38.5897 N   0  0  0  0  0  0  0  0  0  0  0  0
   16.2960  -55.2723   38.0707 C   0  0  0  0  0  0  0  0  0  0  0  0
   15.3513  -54.6371   38.8874 C   0  0  0  0  0  0  0  0  0  0  0  0
   15.7521  -56.5276   37.8309 C   0  0  0  0  0  0  0  0  0  0  0  0
   16.1020  -57.7102   37.1308 C   0  0  0  0  0  0  0  0  0  0  0  0
   15.2481  -58.7669   37.1526 C   0  0  0  0  0  0  0  0  0  0  0  0
   14.0622  -58.6132   37.8897 C   0  0  0  0  0  0  0  0  0  0  0  0
   19.1765  -54.6494   34.4912 N   0  0  0  0  0  0  0  0  0  0  0  0
   19.8990  -54.4353   32.2948 C   0  0  0  0  0  0  0  0  0  0  0  0
   19.9268  -53.7370   33.6534 C   0  0  0  0  0  0  0  0  0  0  0  0
   18.5974  -55.7533   33.7342 C   0  0  0  0  0  0  0  0  0  0  0  0
   18.7353  -55.3563   32.3443 C   0  0  0  0  0  0  0  0  0  0  0  0
   17.5605  -54.6108   32.0654 F   0  0  0  0  0  0  0  0  0  0  0  0
 16 18  1  0  0  0
 16 19  1  0  0  0
 16  2  1  0  0  0
 17 18  1  0  0  0
 17 20  1  0  0  0
  1  2  2  0  0  0
  1  3  1  0  0  0
 19 20  1  0  0  0
  7  8  1  0  0  0
  7 11  2  0  0  0
 20 21  1  0  0  0
  8  9  1  0  0  0
  8 12  1  0  0  0
  2  4  1  0  0  0
  9 15  2  0  0  0
  3  5  2  0  0  0
  4  6  2  0  0  0
  5  6  1  0  0  0
  6 10  1  0  0  0
 10 11  1  0  0  0
 10 12  2  0  0  0
 12 13  1  0  0  0
 13 14  2  0  0  0
 14 15  1  0  0  0
M  END
> <minimizedAffinity>
-8.96233

$$$$
6S1J


 21 24  0  0  0  0  0  0  0  0999 V2000
   20.0937  -54.2463   32.5362 N   0  0  0  0  0  0  0  0  0  0  0  0
   19.0647  -55.0928   32.6513 C   0  0  0  0  0  0  0  0  0  0  0  0
   20.3348  -53.5002   33.6269 C   0  0  0  0  0  0  0  0  0  0  0  0
   18.2730  -55.2618   33.7241 N   0  0  0  0  0  0  0  0  0  0  0  0
   19.5943  -53.5727   34.7807 C   0  0  0  0  0  0  0  0  0  0  0  0
   18.5583  -54.4879   34.7934 C   0  0  0  0  0  0  0  0  0  0  0  0
   16.4285  -55.8400   37.4110 N   0  0  0  0  0  0  0  0  0  0  0  0
   16.6175  -54.5807   37.7902 N   0  0  0  0  0  0  0  0  0  0  0  0
   16.0586  -54.1676   38.9442 N   0  0  0  0  0  0  0  0  0  0  0  0
   17.7325  -54.7161   35.9412 C   0  0  0  0  0  0  0  0  0  0  0  0
   17.1048  -55.9195   36.2886 C   0  0  0  0  0  0  0  0  0  0  0  0
   17.4032  -53.8478   36.9740 C   0  0  0  0  0  0  0  0  0  0  0  0
   17.6387  -52.4947   37.3271 C   0  0  0  0  0  0  0  0  0  0  0  0
   17.1054  -52.0112   38.4796 C   0  0  0  0  0  0  0  0  0  0  0  0
   16.3359  -52.9002   39.2482 C   0  0  0  0  0  0  0  0  0  0  0  0
   18.7955  -55.8595   31.5754 N   0  0  0  0  0  0  0  0  0  0  0  0
   17.8414  -57.3750   30.0971 C   0  0  0  0  0  0  0  0  0  0  0  0
   17.6517  -56.7422   31.4747 C   0  0  0  0  0  0  0  0  0  0  0  0
   19.7119  -56.0038   30.4500 C   0  0  0  0  0  0  0  0  0  0  0  0
   19.2846  -57.2212   29.7837 C   0  0  0  0  0  0  0  0  0  0  0  0
   19.9991  -58.2583   30.4377 F   0  0  0  0  0  0  0  0  0  0  0  0
 16 18  1  0  0  0
 16 19  1  0  0  0
 16  2  1  0  0  0
 17 18  1  0  0  0
 17 20  1  0  0  0
  1  2  2  0  0  0
  1  3  1  0  0  0
 19 20  1  0  0  0
  7  8  1  0  0  0
  7 11  2  0  0  0
 20 21  1  0  0  0
  8  9  1  0  0  0
  8 12  1  0  0  0
  2  4  1  0  0  0
  9 15  2  0  0  0
  3  5  2  0  0  0
  4  6  2  0  0  0
  5  6  1  0  0  0
  6 10  1  0  0  0
 10 11  1  0  0  0
 10 12  2  0  0  0
 12 13  1  0  0  0
 13 14  2  0  0  0
 14 15  1  0  0  0
M  END
> <minimizedAffinity>
-8.45750

$$$$
6S1J


 21 24  0  0  0  0  0  0  0  0999 V2000
   19.4409  -52.8937   35.7066 N   0  0  0  0  0  0  0  0  0  0  0  0
   18.2841  -53.5398   35.8885 C   0  0  0  0  0  0  0  0  0  0  0  0
   20.0760  -53.1864   34.5597 C   0  0  0  0  0  0  0  0  0  0  0  0
   17.7146  -54.4280   35.0560 N   0  0  0  0  0  0  0  0  0  0  0  0
   19.6034  -54.0812   33.6320 C   0  0  0  0  0  0  0  0  0  0  0  0
   18.3937  -54.6863   33.9176 C   0  0  0  0  0  0  0  0  0  0  0  0
   16.1122  -56.9065   32.1622 N   0  0  0  0  0  0  0  0  0  0  0  0
   17.2019  -56.9243   31.4023 N   0  0  0  0  0  0  0  0  0  0  0  0
   17.1842  -57.6579   30.2725 N   0  0  0  0  0  0  0  0  0  0  0  0
   17.7477  -55.6000   33.0235 C   0  0  0  0  0  0  0  0  0  0  0  0
   16.4460  -56.1035   33.1457 C   0  0  0  0  0  0  0  0  0  0  0  0
   18.2184  -56.1520   31.8392 C   0  0  0  0  0  0  0  0  0  0  0  0
   19.4091  -56.1331   31.0691 C   0  0  0  0  0  0  0  0  0  0  0  0
   19.4606  -56.8503   29.9161 C   0  0  0  0  0  0  0  0  0  0  0  0
   18.3126  -57.5813   29.5682 C   0  0  0  0  0  0  0  0  0  0  0  0
   17.6182  -53.2682   37.0290 N   0  0  0  0  0  0  0  0  0  0  0  0
   16.7006  -52.2062   38.8789 C   0  0  0  0  0  0  0  0  0  0  0  0
   17.5190  -51.9476   37.6151 C   0  0  0  0  0  0  0  0  0  0  0  0
   17.0512  -54.3027   37.8866 C   0  0  0  0  0  0  0  0  0  0  0  0
   16.8665  -53.6524   39.1717 C   0  0  0  0  0  0  0  0  0  0  0  0
   18.1009  -53.8350   39.8474 F   0  0  0  0  0  0  0  0  0  0  0  0
 16 18  1  0  0  0
 16 19  1  0  0  0
 16  2  1  0  0  0
 17 18  1  0  0  0
 17 20  1  0  0  0
  1  2  2  0  0  0
  1  3  1  0  0  0
 19 20  1  0  0  0
  7  8  1  0  0  0
  7 11  2  0  0  0
 20 21  1  0  0  0
  8  9  1  0  0  0
  8 12  1  0  0  0
  2  4  1  0  0  0
  9 15  2  0  0  0
  3  5  2  0  0  0
  4  6  2  0  0  0
  5  6  1  0  0  0
  6 10  1  0  0  0
 10 11  1  0  0  0
 10 12  2  0  0  0
 12 13  1  0  0  0
 13 14  2  0  0  0
 14 15  1  0  0  0
M  END
> <minimizedAffinity>
-8.44164

$$$$
6S1J


 21 24  0  0  0  0  0  0  0  0999 V2000
   16.0792  -57.5612   33.1775 N   0  0  0  0  0  0  0  0  0  0  0  0
   16.3761  -57.1151   34.4029 C   0  0  0  0  0  0  0  0  0  0  0  0
   16.7076  -56.9219   32.1771 C   0  0  0  0  0  0  0  0  0  0  0  0
   17.2192  -56.1168   34.7176 N   0  0  0  0  0  0  0  0  0  0  0  0
   17.5844  -55.8825   32.3666 C   0  0  0  0  0  0  0  0  0  0  0  0
   17.8247  -55.5078   33.6753 C   0  0  0  0  0  0  0  0  0  0  0  0
   20.5464  -53.1060   33.8737 N   0  0  0  0  0  0  0  0  0  0  0  0
   19.8261  -52.8425   34.9586 N   0  0  0  0  0  0  0  0  0  0  0  0
   20.2221  -51.8370   35.7629 N   0  0  0  0  0  0  0  0  0  0  0  0
   18.7534  -54.4782   34.0344 C   0  0  0  0  0  0  0  0  0  0  0  0
   19.8945  -54.0992   33.3152 C   0  0  0  0  0  0  0  0  0  0  0  0
   18.7256  -53.6072   35.1159 C   0  0  0  0  0  0  0  0  0  0  0  0
   17.9186  -53.3728   36.2582 C   0  0  0  0  0  0  0  0  0  0  0  0
   18.2592  -52.3726   37.1126 C   0  0  0  0  0  0  0  0  0  0  0  0
   19.4141  -51.6352   36.8030 C   0  0  0  0  0  0  0  0  0  0  0  0
   15.7647  -57.7359   35.4318 N   0  0  0  0  0  0  0  0  0  0  0  0
   14.1864  -58.5412   36.9327 C   0  0  0  0  0  0  0  0  0  0  0  0
   14.3317  -57.7373   35.6417 C   0  0  0  0  0  0  0  0  0  0  0  0
   16.4909  -58.3476   36.5388 C   0  0  0  0  0  0  0  0  0  0  0  0
   15.5090  -58.4609   37.6027 C   0  0  0  0  0  0  0  0  0  0  0  0
   15.5867  -57.2254   38.2963 F   0  0  0  0  0  0  0  0  0  0  0  0
 16 18  1  0  0  0
 16 19  1  0  0  0
 16  2  1  0  0  0
 17 18  1  0  0  0
 17 20  1  0  0  0
  1  2  2  0  0  0
  1  3  1  0  0  0
 19 20  1  0  0  0
  7  8  1  0  0  0
  7 11  2  0  0  0
 20 21  1  0  0  0
  8  9  1  0  0  0
  8 12  1  0  0  0
  2  4  1  0  0  0
  9 15  2  0  0  0
  3  5  2  0  0  0
  4  6  2  0  0  0
  5  6  1  0  0  0
  6 10  1  0  0  0
 10 11  1  0  0  0
 10 12  2  0  0  0
 12 13  1  0  0  0
 13 14  2  0  0  0
 14 15  1  0  0  0
M  END
> <minimizedAffinity>
-8.42068

$$$$
6S1J


 21 24  0  0  0  0  0  0  0  0999 V2000
   18.7404  -55.7942   34.8204 N   0  0  0  0  0  0  0  0  0  0  0  0
   17.7121  -55.4792   35.6155 C   0  0  0  0  0  0  0  0  0  0  0  0
   18.5061  -56.8076   33.9704 C   0  0  0  0  0  0  0  0  0  0  0  0
   16.5024  -56.0643   35.6427 N   0  0  0  0  0  0  0  0  0  0  0  0
   17.3172  -57.4912   33.9062 C   0  0  0  0  0  0  0  0  0  0  0  0
   16.3191  -57.0770   34.7684 C   0  0  0  0  0  0  0  0  0  0  0  0
   12.9995  -58.3435   33.9988 N   0  0  0  0  0  0  0  0  0  0  0  0
   13.1565  -58.6554   35.2808 N   0  0  0  0  0  0  0  0  0  0  0  0
   12.1653  -59.3207   35.9051 N   0  0  0  0  0  0  0  0  0  0  0  0
   15.0091  -57.6561   34.7815 C   0  0  0  0  0  0  0  0  0  0  0  0
   14.1240  -57.7364   33.6984 C   0  0  0  0  0  0  0  0  0  0  0  0
   14.3410  -58.2957   35.8175 C   0  0  0  0  0  0  0  0  0  0  0  0
   14.5644  -58.6009   37.1843 C   0  0  0  0  0  0  0  0  0  0  0  0
   13.6061  -59.2720   37.8756 C   0  0  0  0  0  0  0  0  0  0  0  0
   12.4363  -59.6127   37.1766 C   0  0  0  0  0  0  0  0  0  0  0  0
   17.9115  -54.4644   36.4805 N   0  0  0  0  0  0  0  0  0  0  0  0
   18.5995  -52.4819   37.4749 C   0  0  0  0  0  0  0  0  0  0  0  0
   18.6567  -53.2636   36.1635 C   0  0  0  0  0  0  0  0  0  0  0  0
   17.5304  -54.5290   37.8867 C   0  0  0  0  0  0  0  0  0  0  0  0
   18.3173  -53.4904   38.5275 C   0  0  0  0  0  0  0  0  0  0  0  0
   19.5362  -54.1275   38.8773 F   0  0  0  0  0  0  0  0  0  0  0  0
 16 18  1  0  0  0
 16 19  1  0  0  0
 16  2  1  0  0  0
 17 18  1  0  0  0
 17 20  1  0  0  0
  1  2  2  0  0  0
  1  3  1  0  0  0
 19 20  1  0  0  0
  7  8  1  0  0  0
  7 11  2  0  0  0
 20 21  1  0  0  0
  8  9  1  0  0  0
  8 12  1  0  0  0
  2  4  1  0  0  0
  9 15  2  0  0  0
  3  5  2  0  0  0
  4  6  2  0  0  0
  5  6  1  0  0  0
  6 10  1  0  0  0
 10 11  1  0  0  0
 10 12  2  0  0  0
 12 13  1  0  0  0
 13 14  2  0  0  0
 14 15  1  0  0  0
M  END
> <minimizedAffinity>
-8.36493

$$$$
6S1J


 21 24  0  0  0  0  0  0  0  0999 V2000
   13.8755  -57.2921   38.6432 N   0  0  0  0  0  0  0  0  0  0  0  0
   14.4562  -57.5907   37.4759 C   0  0  0  0  0  0  0  0  0  0  0  0
   14.3935  -56.2254   39.2741 C   0  0  0  0  0  0  0  0  0  0  0  0
   15.4789  -56.9426   36.8926 N   0  0  0  0  0  0  0  0  0  0  0  0
   15.4426  -55.4854   38.7875 C   0  0  0  0  0  0  0  0  0  0  0  0
   15.9621  -55.8777   37.5680 C   0  0  0  0  0  0  0  0  0  0  0  0
   18.6846  -54.7746   35.4262 N   0  0  0  0  0  0  0  0  0  0  0  0
   18.4742  -53.7280   36.2172 N   0  0  0  0  0  0  0  0  0  0  0  0
   19.2208  -52.6224   36.0304 N   0  0  0  0  0  0  0  0  0  0  0  0
   17.0205  -55.1737   36.9078 C   0  0  0  0  0  0  0  0  0  0  0  0
   17.8025  -55.6508   35.8477 C   0  0  0  0  0  0  0  0  0  0  0  0
   17.4811  -53.8804   37.1178 C   0  0  0  0  0  0  0  0  0  0  0  0
   17.2124  -52.7961   37.9915 C   0  0  0  0  0  0  0  0  0  0  0  0
   17.9279  -51.6486   37.8584 C   0  0  0  0  0  0  0  0  0  0  0  0
   18.9084  -51.6217   36.8527 C   0  0  0  0  0  0  0  0  0  0  0  0
   13.9597  -58.6552   36.8139 N   0  0  0  0  0  0  0  0  0  0  0  0
   13.3915  -60.1963   35.1724 C   0  0  0  0  0  0  0  0  0  0  0  0
   14.1809  -58.9092   35.4053 C   0  0  0  0  0  0  0  0  0  0  0  0
   13.0125  -59.5921   37.4073 C   0  0  0  0  0  0  0  0  0  0  0  0
   12.3969  -60.2580   36.2732 C   0  0  0  0  0  0  0  0  0  0  0  0
   11.2939  -59.4344   35.9284 F   0  0  0  0  0  0  0  0  0  0  0  0
 16 18  1  0  0  0
 16 19  1  0  0  0
 16  2  1  0  0  0
 17 18  1  0  0  0
 17 20  1  0  0  0
  1  2  2  0  0  0
  1  3  1  0  0  0
 19 20  1  0  0  0
  7  8  1  0  0  0
  7 11  2  0  0  0
 20 21  1  0  0  0
  8  9  1  0  0  0
  8 12  1  0  0  0
  2  4  1  0  0  0
  9 15  2  0  0  0
  3  5  2  0  0  0
  4  6  2  0  0  0
  5  6  1  0  0  0
  6 10  1  0  0  0
 10 11  1  0  0  0
 10 12  2  0  0  0
 12 13  1  0  0  0
 13 14  2  0  0  0
 14 15  1  0  0  0
M  END
> <minimizedAffinity>
-8.21189

$$$$
6S1J


 21 24  0  0  0  0  0  0  0  0999 V2000
   15.8974  -57.2186   37.8236 N   0  0  0  0  0  0  0  0  0  0  0  0
   16.3744  -56.0659   37.3414 C   0  0  0  0  0  0  0  0  0  0  0  0
   15.9707  -58.2579   36.9758 C   0  0  0  0  0  0  0  0  0  0  0  0
   16.9045  -55.8565   36.1243 N   0  0  0  0  0  0  0  0  0  0  0  0
   16.4820  -58.1718   35.7045 C   0  0  0  0  0  0  0  0  0  0  0  0
   16.9549  -56.9337   35.3114 C   0  0  0  0  0  0  0  0  0  0  0  0
   18.0006  -56.9508   31.8297 N   0  0  0  0  0  0  0  0  0  0  0  0
   18.7069  -55.9563   32.3565 N   0  0  0  0  0  0  0  0  0  0  0  0
   19.5261  -55.2539   31.5500 N   0  0  0  0  0  0  0  0  0  0  0  0
   17.5651  -56.7001   34.0367 C   0  0  0  0  0  0  0  0  0  0  0  0
   17.3096  -57.4012   32.8510 C   0  0  0  0  0  0  0  0  0  0  0  0
   18.4880  -55.7297   33.6685 C   0  0  0  0  0  0  0  0  0  0  0  0
   19.2162  -54.6813   34.2861 C   0  0  0  0  0  0  0  0  0  0  0  0
   20.0609  -53.9309   33.5312 C   0  0  0  0  0  0  0  0  0  0  0  0
   20.1621  -54.2603   32.1694 C   0  0  0  0  0  0  0  0  0  0  0  0
   16.3186  -55.0014   38.1670 N   0  0  0  0  0  0  0  0  0  0  0  0
   15.5904  -53.3076   39.5787 C   0  0  0  0  0  0  0  0  0  0  0  0
   15.1024  -54.5217   38.7902 C   0  0  0  0  0  0  0  0  0  0  0  0
   17.4531  -54.1162   38.4041 C   0  0  0  0  0  0  0  0  0  0  0  0
   16.8637  -52.8991   38.9331 C   0  0  0  0  0  0  0  0  0  0  0  0
   16.5565  -52.1211   37.7868 F   0  0  0  0  0  0  0  0  0  0  0  0
 16 18  1  0  0  0
 16 19  1  0  0  0
 16  2  1  0  0  0
 17 18  1  0  0  0
 17 20  1  0  0  0
  1  2  2  0  0  0
  1  3  1  0  0  0
 19 20  1  0  0  0
  7  8  1  0  0  0
  7 11  2  0  0  0
 20 21  1  0  0  0
  8  9  1  0  0  0
  8 12  1  0  0  0
  2  4  1  0  0  0
  9 15  2  0  0  0
  3  5  2  0  0  0
  4  6  2  0  0  0
  5  6  1  0  0  0
  6 10  1  0  0  0
 10 11  1  0  0  0
 10 12  2  0  0  0
 12 13  1  0  0  0
 13 14  2  0  0  0
 14 15  1  0  0  0
M  END
> <minimizedAffinity>
-8.17798

$$$$
