6y4q.D


 42 46  0  0  0  0  0  0  0  0999 V2000
    3.9573  -19.3904  -38.4975 C   0  0  0  0  0  0  0  0  0  0  0  0
    4.7602  -20.1830  -39.2280 C   0  0  0  0  0  0  0  0  0  0  0  0
    6.1396  -20.2807  -38.6241 C   0  0  0  0  0  0  0  0  0  0  0  0
    6.1272  -19.2343  -37.5132 C   0  0  0  0  0  0  0  0  0  0  0  0
    4.6713  -18.8486  -37.2839 C   0  0  0  0  0  0  0  0  0  0  0  0
    4.4320  -20.8781  -40.4805 C   0  0  0  0  0  0  0  0  0  0  0  0
    4.9692  -20.5964  -41.7161 C   0  0  0  0  0  0  0  0  0  0  0  0
    5.9469  -19.5344  -42.1271 C   0  0  0  0  0  0  0  0  0  0  0  0
    3.3944  -22.5310  -41.7626 C   0  0  0  0  0  0  0  0  0  0  0  0
    3.5314  -21.9876  -40.5131 C   0  0  0  0  0  0  0  0  0  0  0  0
    4.3623  -21.6924  -42.9192 S   0  0  0  0  0  0  0  0  0  0  0  0
    3.3145  -24.7348  -42.5029 O   0  0  0  0  0  0  0  0  0  0  0  0
    1.2853  -23.6184  -42.6411 N   0  0  0  0  0  0  0  0  0  0  0  0
    2.6798  -23.6966  -42.3303 C   0  0  0  0  0  0  0  0  0  0  0  0
    0.4671  -22.4117  -42.5885 C   0  0  0  0  0  0  0  0  0  0  0  0
    0.6445  -24.8216  -43.1492 C   0  0  0  0  0  0  0  0  0  0  0  0
   -1.3705  -26.0140  -40.3848 N   0  0  0  0  0  0  0  0  0  0  0  0
   -0.2598  -26.7571  -40.2612 N   0  0  0  0  0  0  0  0  0  0  0  0
    0.5460  -26.4052  -41.2296 N   0  0  0  0  0  0  0  0  0  0  0  0
   -0.0515  -25.4437  -41.9783 C   0  0  0  0  0  0  0  0  0  0  0  0
   -1.2717  -25.1801  -41.4318 C   0  0  0  0  0  0  0  0  0  0  0  0
   -2.5193  -26.1752  -39.4892 C   0  0  0  0  0  0  0  0  0  0  0  0
   -2.2798  -25.5531  -38.1349 C   0  0  0  0  0  0  0  0  0  0  0  0
    0.4907  -17.7540  -39.6313 S   0  0  0  0  0  0  0  0  0  0  0  0
    0.3102  -18.7759  -38.2542 C   0  0  0  0  0  0  0  0  0  0  0  0
    1.4873  -19.3909  -37.9381 C   0  0  0  0  0  0  0  0  0  0  0  0
    2.5668  -19.0157  -38.8029 C   0  0  0  0  0  0  0  0  0  0  0  0
    2.1725  -18.1422  -39.7880 C   0  0  0  0  0  0  0  0  0  0  0  0
    2.9648  -17.5000  -40.8861 C   0  0  0  0  0  0  0  0  0  0  0  0
   -1.4358  -17.9683  -36.5893 N   0  0  0  0  0  0  0  0  0  0  0  0
   -1.0767  -18.7819  -37.7237 C   0  0  0  0  0  0  0  0  0  0  0  0
   -1.9212  -19.4540  -38.3216 O   0  0  0  0  0  0  0  0  0  0  0  0
   -2.8191  -17.9095  -36.1306 C   0  0  0  0  0  0  0  0  0  0  0  0
   -0.4684  -17.1742  -35.8434 C   0  0  0  0  0  0  0  0  0  0  0  0
    0.3797  -13.8280  -36.9355 N   0  0  0  0  0  0  0  0  0  0  0  0
   -0.2451  -15.8233  -36.4509 C   0  0  0  0  0  0  0  0  0  0  0  0
   -0.7501  -14.0650  -37.6250 N   0  0  0  0  0  0  0  0  0  0  0  0
    0.7287  -14.8991  -36.2093 C   0  0  0  0  0  0  0  0  0  0  0  0
   -1.1279  -15.2840  -37.3289 N   0  0  0  0  0  0  0  0  0  0  0  0
    1.0494  -12.5307  -37.0124 C   0  0  0  0  0  0  0  0  0  0  0  0
    2.5095  -12.7024  -37.4045 C   0  0  0  0  0  0  0  0  0  0  0  0
    2.6430  -13.0388  -38.8543 C   0  0  0  0  0  0  0  0  0  0  0  0
 30 31  1  0  0  0
 30 34  1  0  0  0
 30 33  1  0  0  0
 31 32  2  0  0  0
 31 25  1  0  0  0
 34 36  1  0  0  0
 35 37  1  0  0  0
 35 38  1  0  0  0
 35 40  1  0  0  0
 12 14  2  0  0  0
 24 25  1  0  0  0
 24 28  1  0  0  0
 36 38  2  0  0  0
 36 39  1  0  0  0
 37 39  2  0  0  0
 40 41  1  0  0  0
 13 14  1  0  0  0
 13 16  1  0  0  0
 13 15  1  0  0  0
 41 42  1  0  0  0
 17 18  1  0  0  0
 17 21  1  0  0  0
 17 22  1  0  0  0
 18 19  2  0  0  0
 19 20  1  0  0  0
 25 26  2  0  0  0
 26 27  1  0  0  0
 27  1  1  0  0  0
 27 28  2  0  0  0
  1  2  1  0  0  0
  1  5  2  0  0  0
  2  6  1  0  0  0
  2  3  2  0  0  0
  6  7  2  0  0  0
  6 10  1  0  0  0
  7  8  1  0  0  0
  7 11  1  0  0  0
  9 14  1  0  0  0
  9 10  2  0  0  0
  9 11  1  0  0  0
 16 20  1  0  0  0
 20 21  2  0  0  0
 22 23  1  0  0  0
  3  4  1  0  0  0
  4  5  1  0  0  0
 28 29  1  0  0  0
M  END
> <minimizedAffinity>
-6.58557

$$$$
6y4q.D


 42 46  0  0  0  0  0  0  0  0999 V2000
    2.8633  -12.4924  -39.3153 C   0  0  0  0  0  0  0  0  0  0  0  0
    2.5511  -12.4372  -38.0092 C   0  0  0  0  0  0  0  0  0  0  0  0
    3.5466  -11.6068  -37.2370 C   0  0  0  0  0  0  0  0  0  0  0  0
    4.6592  -11.3378  -38.2462 C   0  0  0  0  0  0  0  0  0  0  0  0
    4.1068  -11.6944  -39.6205 C   0  0  0  0  0  0  0  0  0  0  0  0
    1.4256  -13.0940  -37.3299 C   0  0  0  0  0  0  0  0  0  0  0  0
    0.2580  -12.4787  -36.9391 C   0  0  0  0  0  0  0  0  0  0  0  0
   -0.1596  -11.0407  -37.0420 C   0  0  0  0  0  0  0  0  0  0  0  0
    0.2681  -14.9281  -36.4644 C   0  0  0  0  0  0  0  0  0  0  0  0
    1.4253  -14.4970  -37.0564 C   0  0  0  0  0  0  0  0  0  0  0  0
   -0.8379  -13.6245  -36.2298 S   0  0  0  0  0  0  0  0  0  0  0  0
    0.2480  -16.8117  -35.0997 O   0  0  0  0  0  0  0  0  0  0  0  0
   -1.4001  -16.8116  -36.7328 N   0  0  0  0  0  0  0  0  0  0  0  0
   -0.2773  -16.2415  -36.0533 C   0  0  0  0  0  0  0  0  0  0  0  0
   -2.0223  -16.2832  -37.9419 C   0  0  0  0  0  0  0  0  0  0  0  0
   -1.9078  -18.0816  -36.2371 C   0  0  0  0  0  0  0  0  0  0  0  0
   -1.8607  -20.3676  -39.0471 N   0  0  0  0  0  0  0  0  0  0  0  0
   -0.6750  -20.6129  -38.4681 N   0  0  0  0  0  0  0  0  0  0  0  0
   -0.5857  -19.8233  -37.4291 N   0  0  0  0  0  0  0  0  0  0  0  0
   -1.7093  -19.0665  -37.3475 C   0  0  0  0  0  0  0  0  0  0  0  0
   -2.5339  -19.4227  -38.3724 C   0  0  0  0  0  0  0  0  0  0  0  0
   -2.2818  -21.0443  -40.2770 C   0  0  0  0  0  0  0  0  0  0  0  0
   -1.2444  -22.0205  -40.7760 C   0  0  0  0  0  0  0  0  0  0  0  0
    0.3585  -14.1188  -41.9726 S   0  0  0  0  0  0  0  0  0  0  0  0
    1.5846  -15.2227  -41.4714 C   0  0  0  0  0  0  0  0  0  0  0  0
    2.4777  -14.6209  -40.6324 C   0  0  0  0  0  0  0  0  0  0  0  0
    2.1591  -13.2498  -40.3630 C   0  0  0  0  0  0  0  0  0  0  0  0
    1.0392  -12.8274  -41.0386 C   0  0  0  0  0  0  0  0  0  0  0  0
    0.3585  -11.4923  -41.0445 C   0  0  0  0  0  0  0  0  0  0  0  0
    1.0623  -17.7026  -41.2470 N   0  0  0  0  0  0  0  0  0  0  0  0
    1.4183  -16.5724  -42.0678 C   0  0  0  0  0  0  0  0  0  0  0  0
    1.5323  -16.6815  -43.2915 O   0  0  0  0  0  0  0  0  0  0  0  0
    0.8117  -19.0056  -41.8524 C   0  0  0  0  0  0  0  0  0  0  0  0
    0.9352  -17.6228  -39.7977 C   0  0  0  0  0  0  0  0  0  0  0  0
    3.9845  -19.0737  -38.4918 N   0  0  0  0  0  0  0  0  0  0  0  0
    2.1567  -18.1190  -39.0866 C   0  0  0  0  0  0  0  0  0  0  0  0
    3.3718  -18.6619  -37.3680 N   0  0  0  0  0  0  0  0  0  0  0  0
    3.2676  -18.7421  -39.5747 C   0  0  0  0  0  0  0  0  0  0  0  0
    2.2577  -18.0778  -37.7342 N   0  0  0  0  0  0  0  0  0  0  0  0
    5.2496  -19.8041  -38.4341 C   0  0  0  0  0  0  0  0  0  0  0  0
    5.0218  -21.2914  -38.6603 C   0  0  0  0  0  0  0  0  0  0  0  0
    5.4303  -21.6965  -40.0394 C   0  0  0  0  0  0  0  0  0  0  0  0
 30 31  1  0  0  0
 30 34  1  0  0  0
 30 33  1  0  0  0
 31 32  2  0  0  0
 31 25  1  0  0  0
 34 36  1  0  0  0
 35 37  1  0  0  0
 35 38  1  0  0  0
 35 40  1  0  0  0
 12 14  2  0  0  0
 24 25  1  0  0  0
 24 28  1  0  0  0
 36 38  2  0  0  0
 36 39  1  0  0  0
 37 39  2  0  0  0
 40 41  1  0  0  0
 13 14  1  0  0  0
 13 16  1  0  0  0
 13 15  1  0  0  0
 41 42  1  0  0  0
 17 18  1  0  0  0
 17 21  1  0  0  0
 17 22  1  0  0  0
 18 19  2  0  0  0
 19 20  1  0  0  0
 25 26  2  0  0  0
 26 27  1  0  0  0
 27  1  1  0  0  0
 27 28  2  0  0  0
  1  2  1  0  0  0
  1  5  2  0  0  0
  2  6  1  0  0  0
  2  3  2  0  0  0
  6  7  2  0  0  0
  6 10  1  0  0  0
  7  8  1  0  0  0
  7 11  1  0  0  0
  9 14  1  0  0  0
  9 10  2  0  0  0
  9 11  1  0  0  0
 16 20  1  0  0  0
 20 21  2  0  0  0
 22 23  1  0  0  0
  3  4  1  0  0  0
  4  5  1  0  0  0
 28 29  1  0  0  0
M  END
> <minimizedAffinity>
-6.56032

$$$$
6y4q.D


 42 46  0  0  0  0  0  0  0  0999 V2000
    3.7260  -19.4819  -39.0199 C   0  0  0  0  0  0  0  0  0  0  0  0
    4.8648  -19.9821  -39.5292 C   0  0  0  0  0  0  0  0  0  0  0  0
    6.0047  -19.8744  -38.5464 C   0  0  0  0  0  0  0  0  0  0  0  0
    5.4357  -19.0172  -37.4192 C   0  0  0  0  0  0  0  0  0  0  0  0
    3.9251  -18.9770  -37.6122 C   0  0  0  0  0  0  0  0  0  0  0  0
    5.0721  -20.5501  -40.8687 C   0  0  0  0  0  0  0  0  0  0  0  0
    5.2851  -19.8266  -42.0201 C   0  0  0  0  0  0  0  0  0  0  0  0
    5.3173  -18.3420  -42.2383 C   0  0  0  0  0  0  0  0  0  0  0  0
    5.3785  -22.2917  -42.3936 C   0  0  0  0  0  0  0  0  0  0  0  0
    5.1276  -21.9614  -41.0885 C   0  0  0  0  0  0  0  0  0  0  0  0
    5.5478  -20.8820  -43.3744 S   0  0  0  0  0  0  0  0  0  0  0  0
    4.7087  -24.3896  -43.1426 O   0  0  0  0  0  0  0  0  0  0  0  0
    6.8339  -23.7726  -43.8397 N   0  0  0  0  0  0  0  0  0  0  0  0
    5.6086  -23.5527  -43.1342 C   0  0  0  0  0  0  0  0  0  0  0  0
    8.0070  -22.9062  -43.8003 C   0  0  0  0  0  0  0  0  0  0  0  0
    6.9636  -25.0159  -44.5840 C   0  0  0  0  0  0  0  0  0  0  0  0
    9.9701  -26.8004  -43.6354 N   0  0  0  0  0  0  0  0  0  0  0  0
    9.4020  -26.5579  -42.4439 N   0  0  0  0  0  0  0  0  0  0  0  0
    8.2941  -25.9018  -42.6744 N   0  0  0  0  0  0  0  0  0  0  0  0
    8.1570  -25.7163  -44.0118 C   0  0  0  0  0  0  0  0  0  0  0  0
    9.2198  -26.3031  -44.6309 C   0  0  0  0  0  0  0  0  0  0  0  0
   11.2616  -27.4821  -43.7583 C   0  0  0  0  0  0  0  0  0  0  0  0
   12.3301  -26.5829  -44.3311 C   0  0  0  0  0  0  0  0  0  0  0  0
    0.2977  -18.4207  -40.7810 S   0  0  0  0  0  0  0  0  0  0  0  0
    0.2060  -19.9866  -40.0652 C   0  0  0  0  0  0  0  0  0  0  0  0
    1.4111  -20.3639  -39.5465 C   0  0  0  0  0  0  0  0  0  0  0  0
    2.4269  -19.3649  -39.7025 C   0  0  0  0  0  0  0  0  0  0  0  0
    1.9742  -18.2547  -40.3743 C   0  0  0  0  0  0  0  0  0  0  0  0
    2.6879  -16.9904  -40.7459 C   0  0  0  0  0  0  0  0  0  0  0  0
   -1.9182  -20.9005  -39.0042 N   0  0  0  0  0  0  0  0  0  0  0  0
   -1.1456  -20.5907  -40.1810 C   0  0  0  0  0  0  0  0  0  0  0  0
   -1.6084  -20.7590  -41.3123 O   0  0  0  0  0  0  0  0  0  0  0  0
   -3.2799  -21.4086  -39.1269 C   0  0  0  0  0  0  0  0  0  0  0  0
   -1.4047  -20.7347  -37.6508 C   0  0  0  0  0  0  0  0  0  0  0  0
   -1.2821  -17.2956  -36.5254 N   0  0  0  0  0  0  0  0  0  0  0  0
   -1.5538  -19.3313  -37.1487 C   0  0  0  0  0  0  0  0  0  0  0  0
   -2.4423  -17.7185  -35.9935 N   0  0  0  0  0  0  0  0  0  0  0  0
   -0.7125  -18.2630  -37.2576 C   0  0  0  0  0  0  0  0  0  0  0  0
   -2.6065  -18.9604  -36.3772 N   0  0  0  0  0  0  0  0  0  0  0  0
   -0.7790  -15.9491  -36.2583 C   0  0  0  0  0  0  0  0  0  0  0  0
    0.7284  -15.9701  -36.0523 C   0  0  0  0  0  0  0  0  0  0  0  0
    1.4395  -15.3373  -37.2042 C   0  0  0  0  0  0  0  0  0  0  0  0
 30 31  1  0  0  0
 30 34  1  0  0  0
 30 33  1  0  0  0
 31 32  2  0  0  0
 31 25  1  0  0  0
 34 36  1  0  0  0
 35 37  1  0  0  0
 35 38  1  0  0  0
 35 40  1  0  0  0
 12 14  2  0  0  0
 24 25  1  0  0  0
 24 28  1  0  0  0
 36 38  2  0  0  0
 36 39  1  0  0  0
 37 39  2  0  0  0
 40 41  1  0  0  0
 13 14  1  0  0  0
 13 16  1  0  0  0
 13 15  1  0  0  0
 41 42  1  0  0  0
 17 18  1  0  0  0
 17 21  1  0  0  0
 17 22  1  0  0  0
 18 19  2  0  0  0
 19 20  1  0  0  0
 25 26  2  0  0  0
 26 27  1  0  0  0
 27  1  1  0  0  0
 27 28  2  0  0  0
  1  2  1  0  0  0
  1  5  2  0  0  0
  2  6  1  0  0  0
  2  3  2  0  0  0
  6  7  2  0  0  0
  6 10  1  0  0  0
  7  8  1  0  0  0
  7 11  1  0  0  0
  9 14  1  0  0  0
  9 10  2  0  0  0
  9 11  1  0  0  0
 16 20  1  0  0  0
 20 21  2  0  0  0
 22 23  1  0  0  0
  3  4  1  0  0  0
  4  5  1  0  0  0
 28 29  1  0  0  0
M  END
> <minimizedAffinity>
-6.08764

$$$$
6y4q.D


 42 46  0  0  0  0  0  0  0  0999 V2000
    4.4838  -19.1742  -39.3717 C   0  0  0  0  0  0  0  0  0  0  0  0
    3.5239  -19.0346  -38.4412 C   0  0  0  0  0  0  0  0  0  0  0  0
    4.1099  -18.9053  -37.0568 C   0  0  0  0  0  0  0  0  0  0  0  0
    5.5912  -19.2131  -37.2566 C   0  0  0  0  0  0  0  0  0  0  0  0
    5.8602  -19.1439  -38.7545 C   0  0  0  0  0  0  0  0  0  0  0  0
    2.0693  -19.0293  -38.6504 C   0  0  0  0  0  0  0  0  0  0  0  0
    1.3251  -17.9490  -39.0672 C   0  0  0  0  0  0  0  0  0  0  0  0
    1.7471  -16.5394  -39.3636 C   0  0  0  0  0  0  0  0  0  0  0  0
   -0.0444  -20.0139  -38.7747 C   0  0  0  0  0  0  0  0  0  0  0  0
    1.2798  -20.2094  -38.4854 C   0  0  0  0  0  0  0  0  0  0  0  0
   -0.3467  -18.3830  -39.2506 S   0  0  0  0  0  0  0  0  0  0  0  0
   -2.0325  -20.8496  -37.9029 O   0  0  0  0  0  0  0  0  0  0  0  0
   -1.4876  -21.6982  -39.9924 N   0  0  0  0  0  0  0  0  0  0  0  0
   -1.2445  -20.8778  -38.8455 C   0  0  0  0  0  0  0  0  0  0  0  0
   -0.5681  -21.8981  -41.1072 C   0  0  0  0  0  0  0  0  0  0  0  0
   -2.7139  -22.4807  -40.0074 C   0  0  0  0  0  0  0  0  0  0  0  0
   -1.7361  -25.8660  -39.1664 N   0  0  0  0  0  0  0  0  0  0  0  0
   -2.1638  -25.3973  -37.9838 N   0  0  0  0  0  0  0  0  0  0  0  0
   -2.5408  -24.1596  -38.1762 N   0  0  0  0  0  0  0  0  0  0  0  0
   -2.3466  -23.8328  -39.4791 C   0  0  0  0  0  0  0  0  0  0  0  0
   -1.8460  -24.9269  -40.1190 C   0  0  0  0  0  0  0  0  0  0  0  0
   -1.1910  -27.2180  -39.3174 C   0  0  0  0  0  0  0  0  0  0  0  0
   -0.2064  -27.3130  -40.4576 C   0  0  0  0  0  0  0  0  0  0  0  0
    4.2036  -20.4397  -43.1533 S   0  0  0  0  0  0  0  0  0  0  0  0
    4.5012  -18.7443  -43.0531 C   0  0  0  0  0  0  0  0  0  0  0  0
    4.5065  -18.3198  -41.7556 C   0  0  0  0  0  0  0  0  0  0  0  0
    4.2931  -19.3813  -40.8166 C   0  0  0  0  0  0  0  0  0  0  0  0
    4.0933  -20.5945  -41.4307 C   0  0  0  0  0  0  0  0  0  0  0  0
    3.8423  -21.9487  -40.8397 C   0  0  0  0  0  0  0  0  0  0  0  0
    5.9756  -17.9703  -44.9766 N   0  0  0  0  0  0  0  0  0  0  0  0
    4.6682  -18.1126  -44.3866 C   0  0  0  0  0  0  0  0  0  0  0  0
    3.6509  -17.7732  -44.9967 O   0  0  0  0  0  0  0  0  0  0  0  0
    6.1235  -17.4324  -46.3242 C   0  0  0  0  0  0  0  0  0  0  0  0
    7.2035  -18.3408  -44.2852 C   0  0  0  0  0  0  0  0  0  0  0  0
    8.7501  -15.2230  -43.2870 N   0  0  0  0  0  0  0  0  0  0  0  0
    8.0211  -17.1494  -43.8902 C   0  0  0  0  0  0  0  0  0  0  0  0
    9.7880  -15.8848  -43.8280 N   0  0  0  0  0  0  0  0  0  0  0  0
    7.6444  -15.9805  -43.2964 C   0  0  0  0  0  0  0  0  0  0  0  0
    9.3407  -17.0608  -44.1933 N   0  0  0  0  0  0  0  0  0  0  0  0
    8.9017  -13.8507  -42.8060 C   0  0  0  0  0  0  0  0  0  0  0  0
   10.2644  -13.6565  -42.1575 C   0  0  0  0  0  0  0  0  0  0  0  0
   10.1368  -13.0082  -40.8172 C   0  0  0  0  0  0  0  0  0  0  0  0
 30 31  1  0  0  0
 30 34  1  0  0  0
 30 33  1  0  0  0
 31 32  2  0  0  0
 31 25  1  0  0  0
 34 36  1  0  0  0
 35 37  1  0  0  0
 35 38  1  0  0  0
 35 40  1  0  0  0
 12 14  2  0  0  0
 24 25  1  0  0  0
 24 28  1  0  0  0
 36 38  2  0  0  0
 36 39  1  0  0  0
 37 39  2  0  0  0
 40 41  1  0  0  0
 13 14  1  0  0  0
 13 16  1  0  0  0
 13 15  1  0  0  0
 41 42  1  0  0  0
 17 18  1  0  0  0
 17 21  1  0  0  0
 17 22  1  0  0  0
 18 19  2  0  0  0
 19 20  1  0  0  0
 25 26  2  0  0  0
 26 27  1  0  0  0
 27  1  1  0  0  0
 27 28  2  0  0  0
  1  2  1  0  0  0
  1  5  2  0  0  0
  2  6  1  0  0  0
  2  3  2  0  0  0
  6  7  2  0  0  0
  6 10  1  0  0  0
  7  8  1  0  0  0
  7 11  1  0  0  0
  9 14  1  0  0  0
  9 10  2  0  0  0
  9 11  1  0  0  0
 16 20  1  0  0  0
 20 21  2  0  0  0
 22 23  1  0  0  0
  3  4  1  0  0  0
  4  5  1  0  0  0
 28 29  1  0  0  0
M  END
> <minimizedAffinity>
-6.04414

$$$$
6y4q.D


 42 46  0  0  0  0  0  0  0  0999 V2000
    0.8690  -15.0364  -38.2647 C   0  0  0  0  0  0  0  0  0  0  0  0
    0.9755  -16.0520  -37.3909 C   0  0  0  0  0  0  0  0  0  0  0  0
    0.7425  -15.5894  -35.9737 C   0  0  0  0  0  0  0  0  0  0  0  0
    0.6937  -14.0684  -36.0891 C   0  0  0  0  0  0  0  0  0  0  0  0
    0.5328  -13.7410  -37.5682 C   0  0  0  0  0  0  0  0  0  0  0  0
    1.3037  -17.4541  -37.6845 C   0  0  0  0  0  0  0  0  0  0  0  0
    0.3950  -18.4400  -37.9958 C   0  0  0  0  0  0  0  0  0  0  0  0
   -1.1030  -18.3862  -38.0734 C   0  0  0  0  0  0  0  0  0  0  0  0
    2.7566  -19.2416  -38.0673 C   0  0  0  0  0  0  0  0  0  0  0  0
    2.6547  -17.9188  -37.7280 C   0  0  0  0  0  0  0  0  0  0  0  0
    1.2018  -19.9401  -38.3362 S   0  0  0  0  0  0  0  0  0  0  0  0
    4.0654  -21.0847  -37.5186 O   0  0  0  0  0  0  0  0  0  0  0  0
    4.6840  -20.0432  -39.4975 N   0  0  0  0  0  0  0  0  0  0  0  0
    3.8734  -20.1783  -38.3261 C   0  0  0  0  0  0  0  0  0  0  0  0
    4.6217  -18.9438  -40.4544 C   0  0  0  0  0  0  0  0  0  0  0  0
    5.7298  -21.0329  -39.7051 C   0  0  0  0  0  0  0  0  0  0  0  0
    4.3874  -23.0136  -42.4251 N   0  0  0  0  0  0  0  0  0  0  0  0
    5.5987  -22.6783  -42.8957 N   0  0  0  0  0  0  0  0  0  0  0  0
    6.1760  -21.9451  -41.9791 N   0  0  0  0  0  0  0  0  0  0  0  0
    5.3318  -21.8034  -40.9259 C   0  0  0  0  0  0  0  0  0  0  0  0
    4.1923  -22.4983  -41.2013 C   0  0  0  0  0  0  0  0  0  0  0  0
    3.4360  -23.8014  -43.2138 C   0  0  0  0  0  0  0  0  0  0  0  0
    2.6310  -24.7491  -42.3580 C   0  0  0  0  0  0  0  0  0  0  0  0
    0.8966  -15.7023  -42.2064 S   0  0  0  0  0  0  0  0  0  0  0  0
    2.4398  -15.2076  -41.6176 C   0  0  0  0  0  0  0  0  0  0  0  0
    2.3864  -14.9025  -40.2880 C   0  0  0  0  0  0  0  0  0  0  0  0
    1.0846  -15.0939  -39.7199 C   0  0  0  0  0  0  0  0  0  0  0  0
    0.1613  -15.5106  -40.6488 C   0  0  0  0  0  0  0  0  0  0  0  0
   -1.2942  -15.8307  -40.4905 C   0  0  0  0  0  0  0  0  0  0  0  0
    3.7791  -13.9989  -43.4115 N   0  0  0  0  0  0  0  0  0  0  0  0
    3.4815  -15.2023  -42.6759 C   0  0  0  0  0  0  0  0  0  0  0  0
    4.1237  -16.2396  -42.8598 O   0  0  0  0  0  0  0  0  0  0  0  0
    4.8649  -13.9777  -44.3851 C   0  0  0  0  0  0  0  0  0  0  0  0
    3.0348  -12.7583  -43.2393 C   0  0  0  0  0  0  0  0  0  0  0  0
    4.6547  -10.8834  -40.5991 N   0  0  0  0  0  0  0  0  0  0  0  0
    3.6949  -11.8227  -42.2733 C   0  0  0  0  0  0  0  0  0  0  0  0
    4.1551   -9.9005  -41.3687 N   0  0  0  0  0  0  0  0  0  0  0  0
    4.4006  -12.0851  -41.1358 C   0  0  0  0  0  0  0  0  0  0  0  0
    3.5718  -10.4766  -42.3907 N   0  0  0  0  0  0  0  0  0  0  0  0
    5.3436  -10.5805  -39.3457 C   0  0  0  0  0  0  0  0  0  0  0  0
    4.3456  -10.4303  -38.2071 C   0  0  0  0  0  0  0  0  0  0  0  0
    3.5384  -11.6751  -38.0290 C   0  0  0  0  0  0  0  0  0  0  0  0
 30 31  1  0  0  0
 30 34  1  0  0  0
 30 33  1  0  0  0
 31 32  2  0  0  0
 31 25  1  0  0  0
 34 36  1  0  0  0
 35 37  1  0  0  0
 35 38  1  0  0  0
 35 40  1  0  0  0
 12 14  2  0  0  0
 24 25  1  0  0  0
 24 28  1  0  0  0
 36 38  2  0  0  0
 36 39  1  0  0  0
 37 39  2  0  0  0
 40 41  1  0  0  0
 13 14  1  0  0  0
 13 16  1  0  0  0
 13 15  1  0  0  0
 41 42  1  0  0  0
 17 18  1  0  0  0
 17 21  1  0  0  0
 17 22  1  0  0  0
 18 19  2  0  0  0
 19 20  1  0  0  0
 25 26  2  0  0  0
 26 27  1  0  0  0
 27  1  1  0  0  0
 27 28  2  0  0  0
  1  2  1  0  0  0
  1  5  2  0  0  0
  2  6  1  0  0  0
  2  3  2  0  0  0
  6  7  2  0  0  0
  6 10  1  0  0  0
  7  8  1  0  0  0
  7 11  1  0  0  0
  9 14  1  0  0  0
  9 10  2  0  0  0
  9 11  1  0  0  0
 16 20  1  0  0  0
 20 21  2  0  0  0
 22 23  1  0  0  0
  3  4  1  0  0  0
  4  5  1  0  0  0
 28 29  1  0  0  0
M  END
> <minimizedAffinity>
-5.99821

$$$$
6y4q.D


 42 46  0  0  0  0  0  0  0  0999 V2000
    1.7247  -13.4801  -38.0204 C   0  0  0  0  0  0  0  0  0  0  0  0
    2.4660  -13.0529  -39.0570 C   0  0  0  0  0  0  0  0  0  0  0  0
    3.5601  -12.1166  -38.6063 C   0  0  0  0  0  0  0  0  0  0  0  0
    3.2359  -11.8555  -37.1380 C   0  0  0  0  0  0  0  0  0  0  0  0
    2.2188  -12.9077  -36.7148 C   0  0  0  0  0  0  0  0  0  0  0  0
    2.2869  -13.3781  -40.4790 C   0  0  0  0  0  0  0  0  0  0  0  0
    1.7907  -12.5248  -41.4383 C   0  0  0  0  0  0  0  0  0  0  0  0
    1.2756  -11.1207  -41.3117 C   0  0  0  0  0  0  0  0  0  0  0  0
    2.4803  -14.7341  -42.3700 C   0  0  0  0  0  0  0  0  0  0  0  0
    2.6811  -14.6416  -41.0186 C   0  0  0  0  0  0  0  0  0  0  0  0
    1.8035  -13.2785  -43.0031 S   0  0  0  0  0  0  0  0  0  0  0  0
    3.7620  -15.5771  -44.1186 O   0  0  0  0  0  0  0  0  0  0  0  0
    1.9381  -16.8990  -43.5625 N   0  0  0  0  0  0  0  0  0  0  0  0
    2.7722  -15.7463  -43.4101 C   0  0  0  0  0  0  0  0  0  0  0  0
    0.6814  -17.1398  -42.8619 C   0  0  0  0  0  0  0  0  0  0  0  0
    2.3200  -17.8721  -44.5743 C   0  0  0  0  0  0  0  0  0  0  0  0
    3.0394  -21.0085  -42.9102 N   0  0  0  0  0  0  0  0  0  0  0  0
    4.0456  -20.2294  -42.4837 N   0  0  0  0  0  0  0  0  0  0  0  0
    3.8827  -19.0560  -43.0385 N   0  0  0  0  0  0  0  0  0  0  0  0
    2.7782  -19.0860  -43.8266 C   0  0  0  0  0  0  0  0  0  0  0  0
    2.2275  -20.3292  -43.7351 C   0  0  0  0  0  0  0  0  0  0  0  0
    2.9280  -22.4178  -42.5239 C   0  0  0  0  0  0  0  0  0  0  0  0
    4.2472  -22.9907  -42.0656 C   0  0  0  0  0  0  0  0  0  0  0  0
   -1.8739  -15.2209  -38.0396 S   0  0  0  0  0  0  0  0  0  0  0  0
   -0.6253  -16.3090  -37.5599 C   0  0  0  0  0  0  0  0  0  0  0  0
    0.6030  -15.7192  -37.6441 C   0  0  0  0  0  0  0  0  0  0  0  0
    0.5420  -14.3548  -38.0783 C   0  0  0  0  0  0  0  0  0  0  0  0
   -0.7417  -13.9461  -38.3506 C   0  0  0  0  0  0  0  0  0  0  0  0
   -1.2561  -12.6186  -38.8187 C   0  0  0  0  0  0  0  0  0  0  0  0
   -0.6992  -18.8341  -37.8626 N   0  0  0  0  0  0  0  0  0  0  0  0
   -1.1466  -17.6464  -37.1793 C   0  0  0  0  0  0  0  0  0  0  0  0
   -1.9228  -17.7131  -36.2225 O   0  0  0  0  0  0  0  0  0  0  0  0
   -1.1457  -20.1514  -37.4237 C   0  0  0  0  0  0  0  0  0  0  0  0
    0.2016  -18.8000  -39.0073 C   0  0  0  0  0  0  0  0  0  0  0  0
    3.3863  -20.4464  -38.5013 N   0  0  0  0  0  0  0  0  0  0  0  0
    1.5665  -19.3225  -38.6788 C   0  0  0  0  0  0  0  0  0  0  0  0
    3.3633  -19.5711  -37.4809 N   0  0  0  0  0  0  0  0  0  0  0  0
    2.2970  -20.3110  -39.2704 C   0  0  0  0  0  0  0  0  0  0  0  0
    2.2526  -18.8851  -37.5930 N   0  0  0  0  0  0  0  0  0  0  0  0
    4.4851  -21.3992  -38.6499 C   0  0  0  0  0  0  0  0  0  0  0  0
    5.6935  -20.7300  -39.2880 C   0  0  0  0  0  0  0  0  0  0  0  0
    6.7218  -20.3807  -38.2616 C   0  0  0  0  0  0  0  0  0  0  0  0
 30 31  1  0  0  0
 30 34  1  0  0  0
 30 33  1  0  0  0
 31 32  2  0  0  0
 31 25  1  0  0  0
 34 36  1  0  0  0
 35 37  1  0  0  0
 35 38  1  0  0  0
 35 40  1  0  0  0
 12 14  2  0  0  0
 24 25  1  0  0  0
 24 28  1  0  0  0
 36 38  2  0  0  0
 36 39  1  0  0  0
 37 39  2  0  0  0
 40 41  1  0  0  0
 13 14  1  0  0  0
 13 16  1  0  0  0
 13 15  1  0  0  0
 41 42  1  0  0  0
 17 18  1  0  0  0
 17 21  1  0  0  0
 17 22  1  0  0  0
 18 19  2  0  0  0
 19 20  1  0  0  0
 25 26  2  0  0  0
 26 27  1  0  0  0
 27  1  1  0  0  0
 27 28  2  0  0  0
  1  2  1  0  0  0
  1  5  2  0  0  0
  2  6  1  0  0  0
  2  3  2  0  0  0
  6  7  2  0  0  0
  6 10  1  0  0  0
  7  8  1  0  0  0
  7 11  1  0  0  0
  9 14  1  0  0  0
  9 10  2  0  0  0
  9 11  1  0  0  0
 16 20  1  0  0  0
 20 21  2  0  0  0
 22 23  1  0  0  0
  3  4  1  0  0  0
  4  5  1  0  0  0
 28 29  1  0  0  0
M  END
> <minimizedAffinity>
-5.99057

$$$$
6y4q.D


 42 46  0  0  0  0  0  0  0  0999 V2000
    3.0501  -12.1599  -39.4498 C   0  0  0  0  0  0  0  0  0  0  0  0
    2.5730  -12.6943  -38.3126 C   0  0  0  0  0  0  0  0  0  0  0  0
    3.1678  -12.0285  -37.0961 C   0  0  0  0  0  0  0  0  0  0  0  0
    4.2671  -11.1377  -37.6678 C   0  0  0  0  0  0  0  0  0  0  0  0
    4.0255  -11.0436  -39.1690 C   0  0  0  0  0  0  0  0  0  0  0  0
    1.6194  -13.8043  -38.1770 C   0  0  0  0  0  0  0  0  0  0  0  0
    0.2744  -13.6757  -37.9144 C   0  0  0  0  0  0  0  0  0  0  0  0
   -0.5486  -12.4470  -37.6582 C   0  0  0  0  0  0  0  0  0  0  0  0
    0.9736  -16.0471  -38.2504 C   0  0  0  0  0  0  0  0  0  0  0  0
    2.0140  -15.1646  -38.3694 C   0  0  0  0  0  0  0  0  0  0  0  0
   -0.5041  -15.2284  -37.8983 S   0  0  0  0  0  0  0  0  0  0  0  0
   -0.1307  -17.9050  -39.1104 O   0  0  0  0  0  0  0  0  0  0  0  0
    1.7331  -18.4238  -37.8296 N   0  0  0  0  0  0  0  0  0  0  0  0
    0.8081  -17.5079  -38.4238 C   0  0  0  0  0  0  0  0  0  0  0  0
    2.8055  -18.0719  -36.9052 C   0  0  0  0  0  0  0  0  0  0  0  0
    1.5305  -19.8411  -38.0876 C   0  0  0  0  0  0  0  0  0  0  0  0
    4.6033  -20.9450  -39.6569 N   0  0  0  0  0  0  0  0  0  0  0  0
    4.7157  -21.4673  -38.4258 N   0  0  0  0  0  0  0  0  0  0  0  0
    3.6436  -21.1184  -37.7626 N   0  0  0  0  0  0  0  0  0  0  0  0
    2.8492  -20.3657  -38.5653 C   0  0  0  0  0  0  0  0  0  0  0  0
    3.4529  -20.2653  -39.7829 C   0  0  0  0  0  0  0  0  0  0  0  0
    5.6552  -21.0961  -40.6662 C   0  0  0  0  0  0  0  0  0  0  0  0
    5.8682  -19.8321  -41.4632 C   0  0  0  0  0  0  0  0  0  0  0  0
    1.4974  -13.2225  -42.9769 S   0  0  0  0  0  0  0  0  0  0  0  0
    3.0211  -13.9737  -42.6820 C   0  0  0  0  0  0  0  0  0  0  0  0
    3.5724  -13.5305  -41.5144 C   0  0  0  0  0  0  0  0  0  0  0  0
    2.7437  -12.5858  -40.8252 C   0  0  0  0  0  0  0  0  0  0  0  0
    1.5859  -12.3038  -41.5100 C   0  0  0  0  0  0  0  0  0  0  0  0
    0.4513  -11.3901  -41.1580 C   0  0  0  0  0  0  0  0  0  0  0  0
    3.3654  -16.3428  -43.5431 N   0  0  0  0  0  0  0  0  0  0  0  0
    3.4116  -14.9184  -43.7591 C   0  0  0  0  0  0  0  0  0  0  0  0
    3.7145  -14.4479  -44.8587 O   0  0  0  0  0  0  0  0  0  0  0  0
    3.6625  -17.2654  -44.6330 C   0  0  0  0  0  0  0  0  0  0  0  0
    3.0310  -16.9406  -42.2571 C   0  0  0  0  0  0  0  0  0  0  0  0
   -0.0208  -18.8875  -42.3290 N   0  0  0  0  0  0  0  0  0  0  0  0
    1.6715  -17.5697  -42.2532 C   0  0  0  0  0  0  0  0  0  0  0  0
   -0.4863  -17.6386  -42.5065 N   0  0  0  0  0  0  0  0  0  0  0  0
    1.3082  -18.8809  -42.1553 C   0  0  0  0  0  0  0  0  0  0  0  0
    0.5484  -16.8363  -42.4577 N   0  0  0  0  0  0  0  0  0  0  0  0
   -0.9220  -20.0381  -42.3657 C   0  0  0  0  0  0  0  0  0  0  0  0
   -0.3821  -21.1707  -41.5050 C   0  0  0  0  0  0  0  0  0  0  0  0
   -1.2133  -21.3595  -40.2777 C   0  0  0  0  0  0  0  0  0  0  0  0
 30 31  1  0  0  0
 30 34  1  0  0  0
 30 33  1  0  0  0
 31 32  2  0  0  0
 31 25  1  0  0  0
 34 36  1  0  0  0
 35 37  1  0  0  0
 35 38  1  0  0  0
 35 40  1  0  0  0
 12 14  2  0  0  0
 24 25  1  0  0  0
 24 28  1  0  0  0
 36 38  2  0  0  0
 36 39  1  0  0  0
 37 39  2  0  0  0
 40 41  1  0  0  0
 13 14  1  0  0  0
 13 16  1  0  0  0
 13 15  1  0  0  0
 41 42  1  0  0  0
 17 18  1  0  0  0
 17 21  1  0  0  0
 17 22  1  0  0  0
 18 19  2  0  0  0
 19 20  1  0  0  0
 25 26  2  0  0  0
 26 27  1  0  0  0
 27  1  1  0  0  0
 27 28  2  0  0  0
  1  2  1  0  0  0
  1  5  2  0  0  0
  2  6  1  0  0  0
  2  3  2  0  0  0
  6  7  2  0  0  0
  6 10  1  0  0  0
  7  8  1  0  0  0
  7 11  1  0  0  0
  9 14  1  0  0  0
  9 10  2  0  0  0
  9 11  1  0  0  0
 16 20  1  0  0  0
 20 21  2  0  0  0
 22 23  1  0  0  0
  3  4  1  0  0  0
  4  5  1  0  0  0
 28 29  1  0  0  0
M  END
> <minimizedAffinity>
-5.86489

$$$$
6y4q.D


 42 46  0  0  0  0  0  0  0  0999 V2000
    3.2406  -11.8437  -39.1967 C   0  0  0  0  0  0  0  0  0  0  0  0
    2.6517  -12.3856  -38.1169 C   0  0  0  0  0  0  0  0  0  0  0  0
    3.1720  -11.7760  -36.8385 C   0  0  0  0  0  0  0  0  0  0  0  0
    4.3490  -10.9185  -37.2949 C   0  0  0  0  0  0  0  0  0  0  0  0
    4.2340  -10.7770  -38.8074 C   0  0  0  0  0  0  0  0  0  0  0  0
    1.6465  -13.4573  -38.0895 C   0  0  0  0  0  0  0  0  0  0  0  0
    0.2846  -13.2791  -38.1805 C   0  0  0  0  0  0  0  0  0  0  0  0
   -0.5220  -12.0172  -38.2787 C   0  0  0  0  0  0  0  0  0  0  0  0
    0.9410  -15.6830  -38.0556 C   0  0  0  0  0  0  0  0  0  0  0  0
    2.0165  -14.8361  -38.0192 C   0  0  0  0  0  0  0  0  0  0  0  0
   -0.5412  -14.8072  -38.1735 S   0  0  0  0  0  0  0  0  0  0  0  0
    0.2581  -17.6958  -37.1105 O   0  0  0  0  0  0  0  0  0  0  0  0
    1.1324  -17.9058  -39.2493 N   0  0  0  0  0  0  0  0  0  0  0  0
    0.7591  -17.1517  -38.0920 C   0  0  0  0  0  0  0  0  0  0  0  0
    1.8389  -17.3845  -40.4144 C   0  0  0  0  0  0  0  0  0  0  0  0
    0.8761  -19.3376  -39.2262 C   0  0  0  0  0  0  0  0  0  0  0  0
    4.0639  -21.0221  -38.8735 N   0  0  0  0  0  0  0  0  0  0  0  0
    3.7724  -20.7077  -37.6018 N   0  0  0  0  0  0  0  0  0  0  0  0
    2.6245  -20.0806  -37.6159 N   0  0  0  0  0  0  0  0  0  0  0  0
    2.1853  -19.9854  -38.8965 C   0  0  0  0  0  0  0  0  0  0  0  0
    3.0963  -20.6001  -39.7024 C   0  0  0  0  0  0  0  0  0  0  0  0
    5.3117  -21.6961  -39.2430 C   0  0  0  0  0  0  0  0  0  0  0  0
    6.5178  -21.0608  -38.5949 C   0  0  0  0  0  0  0  0  0  0  0  0
    1.9549  -12.6551  -42.8939 S   0  0  0  0  0  0  0  0  0  0  0  0
    3.2853  -13.6502  -42.4329 C   0  0  0  0  0  0  0  0  0  0  0  0
    3.7628  -13.2978  -41.2034 C   0  0  0  0  0  0  0  0  0  0  0  0
    3.0299  -12.2219  -40.6038 C   0  0  0  0  0  0  0  0  0  0  0  0
    2.0244  -11.7537  -41.4153 C   0  0  0  0  0  0  0  0  0  0  0  0
    1.0264  -10.6593  -41.1866 C   0  0  0  0  0  0  0  0  0  0  0  0
    4.5797  -14.3418  -44.5111 N   0  0  0  0  0  0  0  0  0  0  0  0
    3.6346  -14.6551  -43.4688 C   0  0  0  0  0  0  0  0  0  0  0  0
    3.1399  -15.7813  -43.3715 O   0  0  0  0  0  0  0  0  0  0  0  0
    4.9864  -15.3622  -45.4707 C   0  0  0  0  0  0  0  0  0  0  0  0
    5.1737  -13.0214  -44.6738 C   0  0  0  0  0  0  0  0  0  0  0  0
    8.2932  -13.0901  -42.8373 N   0  0  0  0  0  0  0  0  0  0  0  0
    6.4275  -12.8537  -43.8715 C   0  0  0  0  0  0  0  0  0  0  0  0
    7.7081  -11.9839  -42.3455 N   0  0  0  0  0  0  0  0  0  0  0  0
    7.5353  -13.6458  -43.7929 C   0  0  0  0  0  0  0  0  0  0  0  0
    6.5707  -11.8410  -42.9799 N   0  0  0  0  0  0  0  0  0  0  0  0
    9.5748  -13.5593  -42.3129 C   0  0  0  0  0  0  0  0  0  0  0  0
   10.1622  -12.5444  -41.3433 C   0  0  0  0  0  0  0  0  0  0  0  0
   10.6428  -13.2075  -40.0934 C   0  0  0  0  0  0  0  0  0  0  0  0
 30 31  1  0  0  0
 30 34  1  0  0  0
 30 33  1  0  0  0
 31 32  2  0  0  0
 31 25  1  0  0  0
 34 36  1  0  0  0
 35 37  1  0  0  0
 35 38  1  0  0  0
 35 40  1  0  0  0
 12 14  2  0  0  0
 24 25  1  0  0  0
 24 28  1  0  0  0
 36 38  2  0  0  0
 36 39  1  0  0  0
 37 39  2  0  0  0
 40 41  1  0  0  0
 13 14  1  0  0  0
 13 16  1  0  0  0
 13 15  1  0  0  0
 41 42  1  0  0  0
 17 18  1  0  0  0
 17 21  1  0  0  0
 17 22  1  0  0  0
 18 19  2  0  0  0
 19 20  1  0  0  0
 25 26  2  0  0  0
 26 27  1  0  0  0
 27  1  1  0  0  0
 27 28  2  0  0  0
  1  2  1  0  0  0
  1  5  2  0  0  0
  2  6  1  0  0  0
  2  3  2  0  0  0
  6  7  2  0  0  0
  6 10  1  0  0  0
  7  8  1  0  0  0
  7 11  1  0  0  0
  9 14  1  0  0  0
  9 10  2  0  0  0
  9 11  1  0  0  0
 16 20  1  0  0  0
 20 21  2  0  0  0
 22 23  1  0  0  0
  3  4  1  0  0  0
  4  5  1  0  0  0
 28 29  1  0  0  0
M  END
> <minimizedAffinity>
-5.84111

$$$$
6y4q.D


 42 46  0  0  0  0  0  0  0  0999 V2000
   -1.2994  -17.3883  -38.3803 C   0  0  0  0  0  0  0  0  0  0  0  0
   -0.6228  -18.3884  -37.7900 C   0  0  0  0  0  0  0  0  0  0  0  0
   -1.5551  -19.3665  -37.1186 C   0  0  0  0  0  0  0  0  0  0  0  0
   -2.9187  -18.6859  -37.1989 C   0  0  0  0  0  0  0  0  0  0  0  0
   -2.7893  -17.5521  -38.2082 C   0  0  0  0  0  0  0  0  0  0  0  0
    0.8344  -18.5687  -37.7290 C   0  0  0  0  0  0  0  0  0  0  0  0
    1.6998  -17.8312  -36.9532 C   0  0  0  0  0  0  0  0  0  0  0  0
    1.4316  -16.6711  -36.0394 C   0  0  0  0  0  0  0  0  0  0  0  0
    2.8469  -19.6411  -38.2313 C   0  0  0  0  0  0  0  0  0  0  0  0
    1.4969  -19.6044  -38.4581 C   0  0  0  0  0  0  0  0  0  0  0  0
    3.3293  -18.4078  -37.1249 S   0  0  0  0  0  0  0  0  0  0  0  0
    4.2770  -21.4456  -37.9005 O   0  0  0  0  0  0  0  0  0  0  0  0
    4.6251  -20.3193  -39.8989 N   0  0  0  0  0  0  0  0  0  0  0  0
    3.9602  -20.5233  -38.6483 C   0  0  0  0  0  0  0  0  0  0  0  0
    4.4128  -19.1943  -40.8031 C   0  0  0  0  0  0  0  0  0  0  0  0
    5.6759  -21.2589  -40.2589 C   0  0  0  0  0  0  0  0  0  0  0  0
    4.6710  -23.3101  -43.0708 N   0  0  0  0  0  0  0  0  0  0  0  0
    3.5534  -23.2882  -42.3281 N   0  0  0  0  0  0  0  0  0  0  0  0
    3.8123  -22.5670  -41.2679 N   0  0  0  0  0  0  0  0  0  0  0  0
    5.0975  -22.1347  -41.3270 C   0  0  0  0  0  0  0  0  0  0  0  0
    5.6454  -22.5956  -42.4865 C   0  0  0  0  0  0  0  0  0  0  0  0
    4.7613  -24.0708  -44.3202 C   0  0  0  0  0  0  0  0  0  0  0  0
    4.6514  -25.5589  -44.0923 C   0  0  0  0  0  0  0  0  0  0  0  0
    0.7154  -14.7387  -40.5941 S   0  0  0  0  0  0  0  0  0  0  0  0
    0.0645  -14.0318  -39.1625 C   0  0  0  0  0  0  0  0  0  0  0  0
   -0.6911  -14.9315  -38.4671 C   0  0  0  0  0  0  0  0  0  0  0  0
   -0.7292  -16.2259  -39.0810 C   0  0  0  0  0  0  0  0  0  0  0  0
   -0.0232  -16.2704  -40.2594 C   0  0  0  0  0  0  0  0  0  0  0  0
    0.2018  -17.4064  -41.2106 C   0  0  0  0  0  0  0  0  0  0  0  0
    0.7125  -12.0545  -37.6986 N   0  0  0  0  0  0  0  0  0  0  0  0
    0.4463  -12.6056  -39.0036 C   0  0  0  0  0  0  0  0  0  0  0  0
    0.5890  -11.9284  -40.0250 O   0  0  0  0  0  0  0  0  0  0  0  0
    1.1751  -10.6784  -37.5581 C   0  0  0  0  0  0  0  0  0  0  0  0
    0.5396  -12.8122  -36.4662 C   0  0  0  0  0  0  0  0  0  0  0  0
   -2.6475  -11.8627  -35.0343 N   0  0  0  0  0  0  0  0  0  0  0  0
   -0.6765  -12.3908  -35.6997 C   0  0  0  0  0  0  0  0  0  0  0  0
   -1.7814  -11.3614  -34.1362 N   0  0  0  0  0  0  0  0  0  0  0  0
   -1.9993  -12.5176  -36.0077 C   0  0  0  0  0  0  0  0  0  0  0  0
   -0.5796  -11.6870  -34.5437 N   0  0  0  0  0  0  0  0  0  0  0  0
   -4.0862  -11.6439  -34.8948 C   0  0  0  0  0  0  0  0  0  0  0  0
   -4.8367  -12.2359  -36.0787 C   0  0  0  0  0  0  0  0  0  0  0  0
   -5.4825  -11.1660  -36.8980 C   0  0  0  0  0  0  0  0  0  0  0  0
 30 31  1  0  0  0
 30 34  1  0  0  0
 30 33  1  0  0  0
 31 32  2  0  0  0
 31 25  1  0  0  0
 34 36  1  0  0  0
 35 37  1  0  0  0
 35 38  1  0  0  0
 35 40  1  0  0  0
 12 14  2  0  0  0
 24 25  1  0  0  0
 24 28  1  0  0  0
 36 38  2  0  0  0
 36 39  1  0  0  0
 37 39  2  0  0  0
 40 41  1  0  0  0
 13 14  1  0  0  0
 13 16  1  0  0  0
 13 15  1  0  0  0
 41 42  1  0  0  0
 17 18  1  0  0  0
 17 21  1  0  0  0
 17 22  1  0  0  0
 18 19  2  0  0  0
 19 20  1  0  0  0
 25 26  2  0  0  0
 26 27  1  0  0  0
 27  1  1  0  0  0
 27 28  2  0  0  0
  1  2  1  0  0  0
  1  5  2  0  0  0
  2  6  1  0  0  0
  2  3  2  0  0  0
  6  7  2  0  0  0
  6 10  1  0  0  0
  7  8  1  0  0  0
  7 11  1  0  0  0
  9 14  1  0  0  0
  9 10  2  0  0  0
  9 11  1  0  0  0
 16 20  1  0  0  0
 20 21  2  0  0  0
 22 23  1  0  0  0
  3  4  1  0  0  0
  4  5  1  0  0  0
 28 29  1  0  0  0
M  END
> <minimizedAffinity>
-5.64070

$$$$
6y4q.D


 42 46  0  0  0  0  0  0  0  0999 V2000
    1.6511  -13.5432  -37.9854 C   0  0  0  0  0  0  0  0  0  0  0  0
    2.4230  -13.2279  -39.0396 C   0  0  0  0  0  0  0  0  0  0  0  0
    3.5031  -12.2449  -38.6603 C   0  0  0  0  0  0  0  0  0  0  0  0
    3.1352  -11.8280  -37.2390 C   0  0  0  0  0  0  0  0  0  0  0  0
    2.1059  -12.8317  -36.7351 C   0  0  0  0  0  0  0  0  0  0  0  0
    2.2865  -13.7052  -40.4228 C   0  0  0  0  0  0  0  0  0  0  0  0
    1.7785  -12.9762  -41.4740 C   0  0  0  0  0  0  0  0  0  0  0  0
    1.2076  -11.5884  -41.5031 C   0  0  0  0  0  0  0  0  0  0  0  0
    2.5714  -15.2405  -42.1589 C   0  0  0  0  0  0  0  0  0  0  0  0
    2.7399  -15.0009  -40.8212 C   0  0  0  0  0  0  0  0  0  0  0  0
    1.8530  -13.8865  -42.9515 S   0  0  0  0  0  0  0  0  0  0  0  0
    2.0866  -17.2204  -43.2797 O   0  0  0  0  0  0  0  0  0  0  0  0
    4.1919  -16.3633  -43.7451 N   0  0  0  0  0  0  0  0  0  0  0  0
    2.9236  -16.3422  -43.0829 C   0  0  0  0  0  0  0  0  0  0  0  0
    5.2975  -15.4443  -43.4977 C   0  0  0  0  0  0  0  0  0  0  0  0
    4.4428  -17.4532  -44.6755 C   0  0  0  0  0  0  0  0  0  0  0  0
    7.2663  -19.4181  -43.5396 N   0  0  0  0  0  0  0  0  0  0  0  0
    6.3740  -19.6182  -42.5572 N   0  0  0  0  0  0  0  0  0  0  0  0
    5.3016  -18.9374  -42.8696 N   0  0  0  0  0  0  0  0  0  0  0  0
    5.5099  -18.2947  -44.0466 C   0  0  0  0  0  0  0  0  0  0  0  0
    6.7603  -18.6120  -44.4858 C   0  0  0  0  0  0  0  0  0  0  0  0
    8.6125  -19.9960  -43.4987 C   0  0  0  0  0  0  0  0  0  0  0  0
    8.7077  -21.2790  -44.2882 C   0  0  0  0  0  0  0  0  0  0  0  0
   -1.9376  -15.2976  -37.8331 S   0  0  0  0  0  0  0  0  0  0  0  0
   -0.6653  -16.3758  -37.3953 C   0  0  0  0  0  0  0  0  0  0  0  0
    0.5558  -15.7824  -37.5379 C   0  0  0  0  0  0  0  0  0  0  0  0
    0.4707  -14.4229  -37.9836 C   0  0  0  0  0  0  0  0  0  0  0  0
   -0.8251  -14.0221  -38.2055 C   0  0  0  0  0  0  0  0  0  0  0  0
   -1.3645  -12.7017  -38.6654 C   0  0  0  0  0  0  0  0  0  0  0  0
   -0.9850  -18.8628  -37.8264 N   0  0  0  0  0  0  0  0  0  0  0  0
   -1.1643  -17.7109  -36.9786 C   0  0  0  0  0  0  0  0  0  0  0  0
   -1.6780  -17.8129  -35.8614 O   0  0  0  0  0  0  0  0  0  0  0  0
   -1.3959  -20.1862  -37.3713 C   0  0  0  0  0  0  0  0  0  0  0  0
   -0.4005  -18.7849  -39.1587 C   0  0  0  0  0  0  0  0  0  0  0  0
    2.9739  -20.0429  -38.7843 N   0  0  0  0  0  0  0  0  0  0  0  0
    0.9936  -19.3309  -39.2062 C   0  0  0  0  0  0  0  0  0  0  0  0
    2.9260  -19.7695  -40.0999 N   0  0  0  0  0  0  0  0  0  0  0  0
    1.7918  -19.7964  -38.2027 C   0  0  0  0  0  0  0  0  0  0  0  0
    1.7158  -19.3372  -40.3549 N   0  0  0  0  0  0  0  0  0  0  0  0
    4.2080  -20.5155  -38.1589 C   0  0  0  0  0  0  0  0  0  0  0  0
    5.4218  -19.8712  -38.8121 C   0  0  0  0  0  0  0  0  0  0  0  0
    6.3183  -19.2500  -37.7907 C   0  0  0  0  0  0  0  0  0  0  0  0
 30 31  1  0  0  0
 30 34  1  0  0  0
 30 33  1  0  0  0
 31 32  2  0  0  0
 31 25  1  0  0  0
 34 36  1  0  0  0
 35 37  1  0  0  0
 35 38  1  0  0  0
 35 40  1  0  0  0
 12 14  2  0  0  0
 24 25  1  0  0  0
 24 28  1  0  0  0
 36 38  2  0  0  0
 36 39  1  0  0  0
 37 39  2  0  0  0
 40 41  1  0  0  0
 13 14  1  0  0  0
 13 16  1  0  0  0
 13 15  1  0  0  0
 41 42  1  0  0  0
 17 18  1  0  0  0
 17 21  1  0  0  0
 17 22  1  0  0  0
 18 19  2  0  0  0
 19 20  1  0  0  0
 25 26  2  0  0  0
 26 27  1  0  0  0
 27  1  1  0  0  0
 27 28  2  0  0  0
  1  2  1  0  0  0
  1  5  2  0  0  0
  2  6  1  0  0  0
  2  3  2  0  0  0
  6  7  2  0  0  0
  6 10  1  0  0  0
  7  8  1  0  0  0
  7 11  1  0  0  0
  9 14  1  0  0  0
  9 10  2  0  0  0
  9 11  1  0  0  0
 16 20  1  0  0  0
 20 21  2  0  0  0
 22 23  1  0  0  0
  3  4  1  0  0  0
  4  5  1  0  0  0
 28 29  1  0  0  0
M  END
> <minimizedAffinity>
-5.63290

$$$$
