# created with PyMOL 2.5.2
@<TRIPOS>MOLECULE
6y4q.D
42 46 1                 
SMALL
USER_CHARGES
@<TRIPOS>ATOM
1	   C	3.957	-19.390	-38.498	C.2	1	UNK0	0.000	
2	   C	4.760	-20.183	-39.228	C.2	1	UNK0	0.000	
3	   C	6.140	-20.281	-38.624	C.2	1	UNK0	0.000	
4	   C	6.127	-19.234	-37.513	C.3	1	UNK0	0.000	
5	   C	4.671	-18.849	-37.284	C.2	1	UNK0	0.000	
6	   C	4.432	-20.878	-40.480	C.2	1	UNK0	0.000	
7	   C	4.969	-20.596	-41.716	C.2	1	UNK0	0.000	
8	   C	5.947	-19.534	-42.127	C.3	1	UNK0	0.000	
9	   C	3.394	-22.531	-41.763	C.2	1	UNK0	0.000	
10	   C	3.531	-21.988	-40.513	C.2	1	UNK0	0.000	
11	   S	4.362	-21.692	-42.919	S.3	1	UNK0	0.000	
12	   O	3.315	-24.735	-42.503	O.2	1	UNK0	0.000	
13	   N	1.285	-23.618	-42.641	N.pl3	1	UNK0	0.000	
14	   C	2.680	-23.697	-42.330	C.2	1	UNK0	0.000	
15	   C	0.467	-22.412	-42.589	C.3	1	UNK0	0.000	
16	   C	0.645	-24.822	-43.149	C.3	1	UNK0	0.000	
17	   N	-1.370	-26.014	-40.385	N.pl3	1	UNK0	0.000	
18	   N	-0.260	-26.757	-40.261	N.2	1	UNK0	0.000	
19	   N	0.546	-26.405	-41.230	N.2	1	UNK0	0.000	
20	   C	-0.052	-25.444	-41.978	C.2	1	UNK0	0.000	
21	   C	-1.272	-25.180	-41.432	C.2	1	UNK0	0.000	
22	   C	-2.519	-26.175	-39.489	C.3	1	UNK0	0.000	
23	   C	-2.280	-25.553	-38.135	C.3	1	UNK0	0.000	
24	   S	0.491	-17.754	-39.631	S.3	1	UNK0	0.000	
25	   C	0.310	-18.776	-38.254	C.2	1	UNK0	0.000	
26	   C	1.487	-19.391	-37.938	C.2	1	UNK0	0.000	
27	   C	2.567	-19.016	-38.803	C.2	1	UNK0	0.000	
28	   C	2.172	-18.142	-39.788	C.2	1	UNK0	0.000	
29	   C	2.965	-17.500	-40.886	C.3	1	UNK0	0.000	
30	   N	-1.436	-17.968	-36.589	N.pl3	1	UNK0	0.000	
31	   C	-1.077	-18.782	-37.724	C.2	1	UNK0	0.000	
32	   O	-1.921	-19.454	-38.322	O.2	1	UNK0	0.000	
33	   C	-2.819	-17.910	-36.131	C.3	1	UNK0	0.000	
34	   C	-0.468	-17.174	-35.843	C.3	1	UNK0	0.000	
35	   N	0.380	-13.828	-36.936	N.pl3	1	UNK0	0.000	
36	   C	-0.245	-15.823	-36.451	C.2	1	UNK0	0.000	
37	   N	-0.750	-14.065	-37.625	N.2	1	UNK0	0.000	
38	   C	0.729	-14.899	-36.209	C.2	1	UNK0	0.000	
39	   N	-1.128	-15.284	-37.329	N.2	1	UNK0	0.000	
40	   C	1.049	-12.531	-37.012	C.3	1	UNK0	0.000	
41	   C	2.510	-12.702	-37.404	C.3	1	UNK0	0.000	
42	   C	2.643	-13.039	-38.854	C.3	1	UNK0	0.000	
@<TRIPOS>BOND
1 30 31 1
2 30 34 1
3 30 33 1
4 31 32 2
5 25 31 1
6 34 36 1
7 35 37 1
8 35 38 1
9 35 40 1
10 12 14 2
11 24 25 1
12 24 28 1
13 36 38 2
14 36 39 1
15 37 39 2
16 40 41 1
17 13 14 1
18 13 16 1
19 13 15 1
20 41 42 1
21 17 18 1
22 17 21 1
23 17 22 1
24 18 19 2
25 19 20 1
26 25 26 2
27 26 27 1
28 1 27 1
29 27 28 2
30 1 2 1
31 1 5 2
32 2 6 1
33 2 3 2
34 6 7 2
35 6 10 1
36 7 8 1
37 7 11 1
38 9 14 1
39 9 10 2
40 9 11 1
41 16 20 1
42 20 21 2
43 22 23 1
44 3 4 1
45 4 5 1
46 28 29 1
@<TRIPOS>SUBSTRUCTURE
1	UNK0	1	GROUP	1 ****	UNK
