MODEL 1
REMARK VINA RESULT:    -6.394      0.000      0.000
REMARK INTER + INTRA:         -10.716
REMARK INTER:                  -9.011
REMARK INTRA:                  -1.705
REMARK UNBOUND:                -1.705
REMARK  8 active torsions:
REMARK  status: ('A' for Active; 'I' for Inactive)
REMARK    1  A    between atoms: C_6  and  C_9 
REMARK    2  A    between atoms: C_7  and  O_8 
REMARK    3  A    between atoms: N_10  and  N_11 
REMARK       I    between atoms: N_11  and  C_12 
REMARK    4  A    between atoms: C_12  and  C_14 
REMARK    5  A    between atoms: N_17  and  C_26 
REMARK    6  A    between atoms: C_18  and  C_19 
REMARK    7  A    between atoms: C_19  and  N_20 
REMARK    8  A    between atoms: C_30  and  N_31 
ROOT
ATOM      1  C   UNK d   1      12.491  66.606 -14.932  0.00  0.00     0.162 A 
ATOM      2  N   UNK d   1      12.922  67.821 -15.419  0.00  0.00    -0.125 NA
ATOM      3  N   UNK d   1      11.899  68.426 -15.934  0.00  0.00    -0.058 NA
ATOM      4  N   UNK d   1      10.796  67.639 -15.801  0.00  0.00    -0.191 N 
ATOM      5  C   UNK d   1      11.129  66.507 -15.184  0.00  0.00     0.101 A 
ENDROOT
BRANCH   1   6
ATOM      6  C   UNK d   1      13.378  65.672 -14.280  0.00  0.00     0.228 C 
ATOM      7  N   UNK d   1      13.202  64.917 -13.115  0.00  0.00    -0.253 N 
ATOM      8  H   UNK d   1      12.378  64.914 -12.537  0.00  0.00     0.191 HD
ATOM      9  O   UNK d   1      14.524  65.512 -14.885  0.00  0.00    -0.168 OA
BRANCH   7  10
ATOM     10  N   UNK d   1      14.298  64.070 -12.730  0.00  0.00    -0.184 NA
ATOM     11  C   UNK d   1      14.826  64.181 -11.569  0.00  0.00     0.153 C 
BRANCH  11  12
ATOM     12  C   UNK d   1      15.947  63.339 -11.129  0.00  0.00     0.019 A 
ATOM     13  C   UNK d   1      17.221  63.837 -10.952  0.00  0.00     0.038 A 
ATOM     14  C   UNK d   1      18.272  63.037 -10.537  0.00  0.00     0.049 A 
ATOM     15  C   UNK d   1      18.076  61.697 -10.282  0.00  0.00     0.144 A 
ATOM     16 Br   UNK d   1      20.038  63.728 -10.291  0.00  0.00    -0.048 Br
ATOM     17  C   UNK d   1      16.801  61.194 -10.459  0.00  0.00     0.082 A 
ATOM     18  O   UNK d   1      19.112  60.861  -9.862  0.00  0.00    -0.189 OA
ATOM     19 Br   UNK d   1      16.497  59.330 -10.113  0.00  0.00    -0.045 Br
ATOM     20  C   UNK d   1      15.757  61.997 -10.873  0.00  0.00     0.097 A 
BRANCH  20  21
ATOM     21  O   UNK d   1      14.457  61.493 -11.054  0.00  0.00    -0.358 OA
ATOM     22  H   UNK d   1      13.942  61.154 -10.257  0.00  0.00     0.217 HD
ENDBRANCH  20  21
ENDBRANCH  11  12
ENDBRANCH   7  10
ENDBRANCH   1   6
BRANCH   5  23
ATOM     23  C   UNK d   1      10.282  65.371 -14.821  0.00  0.00     0.296 C 
BRANCH  23  24
ATOM     24  N   UNK d   1       9.582  64.666 -15.828  0.00  0.00    -0.062 N 
ATOM     25  C   UNK d   1       8.549  63.784 -15.305  0.00  0.00     0.261 C 
ATOM     26  C   UNK d   1       9.084  62.896 -14.255  0.00  0.00     0.195 C 
ATOM     27  O   UNK d   1      10.345  62.463 -14.306  0.00  0.00    -0.388 OA
ATOM     28  C   UNK d   1      11.163  62.888 -15.303  0.00  0.00     0.195 C 
ATOM     29  C   UNK d   1      10.549  63.669 -16.393  0.00  0.00     0.261 C 
ATOM     30  H   UNK d   1       9.259  65.256 -16.581  0.00  0.00     0.280 HD
ENDBRANCH  23  24
ENDBRANCH   5  23
BRANCH   4  31
ATOM     31  C   UNK d   1       9.540  68.097 -16.307  0.00  0.00     0.229 A 
ATOM     32  N   UNK d   1       8.574  67.478 -16.974  0.00  0.00    -0.081 NA
ATOM     33  O   UNK d   1       7.625  68.333 -17.170  0.00  0.00    -0.103 OA
ATOM     34  N   UNK d   1       7.910  69.493 -16.667  0.00  0.00    -0.083 NA
ATOM     35  C   UNK d   1       9.108  69.417 -16.103  0.00  0.00     0.201 A 
BRANCH  35  36
ATOM     36  N   UNK d   1       9.850  70.418 -15.425  0.00  0.00    -0.379 N 
ATOM     37  H   UNK d   1       9.828  71.398 -15.776  0.00  0.00     0.158 HD
ATOM     38  H   UNK d   1      10.436  70.210 -14.566  0.00  0.00     0.158 HD
ENDBRANCH  35  36
ENDBRANCH   4  31
TORSDOF 8
ENDMDL
