/Users/jonathanwahrer/Desktop/Msc/3_Semester/Drug_Design_Praktikum/waehrer_HTS_screening/HTS_experiment/out/docking_results/vina_output/3sx0/0002_docked.pdbqt
 OpenBabel03192221193D

 38 41  0  0  0  0  0  0  0  0999 V2000
   12.4910   66.6060  -14.9320 C   0  0  0  0  0  0  0  0  0  0  0  0
   12.9220   67.8210  -15.4190 N   0  0  0  0  0  0  0  0  0  0  0  0
   11.8990   68.4260  -15.9340 N   0  0  0  0  0  0  0  0  0  0  0  0
   10.7960   67.6390  -15.8010 N   0  0  0  0  0  0  0  0  0  0  0  0
   11.1290   66.5070  -15.1840 C   0  0  0  0  0  0  0  0  0  0  0  0
   13.3780   65.6720  -14.2800 C   0  0  0  0  0  0  0  0  0  0  0  0
   13.2020   64.9170  -13.1150 N   0  0  0  0  0  0  0  0  0  0  0  0
   12.3780   64.9140  -12.5370 H   0  0  0  0  0  0  0  0  0  0  0  0
   14.5240   65.5120  -14.8850 O   0  0  0  0  0  0  0  0  0  0  0  0
   14.2980   64.0700  -12.7300 N   0  0  0  0  0  0  0  0  0  0  0  0
   14.8260   64.1810  -11.5690 C   0  0  0  0  0  3  0  0  0  0  0  0
   15.9470   63.3390  -11.1290 C   0  0  0  0  0  0  0  0  0  0  0  0
   17.2210   63.8370  -10.9520 C   0  0  0  0  0  3  0  0  0  0  0  0
   18.2720   63.0370  -10.5370 C   0  0  0  0  0  0  0  0  0  0  0  0
   18.0760   61.6970  -10.2820 C   0  0  0  0  0  0  0  0  0  0  0  0
   20.0380   63.7280  -10.2910 Br  0  0  0  0  0  0  0  0  0  0  0  0
   16.8010   61.1940  -10.4590 C   0  0  0  0  0  0  0  0  0  0  0  0
   19.1120   60.8610   -9.8620 O   0  0  0  0  0  1  0  0  0  0  0  0
   16.4970   59.3300  -10.1130 Br  0  0  0  0  0  0  0  0  0  0  0  0
   15.7570   61.9970  -10.8730 C   0  0  0  0  0  0  0  0  0  0  0  0
   14.4570   61.4930  -11.0540 O   0  0  0  0  0  0  0  0  0  0  0  0
   13.9420   61.1540  -10.2570 H   0  0  0  0  0  0  0  0  0  0  0  0
   10.2820   65.3710  -14.8210 C   0  0  0  0  0  2  0  0  0  0  0  0
    9.5820   64.6660  -15.8280 N   0  0  0  0  0  4  0  0  0  0  0  0
    8.5490   63.7840  -15.3050 C   0  0  0  0  0  2  0  0  0  0  0  0
    9.0840   62.8960  -14.2550 C   0  0  0  0  0  2  0  0  0  0  0  0
   10.3450   62.4630  -14.3060 O   0  0  0  0  0  0  0  0  0  0  0  0
   11.1630   62.8880  -15.3030 C   0  0  0  0  0  2  0  0  0  0  0  0
   10.5490   63.6690  -16.3930 C   0  0  0  0  0  2  0  0  0  0  0  0
    9.2590   65.2560  -16.5810 H   0  0  0  0  0  0  0  0  0  0  0  0
    9.5400   68.0970  -16.3070 C   0  0  0  0  0  0  0  0  0  0  0  0
    8.5740   67.4780  -16.9740 N   0  0  0  0  0  0  0  0  0  0  0  0
    7.6250   68.3330  -17.1700 O   0  0  0  0  0  0  0  0  0  0  0  0
    7.9100   69.4930  -16.6670 N   0  0  0  0  0  0  0  0  0  0  0  0
    9.1080   69.4170  -16.1030 C   0  0  0  0  0  0  0  0  0  0  0  0
    9.8500   70.4180  -15.4250 N   0  0  0  0  0  0  0  0  0  0  0  0
    9.8280   71.3980  -15.7760 H   0  0  0  0  0  0  0  0  0  0  0  0
   10.4360   70.2100  -14.5660 H   0  0  0  0  0  0  0  0  0  0  0  0
  1  6  1  0  0  0  0
  2  1  1  0  0  0  0
  3  4  1  0  0  0  0
  3  2  2  0  0  0  0
  4  5  1  0  0  0  0
  5  1  2  0  0  0  0
  5 23  1  0  0  0  0
  6  7  1  0  0  0  0
  7 10  1  0  0  0  0
  7  8  1  0  0  0  0
  9  6  2  0  0  0  0
 10 11  2  0  0  0  0
 11 12  1  0  0  0  0
 12 13  2  0  0  0  0
 12 20  1  0  0  0  0
 13 14  1  0  0  0  0
 14 16  1  0  0  0  0
 14 15  2  0  0  0  0
 15 18  1  0  0  0  0
 17 15  1  0  0  0  0
 17 19  1  0  0  0  0
 20 17  2  0  0  0  0
 21 20  1  0  0  0  0
 21 22  1  0  0  0  0
 24 25  1  0  0  0  0
 24 23  1  0  0  0  0
 25 26  1  0  0  0  0
 27 26  1  0  0  0  0
 28 27  1  0  0  0  0
 29 24  1  0  0  0  0
 29 28  1  0  0  0  0
 30 24  1  0  0  0  0
 31 35  1  0  0  0  0
 31  4  1  0  0  0  0
 32 31  2  0  0  0  0
 33 32  1  0  0  0  0
 33 34  1  0  0  0  0
 34 35  2  0  0  0  0
 35 36  1  0  0  0  0
 36 38  1  0  0  0  0
 37 36  1  0  0  0  0
M  END
>  <Pose>
1

>  <Score>
-6.394

$$$$
