MODEL 1
REMARK VINA RESULT:    -6.490      0.000      0.000
REMARK INTER + INTRA:         -10.930
REMARK INTER:                  -9.335
REMARK INTRA:                  -1.595
REMARK UNBOUND:                -1.595
REMARK  9 active torsions:
REMARK  status: ('A' for Active; 'I' for Inactive)
REMARK    1  A    between atoms: C_3  and  O_33 
REMARK    2  A    between atoms: C_6  and  C_9 
REMARK    3  A    between atoms: C_7  and  O_8 
REMARK    4  A    between atoms: N_10  and  N_11 
REMARK       I    between atoms: N_11  and  C_12 
REMARK    5  A    between atoms: C_12  and  C_14 
REMARK    6  A    between atoms: N_17  and  C_26 
REMARK    7  A    between atoms: C_18  and  C_19 
REMARK    8  A    between atoms: C_19  and  N_20 
REMARK    9  A    between atoms: C_30  and  N_31 
ROOT
ATOM      1  C   UNK d   1      12.720  66.624 -14.997  0.00  0.00     0.176 A 
ATOM      2  N   UNK d   1      13.094  67.820 -15.558  0.00  0.00    -0.124 NA
ATOM      3  N   UNK d   1      12.041  68.421 -16.038  0.00  0.00    -0.058 NA
ATOM      4  N   UNK d   1      10.946  67.708 -15.840  0.00  0.00    -0.191 N 
ATOM      5  C   UNK d   1      11.337  66.592 -15.201  0.00  0.00     0.104 A 
ENDROOT
BRANCH   1   6
ATOM      6  C   UNK d   1      13.622  65.677 -14.368  0.00  0.00     0.294 C 
ATOM      7  N   UNK d   1      13.736  65.339 -13.026  0.00  0.00    -0.242 N 
ATOM      8  H   UNK d   1      13.181  65.722 -12.225  0.00  0.00     0.192 HD
ATOM      9  O   UNK d   1      14.419  65.078 -15.183  0.00  0.00    -0.264 OA
BRANCH   7  10
ATOM     10  N   UNK d   1      14.726  64.357 -12.681  0.00  0.00    -0.183 NA
ATOM     11  C   UNK d   1      15.362  64.473 -11.570  0.00  0.00     0.153 C 
BRANCH  11  12
ATOM     12  C   UNK d   1      16.381  63.535 -11.124  0.00  0.00     0.019 A 
ATOM     13  C   UNK d   1      17.682  63.928 -10.953  0.00  0.00     0.038 A 
ATOM     14  C   UNK d   1      18.670  63.047 -10.528  0.00  0.00     0.046 A 
ATOM     15  C   UNK d   1      18.341  61.720 -10.263  0.00  0.00     0.103 A 
ATOM     16 Br   UNK d   1      20.458  63.635 -10.306  0.00  0.00    -0.048 Br
ATOM     17  C   UNK d   1      17.048  61.320 -10.430  0.00  0.00     0.079 A 
ATOM     18 Br   UNK d   1      16.558  59.524 -10.079  0.00  0.00    -0.045 Br
ATOM     19  C   UNK d   1      16.070  62.220 -10.858  0.00  0.00     0.097 A 
BRANCH  15  20
ATOM     20  O   UNK d   1      19.342  60.857  -9.840  0.00  0.00    -0.358 OA
ATOM     21  H   UNK d   1      20.027  60.501 -10.485  0.00  0.00     0.217 HD
ENDBRANCH  15  20
BRANCH  19  22
ATOM     22  O   UNK d   1      14.751  61.832 -11.034  0.00  0.00    -0.358 OA
ATOM     23  H   UNK d   1      14.213  62.195 -11.812  0.00  0.00     0.217 HD
ENDBRANCH  19  22
ENDBRANCH  11  12
ENDBRANCH   7  10
ENDBRANCH   1   6
BRANCH   5  24
ATOM     24  C   UNK d   1      10.479  65.499 -14.732  0.00  0.00     0.334 C 
BRANCH  24  25
ATOM     25  N   UNK d   1      10.512  64.302 -15.576  0.00  0.00     0.098 N 
ATOM     26  C   UNK d   1       9.151  64.057 -16.093  0.00  0.00     0.299 C 
ATOM     27  C   UNK d   1       8.163  64.164 -14.984  0.00  0.00     0.198 C 
ATOM     28  O   UNK d   1       8.529  63.328 -13.957  0.00  0.00    -0.388 OA
ATOM     29  C   UNK d   1       9.555  62.472 -14.262  0.00  0.00     0.198 C 
ATOM     30  C   UNK d   1      10.828  63.141 -14.710  0.00  0.00     0.299 C 
ENDBRANCH  24  25
ENDBRANCH   5  24
BRANCH   4  31
ATOM     31  C   UNK d   1       9.648  68.124 -16.226  0.00  0.00     0.229 A 
ATOM     32  N   UNK d   1       8.675  67.429 -16.853  0.00  0.00    -0.081 NA
ATOM     33  O   UNK d   1       7.622  68.186 -17.013  0.00  0.00    -0.103 OA
ATOM     34  N   UNK d   1       7.838  69.378 -16.517  0.00  0.00    -0.083 NA
ATOM     35  C   UNK d   1       9.086  69.375 -16.019  0.00  0.00     0.201 A 
BRANCH  35  36
ATOM     36  N   UNK d   1       9.694  70.485 -15.394  0.00  0.00    -0.379 N 
ATOM     37  H   UNK d   1      10.728  70.560 -15.404  0.00  0.00     0.158 HD
ATOM     38  H   UNK d   1       9.149  71.229 -14.924  0.00  0.00     0.158 HD
ENDBRANCH  35  36
ENDBRANCH   4  31
TORSDOF 9
ENDMDL
