/Users/jonathanwahrer/Desktop/Msc/3_Semester/Drug_Design_Praktikum/waehrer_HTS_screening/HTS_experiment/out/docking_results/vina_output/3sx0/0005_docked.pdbqt
 OpenBabel03192221203D

 38 41  0  0  1  0  0  0  0  0999 V2000
   11.9390   63.7720  -14.7660 N   0  0  0  0  0  0  0  0  0  0  0  0
   12.1870   65.0610  -15.1200 C   0  0  0  0  0  0  0  0  0  0  0  0
   11.0720   65.5980  -15.7060 C   0  0  0  0  0  0  0  0  0  0  0  0
   10.1740   64.6330  -15.6930 N   0  0  0  0  0  0  0  0  0  0  0  0
   10.6690   63.5010  -15.1220 C   0  0  0  0  0  0  0  0  0  0  0  0
   10.9830   66.8840  -16.1640 N   0  0  0  0  0  0  0  0  0  0  0  0
   12.0710   67.6490  -16.0140 C   0  0  0  0  0  0  0  0  0  0  0  0
   11.9860   68.8360  -16.4380 O   0  0  0  0  0  0  0  0  0  0  0  0
   13.1920   67.1700  -15.4410 N   0  0  0  0  0  2  0  0  0  0  0  0
   13.2940   65.9100  -14.9880 C   0  0  0  0  0  0  0  0  0  0  0  0
   14.4490   65.4480  -14.4010 O   0  0  0  0  0  0  0  0  0  0  0  0
    9.7460   67.3440  -16.7800 C   0  0  0  0  0  1  0  0  0  0  0  0
   12.8570   62.8940  -14.1340 C   0  0  0  0  0  2  0  0  0  0  0  0
   13.1300   62.9400  -12.7070 C   0  0  1  0  0  3  0  0  0  0  0  0
   14.0210   62.0290  -11.9760 C   0  0  0  0  0  2  0  0  0  0  0  0
   14.6320   62.7020  -10.8780 O   0  0  0  0  0  0  0  0  0  0  0  0
   15.9430   62.6810  -10.5520 C   0  0  0  0  0  0  0  0  0  0  0  0
   16.6070   63.8930  -10.3090 C   0  0  0  0  0  0  0  0  0  0  0  0
   15.5880   65.5070  -10.4570 Br  0  0  0  0  0  0  0  0  0  0  0  0
   17.9370   63.9310   -9.9760 C   0  0  0  0  0  3  0  0  0  0  0  0
   18.6660   62.7660   -9.8700 C   0  0  0  0  0  0  0  0  0  0  0  0
   18.0380   61.5650  -10.1040 C   0  0  0  0  0  3  0  0  0  0  0  0
   20.5070   62.9170   -9.4030 Br  0  0  0  0  0  0  0  0  0  0  0  0
   16.6800   61.5450  -10.4430 C   0  0  0  0  0  0  0  0  0  0  0  0
   15.9110   59.8570  -10.7640 Br  0  0  0  0  0  0  0  0  0  0  0  0
   13.2550   64.1950  -12.0850 O   0  0  0  0  0  0  0  0  0  0  0  0
   13.8170   64.8040  -12.5970 H   0  0  0  0  0  0  0  0  0  0  0  0
    9.8480   62.3440  -14.8820 N   0  0  0  0  0  0  0  0  0  0  0  0
    9.0880   62.0500  -13.7280 C   0  0  0  0  0  2  0  0  0  0  0  0
    8.3090   60.7340  -14.0000 C   0  0  0  0  0  2  0  0  0  0  0  0
    9.3390   59.7310  -14.1930 N   0  0  0  0  0  4  0  0  0  0  0  0
    9.7620   59.9510  -15.5890 C   0  0  0  0  0  2  0  0  0  0  0  0
   10.1920   59.8890  -13.6160 H   0  0  0  0  0  0  0  0  0  0  0  0
    9.7540   61.3750  -15.9820 C   0  0  0  0  0  2  0  0  0  0  0  0
    8.8120   58.3890  -14.0500 C   0  0  0  0  0  2  0  0  0  0  0  0
    9.3780   57.5230  -15.1550 C   0  0  0  0  0  2  0  0  0  0  0  0
   10.3920   56.7140  -14.6280 O   0  0  0  0  0  0  0  0  0  0  0  0
   10.2200   56.5130  -13.6660 H   0  0  0  0  0  0  0  0  0  0  0  0
  1 13  1  0  0  0  0
  2 10  1  0  0  0  0
  2  1  1  0  0  0  0
  3  4  1  0  0  0  0
  3  2  2  0  0  0  0
  4  5  2  0  0  0  0
  5 28  1  0  0  0  0
  5  1  1  0  0  0  0
  6  7  1  0  0  0  0
  6  3  1  0  0  0  0
  7  9  1  0  0  0  0
  8  7  2  0  0  0  0
  9 10  1  0  0  0  0
 10 11  2  0  0  0  0
 12  6  1  0  0  0  0
 14 13  1  6  0  0  0
 14 26  1  0  0  0  0
 14 15  1  0  0  0  0
 15 16  1  0  0  0  0
 16 17  1  0  0  0  0
 17 24  2  0  0  0  0
 17 18  1  0  0  0  0
 18 20  2  0  0  0  0
 19 18  1  0  0  0  0
 20 21  1  0  0  0  0
 21 23  1  0  0  0  0
 22 21  2  0  0  0  0
 24 22  1  0  0  0  0
 25 24  1  0  0  0  0
 27 26  1  0  0  0  0
 28 29  1  0  0  0  0
 30 29  1  0  0  0  0
 31 35  1  0  0  0  0
 31 30  1  0  0  0  0
 31 33  1  0  0  0  0
 32 31  1  0  0  0  0
 34 32  1  0  0  0  0
 34 28  1  0  0  0  0
 36 37  1  0  0  0  0
 36 35  1  0  0  0  0
 37 38  1  0  0  0  0
M  END
>  <Pose>
1

>  <Score>
-5.976

$$$$
