MODEL 1
REMARK VINA RESULT:    -8.382      0.000      0.000
REMARK INTER + INTRA:         -12.498
REMARK INTER:                 -12.547
REMARK INTRA:                   0.049
REMARK UNBOUND:                 0.049
REMARK  9 active torsions:
REMARK  status: ('A' for Active; 'I' for Inactive)
REMARK    1  A    between atoms: C_4  and  O_29 
REMARK    2  A    between atoms: C_6  and  C_8 
REMARK    3  A    between atoms: C_8  and  N_9 
REMARK    4  A    between atoms: N_9  and  N_10 
REMARK       I    between atoms: N_10  and  C_11 
REMARK    5  A    between atoms: C_11  and  C_13 
REMARK    6  A    between atoms: C_13  and  N_14 
REMARK    7  A    between atoms: C_18  and  C_19 
REMARK    8  A    between atoms: C_23  and  N_24 
REMARK    9  A    between atoms: O_29  and  C_30 
ROOT
ATOM      1  N   UNK d   1      18.165  62.924 -10.550  0.00  0.00    -0.319 N 
ATOM      2  C   UNK d   1      17.349  61.805 -10.480  0.00  0.00     0.065 A 
ATOM      3  C   UNK d   1      18.048  60.845  -9.849  0.00  0.00     0.086 A 
ATOM      4  N   UNK d   1      19.230  61.360  -9.549  0.00  0.00    -0.226 NA
ATOM      5  C   UNK d   1      19.317  62.673  -9.988  0.00  0.00     0.167 A 
ATOM      6  C   UNK d   1      17.532  59.582  -9.601  0.00  0.00     0.034 A 
ATOM      7  C   UNK d   1      16.250  59.349 -10.037  0.00  0.00     0.002 A 
ATOM      8  C   UNK d   1      15.489  60.298 -10.693  0.00  0.00     0.002 A 
ATOM      9  C   UNK d   1      16.058  61.551 -10.914  0.00  0.00     0.032 A 
ENDROOT
BRANCH   1  10
ATOM     10  C   UNK d   1      17.683  64.102 -11.142  0.00  0.00     0.236 C 
BRANCH  10  11
ATOM     11  C   UNK d   1      16.256  64.452 -10.666  0.00  0.00     0.264 C 
ATOM     12  N   UNK d   1      15.406  64.563 -11.717  0.00  0.00    -0.202 N 
ATOM     13  H   UNK d   1      14.376  64.827 -10.798  0.00  0.00     0.205 HD
ATOM     14  O   UNK d   1      16.176  64.560  -9.444  0.00  0.00    -0.269 OA
BRANCH  12  15
ATOM     15  N   UNK d   1      14.631  64.664 -12.670  0.00  0.00    -0.335 NA
BRANCH  15  16
ATOM     16  C   UNK d   1      13.941  64.705 -13.629  0.00  0.00     0.220 C 
BRANCH  16  17
ATOM     17  C   UNK d   1      12.666  65.263 -13.919  0.00  0.00    -0.001 A 
ATOM     18  C   UNK d   1      11.509  64.481 -13.791  0.00  0.00     0.053 A 
ATOM     19  C   UNK d   1      10.237  64.915 -14.026  0.00  0.00     0.107 A 
ATOM     20  C   UNK d   1      10.070  66.262 -14.430  0.00  0.00     0.157 A 
ATOM     21  C   UNK d   1      11.180  67.065 -14.570  0.00  0.00     0.051 A 
ATOM     22  O   UNK d   1       8.796  66.693 -14.659  0.00  0.00    -0.188 OA
ATOM     23 Br   UNK d   1      10.988  68.883 -15.083  0.00  0.00    -0.048 Br
ATOM     24  C   UNK d   1      12.442  66.563 -14.316  0.00  0.00     0.036 A 
BRANCH  19  25
ATOM     25  O   UNK d   1       9.105  64.134 -13.891  0.00  0.00    -0.348 OA
BRANCH  25  26
ATOM     26  C   UNK d   1       8.888  62.984 -14.635  0.00  0.00     0.171 C 
ATOM     27  C   UNK d   1       8.626  61.728 -13.853  0.00  0.00     0.034 C 
ENDBRANCH  25  26
ENDBRANCH  19  25
ENDBRANCH  16  17
ENDBRANCH  15  16
ENDBRANCH  12  15
ENDBRANCH  10  11
ENDBRANCH   1  10
BRANCH   5  28
ATOM     28  C   UNK d   1      20.563  63.363  -9.704  0.00  0.00     0.187 A 
ATOM     29  N   UNK d   1      20.839  63.919  -8.457  0.00  0.00    -0.097 NA
ATOM     30  O   UNK d   1      21.997  64.444  -8.449  0.00  0.00    -0.104 OA
ATOM     31  N   UNK d   1      22.556  64.306  -9.584  0.00  0.00    -0.077 NA
ATOM     32  C   UNK d   1      21.684  63.627 -10.404  0.00  0.00     0.285 A 
BRANCH  32  33
ATOM     33  N   UNK d   1      22.018  63.292 -11.733  0.00  0.00    -0.028 N 
ATOM     34  H   UNK d   1      21.503  63.985 -12.396  0.00  0.00     0.283 HD
ATOM     35  H   UNK d   1      21.611  62.382 -11.981  0.00  0.00     0.283 HD
ATOM     36  H   UNK d   1      22.996  63.482 -11.937  0.00  0.00     0.283 HD
ENDBRANCH  32  33
ENDBRANCH   5  28
TORSDOF 9
ENDMDL
