/Users/jonathanwahrer/Desktop/Msc/3_Semester/Drug_Design_Praktikum/waehrer_HTS_screening/HTS_experiment/out/docking_results/vina_output/3sx0/0023_docked.pdbqt
 OpenBabel03192221243D

 37 40  0  0  1  0  0  0  0  0999 V2000
   21.2250   64.2410  -10.1210 C   0  0  1  0  0  3  0  0  0  0  0  0
   21.7220   64.2630   -8.7610 N   0  0  0  0  0  0  0  0  0  0  0  0
   22.8000   63.3870   -8.5930 C   0  0  0  0  0  0  0  0  0  0  0  0
   23.3500   63.0970   -7.5200 O   0  0  0  0  0  0  0  0  0  0  0  0
   23.1620   62.8720   -9.9140 C   0  0  0  0  0  0  0  0  0  0  0  0
   24.1000   62.0530  -10.0900 O   0  0  0  0  0  0  0  0  0  0  0  0
   22.2700   63.4680  -10.8860 C   0  0  1  0  0  3  0  0  0  0  0  0
   22.3490   63.3080  -12.1800 C   0  0  1  0  0  3  0  0  0  0  0  0
   21.2000   63.0510  -12.9100 O   0  0  0  0  0  1  0  0  0  0  0  0
   23.6020   63.3990  -12.8880 C   0  0  0  0  0  0  0  0  0  0  0  0
   23.4840   63.4590  -14.2830 C   0  0  0  0  0  3  0  0  0  0  0  0
   24.5920   63.5840  -15.0830 C   0  0  0  0  0  0  0  0  0  0  0  0
   25.8460   63.6500  -14.5220 C   0  0  0  0  0  0  0  0  0  0  0  0
   24.6850   63.6570  -16.5770 C   0  0  0  0  0  2  0  0  0  0  0  0
   25.9370   63.5870  -13.1440 C   0  0  0  0  0  3  0  0  0  0  0  0
   26.7870   63.7730  -15.5650 O   0  0  0  0  0  0  0  0  0  0  0  0
   24.8370   63.4640  -12.3240 C   0  0  0  0  0  3  0  0  0  0  0  0
   26.1580   63.3940  -16.7850 C   0  0  1  0  0  3  0  0  0  0  0  0
   26.3240   61.9140  -17.0750 C   0  0  0  0  0  1  0  0  0  0  0  0
   19.9310   63.5100  -10.1030 C   0  0  0  0  0  0  0  0  0  0  0  0
   18.8150   64.2300  -10.4970 C   0  0  0  0  0  3  0  0  0  0  0  0
   17.5760   63.6830  -10.5340 C   0  0  0  0  0  0  0  0  0  0  0  0
   17.4230   62.3530  -10.1640 C   0  0  0  0  0  0  0  0  0  0  0  0
   18.5540   61.6260   -9.7660 C   0  0  0  0  0  0  0  0  0  0  0  0
   18.3440   59.8100   -9.2620 Br  0  0  0  0  0  0  0  0  0  0  0  0
   19.8120   62.1940   -9.7320 C   0  0  0  0  0  3  0  0  0  0  0  0
   16.4520   64.4120  -10.9310 O   0  0  0  0  0  0  0  0  0  0  0  0
   15.7470   65.2670  -10.0720 C   0  0  0  0  0  1  0  0  0  0  0  0
   16.1740   61.7860  -10.1970 O   0  0  0  0  0  0  0  0  0  0  0  0
   15.4530   62.1230   -9.6070 H   0  0  0  0  0  0  0  0  0  0  0  0
   21.1200   65.1100   -7.7530 C   0  0  0  0  0  2  0  0  0  0  0  0
   21.9570   65.4520   -6.5940 C   0  0  0  0  0  2  0  0  0  0  0  0
   22.8650   66.6200   -6.7080 C   0  0  0  0  0  2  0  0  0  0  0  0
   22.3180   67.8500   -6.1930 N   0  0  0  0  0  4  0  0  0  0  0  0
   21.2090   68.2790   -7.0580 C   0  0  0  0  0  1  0  0  0  0  0  0
   23.3550   68.8610   -6.3010 C   0  0  0  0  0  1  0  0  0  0  0  0
   22.0190   67.8190   -5.2140 H   0  0  0  0  0  0  0  0  0  0  0  0
  1 20  1  1  0  0  0
  1  2  1  0  0  0  0
  2  3  1  0  0  0  0
  2 31  1  0  0  0  0
  3  4  2  0  0  0  0
  5  3  1  0  0  0  0
  6  5  2  0  0  0  0
  7  8  1  1  0  0  0
  7  1  1  0  0  0  0
  7  5  1  0  0  0  0
  8  9  1  6  0  0  0
 10 17  1  0  0  0  0
 10  8  1  0  0  0  0
 11 10  2  0  0  0  0
 12 13  2  0  0  0  0
 12 11  1  0  0  0  0
 13 15  1  0  0  0  0
 14 12  1  0  0  0  0
 15 17  2  0  0  0  0
 16 13  1  0  0  0  0
 18 19  1  1  0  0  0
 18 14  1  0  0  0  0
 18 16  1  0  0  0  0
 20 26  1  0  0  0  0
 21 20  2  0  0  0  0
 22 21  1  0  0  0  0
 22 23  2  0  0  0  0
 23 24  1  0  0  0  0
 24 26  2  0  0  0  0
 24 25  1  0  0  0  0
 27 22  1  0  0  0  0
 27 28  1  0  0  0  0
 29 23  1  0  0  0  0
 29 30  1  0  0  0  0
 31 32  1  0  0  0  0
 33 32  1  0  0  0  0
 33 34  1  0  0  0  0
 34 37  1  0  0  0  0
 35 34  1  0  0  0  0
 36 34  1  0  0  0  0
M  END
>  <Pose>
1

>  <Score>
-7.440

$$$$
