MODEL 1
REMARK VINA RESULT:    -7.440      0.000      0.000
REMARK INTER + INTRA:         -10.326
REMARK INTER:                 -11.137
REMARK INTRA:                   0.811
REMARK UNBOUND:                 0.811
REMARK  9 active torsions:
REMARK  status: ('A' for Active; 'I' for Inactive)
REMARK    1  A    between atoms: C_3  and  O_35 
REMARK    2  A    between atoms: C_4  and  O_33 
REMARK    3  A    between atoms: C_6  and  C_8 
REMARK    4  A    between atoms: N_9  and  C_27 
REMARK    5  A    between atoms: C_14  and  C_15 
REMARK    6  A    between atoms: C_15  and  C_17 
REMARK    7  A    between atoms: C_27  and  C_28 
REMARK    8  A    between atoms: C_28  and  C_29 
REMARK    9  A    between atoms: C_29  and  N_30 
ROOT
ATOM      1  C   UNK d   1      21.225  64.241 -10.121  0.00  0.00     0.161 C 
ATOM      2  N   UNK d   1      21.722  64.263  -8.761  0.00  0.00    -0.332 N 
ATOM      3  C   UNK d   1      22.800  63.387  -8.593  0.00  0.00     0.295 C 
ATOM      4  O   UNK d   1      23.350  63.097  -7.520  0.00  0.00    -0.264 OA
ATOM      5  C   UNK d   1      23.162  62.872  -9.914  0.00  0.00     0.250 C 
ATOM      6  O   UNK d   1      24.100  62.053 -10.090  0.00  0.00    -0.282 OA
ATOM      7  C   UNK d   1      22.270  63.468 -10.886  0.00  0.00     0.062 C 
ENDROOT
BRANCH   7   8
ATOM      8  C   UNK d   1      22.349  63.308 -12.180  0.00  0.00     0.130 C 
ATOM      9  O   UNK d   1      21.200  63.051 -12.910  0.00  0.00    -0.190 OA
BRANCH   8  10
ATOM     10  C   UNK d   1      23.602  63.399 -12.888  0.00  0.00     0.002 A 
ATOM     11  C   UNK d   1      23.484  63.459 -14.283  0.00  0.00     0.024 A 
ATOM     12  C   UNK d   1      24.592  63.584 -15.083  0.00  0.00    -0.021 A 
ATOM     13  C   UNK d   1      25.846  63.650 -14.522  0.00  0.00     0.075 A 
ATOM     14  C   UNK d   1      24.685  63.657 -16.577  0.00  0.00     0.073 C 
ATOM     15  C   UNK d   1      25.937  63.587 -13.144  0.00  0.00     0.038 A 
ATOM     16  O   UNK d   1      26.787  63.773 -15.565  0.00  0.00    -0.345 OA
ATOM     17  C   UNK d   1      24.837  63.464 -12.324  0.00  0.00     0.017 A 
ATOM     18  C   UNK d   1      26.158  63.394 -16.785  0.00  0.00     0.129 C 
ATOM     19  C   UNK d   1      26.324  61.914 -17.075  0.00  0.00     0.040 C 
ENDBRANCH   8  10
ENDBRANCH   7   8
BRANCH   1  20
ATOM     20  C   UNK d   1      19.931  63.510 -10.103  0.00  0.00    -0.026 A 
ATOM     21  C   UNK d   1      18.815  64.230 -10.497  0.00  0.00     0.049 A 
ATOM     22  C   UNK d   1      17.576  63.683 -10.534  0.00  0.00     0.103 A 
ATOM     23  C   UNK d   1      17.423  62.353 -10.164  0.00  0.00     0.116 A 
ATOM     24  C   UNK d   1      18.554  61.626  -9.766  0.00  0.00     0.047 A 
ATOM     25 Br   UNK d   1      18.344  59.810  -9.262  0.00  0.00    -0.048 Br
ATOM     26  C   UNK d   1      19.812  62.194  -9.732  0.00  0.00     0.031 A 
BRANCH  22  27
ATOM     27  O   UNK d   1      16.452  64.412 -10.931  0.00  0.00    -0.353 OA
ATOM     28  C   UNK d   1      15.747  65.267 -10.072  0.00  0.00     0.210 C 
ENDBRANCH  22  27
BRANCH  23  29
ATOM     29  O   UNK d   1      16.174  61.786 -10.197  0.00  0.00    -0.357 OA
ATOM     30  H   UNK d   1      15.453  62.123  -9.607  0.00  0.00     0.218 HD
ENDBRANCH  23  29
ENDBRANCH   1  20
BRANCH   2  31
ATOM     31  C   UNK d   1      21.120  65.110  -7.753  0.00  0.00     0.129 C 
BRANCH  31  32
ATOM     32  C   UNK d   1      21.957  65.452  -6.594  0.00  0.00     0.048 C 
BRANCH  32  33
ATOM     33  C   UNK d   1      22.865  66.620  -6.708  0.00  0.00     0.235 C 
BRANCH  33  34
ATOM     34  N   UNK d   1      22.318  67.850  -6.193  0.00  0.00    -0.079 N 
ATOM     35  C   UNK d   1      21.209  68.279  -7.058  0.00  0.00     0.269 C 
ATOM     36  C   UNK d   1      23.355  68.861  -6.301  0.00  0.00     0.269 C 
ATOM     37  H   UNK d   1      22.019  67.819  -5.214  0.00  0.00     0.278 HD
ENDBRANCH  33  34
ENDBRANCH  32  33
ENDBRANCH  31  32
ENDBRANCH   2  31
TORSDOF 9
ENDMDL
