MODEL 1
REMARK VINA RESULT:    -6.544      0.000      0.000
REMARK INTER + INTRA:          -7.871
REMARK INTER:                  -7.501
REMARK INTRA:                  -0.370
REMARK UNBOUND:                -0.370
REMARK  3 active torsions:
REMARK  status: ('A' for Active; 'I' for Inactive)
REMARK    1  A    between atoms: C_3  and  O_25 
REMARK    2  A    between atoms: C_6  and  C_8 
REMARK    3  A    between atoms: C_10  and  C_21 
ROOT
ATOM      1  C   UNK d   1      20.125  62.506  -9.025  0.00  0.00     0.270 C 
ATOM      2  N   UNK d   1      20.281  63.301  -7.879  0.00  0.00    -0.047 N 
ATOM      3  C   UNK d   1      21.449  64.083  -7.724  0.00  0.00     0.291 C 
ATOM      4  C   UNK d   1      22.631  63.651  -8.549  0.00  0.00     0.086 C 
ATOM      5  C   UNK d   1      22.248  63.339  -9.947  0.00  0.00    -0.018 A 
ATOM      6  C   UNK d   1      22.899  63.500 -11.140  0.00  0.00    -0.001 A 
ATOM      7  C   UNK d   1      22.020  63.019 -12.095  0.00  0.00     0.043 A 
ATOM      8  N   UNK d   1      20.887  62.588 -11.478  0.00  0.00    -0.356 N 
ATOM      9  C   UNK d   1      21.024  62.783 -10.160  0.00  0.00     0.052 A 
ATOM     10  C   UNK d   1      22.440  63.067 -13.407  0.00  0.00     0.030 A 
ATOM     11  C   UNK d   1      23.676  63.570 -13.755  0.00  0.00     0.002 A 
ATOM     12  C   UNK d   1      24.550  64.050 -12.802  0.00  0.00     0.001 A 
ATOM     13  C   UNK d   1      24.145  64.009 -11.478  0.00  0.00     0.014 A 
ATOM     14  H   UNK d   1      19.443  63.931  -7.718  0.00  0.00     0.279 HD
ATOM     15  H   UNK d   1      20.219  62.655  -7.027  0.00  0.00     0.279 HD
ATOM     16  H   UNK d   1      20.096  62.186 -12.026  0.00  0.00     0.166 HD
ENDROOT
BRANCH   1  17
ATOM     17  C   UNK d   1      18.735  62.652  -9.540  0.00  0.00    -0.019 A 
ATOM     18  C   UNK d   1      18.124  63.880  -9.677  0.00  0.00     0.031 A 
ATOM     19  C   UNK d   1      16.834  63.891 -10.160  0.00  0.00     0.046 A 
ATOM     20  C   UNK d   1      16.135  62.755 -10.508  0.00  0.00     0.100 A 
ATOM     21 Br   UNK d   1      15.961  65.574 -10.361  0.00  0.00    -0.048 Br
ATOM     22  C   UNK d   1      16.750  61.534 -10.370  0.00  0.00     0.046 A 
ATOM     23 Br   UNK d   1      15.821  59.943 -10.839  0.00  0.00    -0.048 Br
ATOM     24  C   UNK d   1      18.060  61.500  -9.881  0.00  0.00     0.031 A 
BRANCH  20  25
ATOM     25  O   UNK d   1      14.816  62.851 -10.995  0.00  0.00    -0.358 OA
ATOM     26  H   UNK d   1      14.338  61.993 -11.230  0.00  0.00     0.217 HD
ENDBRANCH  20  25
ENDBRANCH   1  17
BRANCH   3  27
ATOM     27  C   UNK d   1      21.219  65.526  -8.007  0.00  0.00     0.205 C 
ATOM     28  O   UNK d   1      20.729  65.872  -9.137  0.00  0.00    -0.646 OA
ATOM     29  O   UNK d   1      21.540  66.474  -7.049  0.00  0.00    -0.646 OA
ENDBRANCH   3  27
TORSDOF 3
ENDMDL
