MODEL 1
REMARK VINA RESULT:    -8.810      0.000      0.000
REMARK INTER + INTRA:         -12.722
REMARK INTER:                 -11.900
REMARK INTRA:                  -0.822
REMARK UNBOUND:                -0.822
REMARK  7 active torsions:
REMARK  status: ('A' for Active; 'I' for Inactive)
REMARK    1  A    between atoms: C_3  and  O_30 
REMARK    2  A    between atoms: C_5  and  O_29 
REMARK    3  A    between atoms: C_7  and  C_8 
REMARK    4  A    between atoms: N_9  and  N_10 
REMARK    5  A    between atoms: N_10  and  C_11 
REMARK    6  A    between atoms: C_13  and  N_23 
REMARK    7  A    between atoms: C_15  and  N_17 
ROOT
ATOM      1  C   UNK d   1      21.168  64.412  -9.490  0.00  0.00     0.774 A 
ATOM      2  N   UNK d   1      21.811  64.449  -8.319  0.00  0.00     0.133 NA
ATOM      3  C   UNK d   1      23.120  64.100  -8.200  0.00  0.00     0.756 A 
ATOM      4  N   UNK d   1      23.786  63.704  -9.295  0.00  0.00     0.131 NA
ATOM      5  C   UNK d   1      23.169  63.655 -10.486  0.00  0.00     0.756 A 
ATOM      6  N   UNK d   1      21.853  64.013 -10.566  0.00  0.00     0.133 NA
ENDROOT
BRANCH   1   7
ATOM      7  N   UNK d   1      19.812  64.795  -9.547  0.00  0.00    -0.105 N 
ATOM      8  H   UNK d   1      19.594  65.808  -9.650  0.00  0.00     0.208 HD
BRANCH   7   9
ATOM      9  N   UNK d   1      18.758  63.842  -9.472  0.00  0.00    -0.172 NA
ATOM     10  C   UNK d   1      18.460  63.111 -10.495  0.00  0.00     0.152 C 
BRANCH  10  11
ATOM     11  C   UNK d   1      17.412  62.121 -10.516  0.00  0.00     0.006 A 
ATOM     12  C   UNK d   1      16.123  62.422 -10.888  0.00  0.00     0.056 A 
ATOM     13 Br   UNK d   1      15.754  64.223 -11.393  0.00  0.00    -0.047 Br
ATOM     14  C   UNK d   1      15.119  61.470 -10.899  0.00  0.00     0.086 A 
ATOM     15  C   UNK d   1      15.414  60.167 -10.527  0.00  0.00     0.074 A 
ATOM     16  C   UNK d   1      16.697  59.840 -10.150  0.00  0.00     0.069 A 
ATOM     17  C   UNK d   1      17.676  60.823 -10.152  0.00  0.00     0.051 A 
BRANCH  14  18
ATOM     18  O   UNK d   1      13.832  61.804 -11.278  0.00  0.00    -0.359 OA
ATOM     19  H   UNK d   1      13.088  61.149 -11.075  0.00  0.00     0.217 HD
ENDBRANCH  14  18
BRANCH  16  20
ATOM     20  O   UNK d   1      16.948  58.527  -9.785  0.00  0.00    -0.361 OA
ATOM     21  H   UNK d   1      17.451  57.864 -10.357  0.00  0.00     0.217 HD
ENDBRANCH  16  20
ENDBRANCH  10  11
ENDBRANCH   7   9
ENDBRANCH   1   7
BRANCH   3  22
ATOM     22  N   UNK d   1      23.700  64.172  -6.917  0.00  0.00    -0.209 N 
ATOM     23  C   UNK d   1      23.144  65.070  -5.941  0.00  0.00     0.167 C 
ATOM     24  C   UNK d   1      22.804  64.187  -4.730  0.00  0.00     0.188 C 
ATOM     25  O   UNK d   1      24.023  63.666  -4.296  0.00  0.00    -0.388 OA
ATOM     26  C   UNK d   1      24.551  62.749  -5.199  0.00  0.00     0.188 C 
ATOM     27  C   UNK d   1      24.845  63.375  -6.547  0.00  0.00     0.167 C 
ENDBRANCH   3  22
BRANCH   5  28
ATOM     28  N   UNK d   1      23.869  63.233 -11.655  0.00  0.00    -0.209 N 
ATOM     29  C   UNK d   1      25.234  62.766 -11.642  0.00  0.00     0.167 C 
ATOM     30  C   UNK d   1      26.030  63.398 -12.765  0.00  0.00     0.188 C 
ATOM     31  O   UNK d   1      25.274  64.283 -13.519  0.00  0.00    -0.388 OA
ATOM     32  C   UNK d   1      24.159  63.599 -14.043  0.00  0.00     0.188 C 
ATOM     33  C   UNK d   1      23.181  63.276 -12.930  0.00  0.00     0.167 C 
ENDBRANCH   5  28
TORSDOF 7
ENDMDL
