/Users/jonathanwahrer/Desktop/Msc/3_Semester/Drug_Design_Praktikum/waehrer_HTS_screening/HTS_experiment/out/docking_results/vina_output/3sx0/0035_docked.pdbqt
 OpenBabel03192221253D

 33 36  0  0  0  0  0  0  0  0999 V2000
   21.1680   64.4120   -9.4900 C   0  0  0  0  0  0  0  0  0  0  0  0
   21.8110   64.4490   -8.3190 N   0  0  0  0  0  4  0  0  0  0  0  0
   23.1200   64.1000   -8.2000 C   0  0  0  0  0  0  0  0  0  0  0  0
   23.7860   63.7040   -9.2950 N   0  0  0  0  0  0  0  0  0  0  0  0
   23.1690   63.6550  -10.4860 C   0  0  0  0  0  0  0  0  0  0  0  0
   21.8530   64.0130  -10.5660 N   0  0  0  0  0  2  0  0  0  0  0  0
   19.8120   64.7950   -9.5470 N   0  0  0  0  0  0  0  0  0  0  0  0
   19.5940   65.8080   -9.6500 H   0  0  0  0  0  0  0  0  0  0  0  0
   18.7580   63.8420   -9.4720 N   0  0  0  0  0  0  0  0  0  0  0  0
   18.4600   63.1110  -10.4950 C   0  0  0  0  0  3  0  0  0  0  0  0
   17.4120   62.1210  -10.5160 C   0  0  0  0  0  0  0  0  0  0  0  0
   16.1230   62.4220  -10.8880 C   0  0  0  0  0  0  0  0  0  0  0  0
   15.7540   64.2230  -11.3930 Br  0  0  0  0  0  0  0  0  0  0  0  0
   15.1190   61.4700  -10.8990 C   0  0  0  0  0  0  0  0  0  0  0  0
   15.4140   60.1670  -10.5270 C   0  0  0  0  0  3  0  0  0  0  0  0
   16.6970   59.8400  -10.1500 C   0  0  0  0  0  0  0  0  0  0  0  0
   17.6760   60.8230  -10.1520 C   0  0  0  0  0  3  0  0  0  0  0  0
   13.8320   61.8040  -11.2780 O   0  0  0  0  0  0  0  0  0  0  0  0
   13.0880   61.1490  -11.0750 H   0  0  0  0  0  0  0  0  0  0  0  0
   16.9480   58.5270   -9.7850 O   0  0  0  0  0  0  0  0  0  0  0  0
   17.4510   57.8640  -10.3570 H   0  0  0  0  0  0  0  0  0  0  0  0
   23.7000   64.1720   -6.9170 N   0  0  0  0  0  0  0  0  0  0  0  0
   23.1440   65.0700   -5.9410 C   0  0  0  0  0  2  0  0  0  0  0  0
   22.8040   64.1870   -4.7300 C   0  0  0  0  0  2  0  0  0  0  0  0
   24.0230   63.6660   -4.2960 O   0  0  0  0  0  0  0  0  0  0  0  0
   24.5510   62.7490   -5.1990 C   0  0  0  0  0  2  0  0  0  0  0  0
   24.8450   63.3750   -6.5470 C   0  0  0  0  0  2  0  0  0  0  0  0
   23.8690   63.2330  -11.6550 N   0  0  0  0  0  0  0  0  0  0  0  0
   25.2340   62.7660  -11.6420 C   0  0  0  0  0  2  0  0  0  0  0  0
   26.0300   63.3980  -12.7650 C   0  0  0  0  0  2  0  0  0  0  0  0
   25.2740   64.2830  -13.5190 O   0  0  0  0  0  0  0  0  0  0  0  0
   24.1590   63.5990  -14.0430 C   0  0  0  0  0  2  0  0  0  0  0  0
   23.1810   63.2760  -12.9300 C   0  0  0  0  0  2  0  0  0  0  0  0
  1  2  2  0  0  0  0
  2  3  2  0  0  0  0
  3 22  1  0  0  0  0
  4  3  1  0  0  0  0
  5  4  2  0  0  0  0
  6  5  1  0  0  0  0
  6  1  1  0  0  0  0
  7  1  1  0  0  0  0
  7  9  1  0  0  0  0
  8  7  1  0  0  0  0
 10  9  2  0  0  0  0
 11 10  1  0  0  0  0
 11 17  1  0  0  0  0
 12 11  2  0  0  0  0
 13 12  1  0  0  0  0
 14 12  1  0  0  0  0
 14 15  2  0  0  0  0
 15 16  1  0  0  0  0
 16 20  1  0  0  0  0
 17 16  2  0  0  0  0
 18 19  1  0  0  0  0
 18 14  1  0  0  0  0
 21 20  1  0  0  0  0
 22 27  1  0  0  0  0
 22 23  1  0  0  0  0
 23 24  1  0  0  0  0
 24 25  1  0  0  0  0
 26 25  1  0  0  0  0
 27 26  1  0  0  0  0
 28 29  1  0  0  0  0
 28  5  1  0  0  0  0
 30 29  1  0  0  0  0
 31 30  1  0  0  0  0
 32 31  1  0  0  0  0
 32 33  1  0  0  0  0
 33 28  1  0  0  0  0
M  END
>  <Pose>
1

>  <Score>
-8.810

$$$$
