MODEL 1
REMARK VINA RESULT:    -7.153      0.000      0.000
REMARK INTER + INTRA:          -8.614
REMARK INTER:                  -8.407
REMARK INTRA:                  -0.206
REMARK UNBOUND:                -0.206
REMARK  3 active torsions:
REMARK  status: ('A' for Active; 'I' for Inactive)
REMARK    1  A    between atoms: C_3  and  N_9 
REMARK       I    between atoms: N_9  and  C_10 
REMARK    2  A    between atoms: C_10  and  C_12 
REMARK    3  A    between atoms: C_12  and  N_13 
ROOT
ATOM      1  N   UNK d   1      18.840  63.087  -9.285  0.00  0.00    -0.325 N 
ATOM      2  C   UNK d   1      20.104  63.333  -9.824  0.00  0.00     0.248 C 
ATOM      3  O   UNK d   1      20.242  63.792 -10.967  0.00  0.00    -0.271 OA
ATOM      4  H   UNK d   1      18.825  62.694  -8.297  0.00  0.00     0.169 HD
ENDROOT
BRANCH   2   5
ATOM      5  C   UNK d   1      21.298  63.037  -9.008  0.00  0.00     0.340 C 
BRANCH   5   6
ATOM      6  N   UNK d   1      21.656  64.025  -8.043  0.00  0.00    -0.054 N 
ATOM      7  C   UNK d   1      23.069  63.812  -7.694  0.00  0.00     0.268 C 
ATOM      8  C   UNK d   1      23.604  65.126  -7.182  0.00  0.00     0.300 C 
ATOM      9  N   UNK d   1      22.530  65.711  -6.378  0.00  0.00     0.093 N 
ATOM     10  C   UNK d   1      21.620  66.331  -7.336  0.00  0.00     0.300 C 
ATOM     11  C   UNK d   1      21.788  64.643  -5.726  0.00  0.00     0.300 C 
ATOM     12  C   UNK d   1      21.483  65.393  -8.526  0.00  0.00     0.268 C 
ATOM     13  C   UNK d   1      20.938  63.928  -6.789  0.00  0.00     0.268 C 
ENDBRANCH   5   6
ENDBRANCH   2   5
BRANCH   1  14
ATOM     14  C   UNK d   1      17.574  63.293  -9.879  0.00  0.00     0.052 A 
ATOM     15  C   UNK d   1      16.818  62.205 -10.337  0.00  0.00     0.038 A 
ATOM     16 Br   UNK d   1      17.611  60.469 -10.104  0.00  0.00    -0.049 Br
ATOM     17  C   UNK d   1      15.583  62.342 -10.922  0.00  0.00     0.028 A 
ATOM     18  C   UNK d   1      15.003  63.576 -11.096  0.00  0.00    -0.061 A 
ATOM     19  C   UNK d   1      15.725  64.658 -10.655  0.00  0.00     0.009 A 
ATOM     20  C   UNK d   1      13.660  63.737 -11.731  0.00  0.00     0.048 C 
ATOM     21  C   UNK d   1      16.982  64.525 -10.060  0.00  0.00     0.031 A 
ENDBRANCH   1  14
TORSDOF 3
ENDMDL
