MODEL 1
REMARK VINA RESULT:    -1.518      0.000      0.000
REMARK INTER + INTRA:          -1.653
REMARK INTER:                  -1.651
REMARK INTRA:                  -0.002
REMARK UNBOUND:                -0.002
REMARK  2 active torsions:
REMARK  status: ('A' for Active; 'I' for Inactive)
REMARK    1  A    between atoms: C_3  and  C_8 
REMARK    2  A    between atoms: C_12  and  N_16 
ROOT
ATOM      1  C   UNK d   1      19.346  63.719  -8.526  0.00  0.00     0.084 A 
ATOM      2  C   UNK d   1      20.732  63.721  -8.359  0.00  0.00     0.166 A 
ATOM      3  C   UNK d   1      21.942  63.786  -9.223  0.00  0.00     0.295 C 
ATOM      4  N   UNK d   1      22.102  65.256  -9.083  0.00  0.00    -0.209 NA
ATOM      5  C   UNK d   1      20.920  65.788  -9.119  0.00  0.00     0.124 C 
ATOM      6  C   UNK d   1      19.981  64.724  -9.288  0.00  0.00     0.146 A 
ATOM      7  C   UNK d   1      19.929  64.400 -10.745  0.00  0.00     0.080 C 
ATOM      8  N   UNK d   1      19.862  64.145 -11.899  0.00  0.00    -0.196 NA
ATOM      9  O   UNK d   1      22.990  63.147  -8.552  0.00  0.00    -0.333 OA
ATOM     10  C   UNK d   1      23.550  62.249  -9.440  0.00  0.00     0.199 C 
ATOM     11  C   UNK d   1      23.188  62.854 -10.785  0.00  0.00     0.199 C 
ATOM     12  O   UNK d   1      21.889  63.328 -10.478  0.00  0.00    -0.333 OA
ATOM     13  C   UNK d   1      21.145  64.285  -7.024  0.00  0.00     0.080 C 
ATOM     14  N   UNK d   1      21.449  64.733  -5.974  0.00  0.00    -0.196 NA
ENDROOT
BRANCH   1  15
ATOM     15  C   UNK d   1      18.740  62.511  -9.145  0.00  0.00    -0.032 A 
ATOM     16  C   UNK d   1      17.543  62.556  -9.814  0.00  0.00     0.017 A 
ATOM     17 Br   UNK d   1      16.566  64.182 -10.018  0.00  0.00    -0.051 Br
ATOM     18  C   UNK d   1      17.042  61.381 -10.357  0.00  0.00     0.019 A 
ATOM     19  C   UNK d   1      17.726  60.166 -10.238  0.00  0.00     0.001 A 
ATOM     20  C   UNK d   1      18.923  60.144  -9.564  0.00  0.00     0.001 A 
ATOM     21  C   UNK d   1      19.420  61.322  -9.023  0.00  0.00     0.009 A 
ENDBRANCH   1  15
BRANCH   5  22
ATOM     22  N   UNK d   1      20.628  67.199  -9.006  0.00  0.00    -0.386 N 
ATOM     23  H   UNK d   1      20.966  67.875  -9.717  0.00  0.00     0.157 HD
ATOM     24  H   UNK d   1      20.072  67.563  -8.210  0.00  0.00     0.157 HD
ENDBRANCH   5  22
TORSDOF 2
ENDMDL
