MODEL 1
REMARK VINA RESULT:    -6.742      0.000      0.000
REMARK INTER + INTRA:          -8.457
REMARK INTER:                  -7.727
REMARK INTRA:                  -0.730
REMARK UNBOUND:                -0.730
REMARK  3 active torsions:
REMARK  status: ('A' for Active; 'I' for Inactive)
REMARK    1  A    between atoms: C_3  and  N_8 
REMARK    2  A    between atoms: C_12  and  C_20 
REMARK    3  A    between atoms: C_20  and  O_21 
ROOT
ATOM      1  N   UNK d   1      18.757  62.999 -10.147  0.00  0.00    -0.250 N 
ATOM      2  C   UNK d   1      19.461  62.804  -8.930  0.00  0.00     0.239 C 
ATOM      3  O   UNK d   1      18.924  62.757  -7.810  0.00  0.00    -0.272 OA
ATOM      4  C   UNK d   1      20.915  62.666  -9.172  0.00  0.00     0.135 C 
ATOM      5  C   UNK d   1      21.718  63.772  -8.580  0.00  0.00     0.113 C 
ATOM      6  O   UNK d   1      22.517  64.266  -9.645  0.00  0.00    -0.363 OA
ATOM      7  C   UNK d   1      21.451  64.465 -10.560  0.00  0.00     0.159 C 
ATOM      8  C   UNK d   1      21.027  62.996 -10.671  0.00  0.00     0.128 C 
ATOM      9  C   UNK d   1      19.676  62.861 -11.236  0.00  0.00     0.239 C 
ATOM     10  O   UNK d   1      19.350  62.664 -12.426  0.00  0.00    -0.272 OA
ATOM     11  C   UNK d   1      20.517  65.246  -9.721  0.00  0.00     0.005 C 
ATOM     12  C   UNK d   1      20.807  64.951  -8.455  0.00  0.00     0.012 C 
ENDROOT
BRANCH   1  13
ATOM     13  C   UNK d   1      17.383  63.292 -10.351  0.00  0.00     0.062 A 
ATOM     14  C   UNK d   1      16.412  62.332 -10.519  0.00  0.00     0.038 A 
ATOM     15 Br   UNK d   1      16.983  60.492 -10.467  0.00  0.00    -0.049 Br
ATOM     16  C   UNK d   1      15.085  62.643 -10.718  0.00  0.00     0.021 A 
ATOM     17  C   UNK d   1      14.662  63.944 -10.760  0.00  0.00     0.002 A 
ATOM     18  C   UNK d   1      15.616  64.941 -10.595  0.00  0.00     0.002 A 
ATOM     19  C   UNK d   1      16.943  64.611 -10.396  0.00  0.00     0.031 A 
ENDBRANCH   1  13
BRANCH   5  20
ATOM     20  C   UNK d   1      22.496  63.477  -7.368  0.00  0.00     0.207 C 
BRANCH  20  21
ATOM     21  O   UNK d   1      23.342  62.387  -7.646  0.00  0.00    -0.398 OA
ATOM     22  H   UNK d   1      23.344  61.762  -6.863  0.00  0.00     0.209 HD
ENDBRANCH  20  21
ENDBRANCH   5  20
TORSDOF 3
ENDMDL
