MODEL 1
REMARK VINA RESULT:    -6.251      0.000      0.000
REMARK INTER + INTRA:          -5.638
REMARK INTER:                  -7.347
REMARK INTRA:                   1.709
REMARK UNBOUND:                 1.709
REMARK  3 active torsions:
REMARK  status: ('A' for Active; 'I' for Inactive)
REMARK    1  A    between atoms: C_3  and  N_8 
REMARK    2  A    between atoms: C_13  and  C_17 
REMARK    3  A    between atoms: C_17  and  O_19 
ROOT
ATOM      1  N   UNK d   1      18.066  62.354  -9.627  0.00  0.00    -0.313 N 
ATOM      2  C   UNK d   1      18.381  63.219  -8.475  0.00  0.00     0.175 C 
ATOM      3  C   UNK d   1      19.769  63.571  -8.744  0.00  0.00     0.109 C 
ATOM      4  O   UNK d   1      19.973  64.666  -9.600  0.00  0.00    -0.364 OA
ATOM      5  C   UNK d   1      21.379  64.498  -9.717  0.00  0.00     0.160 C 
ATOM      6  C   UNK d   1      21.358  63.122 -10.396  0.00  0.00     0.134 C 
ATOM      7  C   UNK d   1      20.427  62.391  -9.479  0.00  0.00     0.135 C 
ATOM      8  C   UNK d   1      19.271  61.755 -10.088  0.00  0.00     0.233 C 
ATOM      9  O   UNK d   1      19.306  60.811 -10.905  0.00  0.00    -0.272 OA
ATOM     10  C   UNK d   1      21.762  64.402  -8.278  0.00  0.00     0.005 C 
ATOM     11  C   UNK d   1      20.667  63.922  -7.647  0.00  0.00     0.012 C 
ENDROOT
BRANCH   1  12
ATOM     12  C   UNK d   1      16.791  62.133 -10.211  0.00  0.00     0.054 A 
ATOM     13  C   UNK d   1      15.951  63.170 -10.578  0.00  0.00     0.037 A 
ATOM     14 Br   UNK d   1      16.436  64.974 -10.329  0.00  0.00    -0.049 Br
ATOM     15  C   UNK d   1      14.703  62.916 -11.151  0.00  0.00     0.021 A 
ATOM     16  C   UNK d   1      14.268  61.636 -11.370  0.00  0.00     0.002 A 
ATOM     17  C   UNK d   1      15.078  60.604 -11.017  0.00  0.00     0.002 A 
ATOM     18  C   UNK d   1      16.304  60.854 -10.455  0.00  0.00     0.031 A 
ENDBRANCH   1  12
BRANCH   6  19
ATOM     19  C   UNK d   1      20.701  63.359 -11.721  0.00  0.00     0.266 C 
ATOM     20  O   UNK d   1      19.557  63.821 -11.832  0.00  0.00    -0.265 OA
BRANCH  19  21
ATOM     21  O   UNK d   1      21.408  63.044 -12.874  0.00  0.00    -0.326 OA
ATOM     22  C   UNK d   1      22.840  63.083 -12.831  0.00  0.00     0.213 C 
ENDBRANCH  19  21
ENDBRANCH   6  19
TORSDOF 3
ENDMDL
