/Users/jonathanwahrer/Desktop/Msc/3_Semester/Drug_Design_Praktikum/waehrer_HTS_screening/HTS_experiment/out/docking_results/vina_output/3sx0/0081_docked.pdbqt
 OpenBabel03192221253D

 22 25  0  0  0  0  0  0  0  0999 V2000
   17.5170   63.7540  -10.4300 C   0  0  0  0  0  0  0  0  0  0  0  0
   17.9180   63.2540  -11.6120 N   0  0  0  0  0  0  0  0  0  0  0  0
   19.2510   63.2190  -11.6500 N   0  0  0  0  0  0  0  0  0  0  0  0
   19.7330   63.6990  -10.4850 C   0  0  0  0  0  0  0  0  0  0  0  0
   18.6490   64.0200   -9.7550 N   0  0  0  0  0  0  0  0  0  0  0  0
   21.1000   63.7600  -10.2950 C   0  0  0  0  0  0  0  0  0  0  0  0
   21.9980   63.3450  -11.2580 C   0  0  0  0  0  0  0  0  0  0  0  0
   23.2610   63.5110  -10.8160 N   0  0  0  0  0  0  0  0  0  0  0  0
   23.1850   64.0200   -9.6020 N   0  0  0  0  0  0  0  0  0  0  0  0
   21.8790   64.1890   -9.2400 C   0  0  0  0  0  3  0  0  0  0  0  0
   24.5020   63.2040  -11.5090 C   0  0  0  0  0  1  0  0  0  0  0  0
   21.4770   62.8730  -12.4050 N   0  0  0  0  0  0  0  0  0  0  0  0
   20.1300   62.8160  -12.5850 C   0  0  0  0  0  3  0  0  0  0  0  0
   16.1030   63.9680   -9.9640 C   0  0  0  0  0  2  0  0  0  0  0  0
   15.1760   63.9640  -11.0720 N   0  0  0  0  0  0  0  0  0  0  0  0
   14.4680   62.8980  -11.4680 C   0  0  0  0  0  0  0  0  0  0  0  0
   13.7170   63.3060  -12.5410 C   0  0  0  0  0  0  0  0  0  0  0  0
   14.4630   61.5170  -10.8870 C   0  0  0  0  0  1  0  0  0  0  0  0
   12.5030   62.2470  -13.5460 Br  0  0  0  0  0  0  0  0  0  0  0  0
   13.9840   64.6280  -12.7820 C   0  0  0  0  0  0  0  0  0  0  0  0
   14.8930   64.9920  -11.8490 N   0  0  0  0  0  0  0  0  0  0  0  0
   13.4010   65.5110  -13.8560 C   0  0  0  0  0  1  0  0  0  0  0  0
  1 14  1  0  0  0  0
  1  5  1  0  0  0  0
  2  1  2  0  0  0  0
  3  2  1  0  0  0  0
  3  4  1  0  0  0  0
  4  6  1  0  0  0  0
  4  5  2  0  0  0  0
  6 10  1  0  0  0  0
  7  8  1  0  0  0  0
  7  6  2  0  0  0  0
  8  9  1  0  0  0  0
  9 10  2  0  0  0  0
 11  8  1  0  0  0  0
 12  7  1  0  0  0  0
 13 12  2  0  0  0  0
 13  3  1  0  0  0  0
 15 14  1  0  0  0  0
 16 15  1  0  0  0  0
 16 18  1  0  0  0  0
 17 16  2  0  0  0  0
 19 17  1  0  0  0  0
 20 17  1  0  0  0  0
 20 21  2  0  0  0  0
 21 15  1  0  0  0  0
 22 20  1  0  0  0  0
M  END
>  <Pose>
1

>  <Score>
-7.469

$$$$
