MODEL 1
REMARK VINA RESULT:    -7.469      0.000      0.000
REMARK INTER + INTRA:          -8.693
REMARK INTER:                  -8.343
REMARK INTRA:                  -0.351
REMARK UNBOUND:                -0.351
REMARK  2 active torsions:
REMARK  status: ('A' for Active; 'I' for Inactive)
REMARK    1  A    between atoms: N_4  and  C_8 
REMARK    2  A    between atoms: C_8  and  C_9 
ROOT
ATOM      1  C   UNK d   1      17.517  63.754 -10.430  0.00  0.00     0.168 A 
ATOM      2  N   UNK d   1      17.918  63.254 -11.612  0.00  0.00    -0.148 NA
ATOM      3  N   UNK d   1      19.251  63.219 -11.650  0.00  0.00    -0.206 N 
ATOM      4  C   UNK d   1      19.733  63.699 -10.485  0.00  0.00     0.169 A 
ATOM      5  N   UNK d   1      18.649  64.020  -9.755  0.00  0.00    -0.209 NA
ATOM      6  C   UNK d   1      21.100  63.760 -10.295  0.00  0.00     0.079 A 
ATOM      7  C   UNK d   1      21.998  63.345 -11.258  0.00  0.00     0.162 A 
ATOM      8  N   UNK d   1      23.261  63.511 -10.816  0.00  0.00    -0.256 N 
ATOM      9  N   UNK d   1      23.185  64.020  -9.602  0.00  0.00    -0.182 NA
ATOM     10  C   UNK d   1      21.879  64.189  -9.240  0.00  0.00     0.158 A 
ATOM     11  C   UNK d   1      24.502  63.204 -11.509  0.00  0.00     0.182 C 
ATOM     12  N   UNK d   1      21.477  62.873 -12.405  0.00  0.00    -0.222 NA
ATOM     13  C   UNK d   1      20.130  62.816 -12.585  0.00  0.00     0.239 A 
ENDROOT
BRANCH   1  14
ATOM     14  C   UNK d   1      16.103  63.968  -9.964  0.00  0.00     0.233 C 
BRANCH  14  15
ATOM     15  N   UNK d   1      15.176  63.964 -11.072  0.00  0.00    -0.265 N 
ATOM     16  C   UNK d   1      14.468  62.898 -11.468  0.00  0.00     0.046 A 
ATOM     17  C   UNK d   1      13.717  63.306 -12.541  0.00  0.00     0.060 A 
ATOM     18  C   UNK d   1      14.463  61.517 -10.887  0.00  0.00     0.071 C 
ATOM     19 Br   UNK d   1      12.503  62.247 -13.546  0.00  0.00    -0.047 Br
ATOM     20  C   UNK d   1      13.984  64.628 -12.782  0.00  0.00     0.070 A 
ATOM     21  N   UNK d   1      14.893  64.992 -11.849  0.00  0.00    -0.176 NA
ATOM     22  C   UNK d   1      13.401  65.511 -13.856  0.00  0.00     0.074 C 
ENDBRANCH  14  15
ENDBRANCH   1  14
TORSDOF 2
ENDMDL
