MODEL 1
REMARK VINA RESULT:    -6.764      0.000      0.000
REMARK INTER + INTRA:          -8.609
REMARK INTER:                  -7.950
REMARK INTRA:                  -0.659
REMARK UNBOUND:                -0.659
REMARK  3 active torsions:
REMARK  status: ('A' for Active; 'I' for Inactive)
REMARK    1  A    between atoms: C_3  and  C_8 
REMARK       I    between atoms: C_8  and  N_10 
REMARK    2  A    between atoms: N_10  and  C_11 
REMARK    3  A    between atoms: C_17  and  N_20 
ROOT
ATOM      1  C   UNK d   1      14.580  63.917 -11.795  0.00  0.00     0.069 A 
ATOM      2  C   UNK d   1      14.907  62.638 -11.300  0.00  0.00     0.146 A 
ATOM      3  N   UNK d   1      14.146  61.519 -11.163  0.00  0.00    -0.101 NA
ATOM      4  O   UNK d   1      14.909  60.598 -10.658  0.00  0.00    -0.106 OA
ATOM      5  N   UNK d   1      16.107  61.054 -10.462  0.00  0.00    -0.101 NA
ATOM      6  C   UNK d   1      16.164  62.335 -10.848  0.00  0.00     0.146 A 
ATOM      7  C   UNK d   1      17.191  63.257 -10.848  0.00  0.00     0.064 A 
ATOM      8  C   UNK d   1      16.867  64.510 -11.333  0.00  0.00     0.034 A 
ATOM      9  C   UNK d   1      15.591  64.829 -11.795  0.00  0.00     0.034 A 
ENDROOT
BRANCH   1  10
ATOM     10  N   UNK d   1      13.246  64.115 -12.235  0.00  0.00    -0.319 N 
ATOM     11  C   UNK d   1      12.859  64.378 -13.546  0.00  0.00     0.275 C 
ATOM     12  O   UNK d   1      13.748  64.452 -14.474  0.00  0.00    -0.266 OA
ATOM     13  H   UNK d   1      12.451  64.052 -11.530  0.00  0.00     0.169 HD
BRANCH  11  14
ATOM     14  C   UNK d   1      11.457  64.584 -13.965  0.00  0.00     0.139 A 
ATOM     15  C   UNK d   1      10.777  65.746 -14.136  0.00  0.00     0.064 A 
ATOM     16 Br   UNK d   1      11.395  67.543 -13.948  0.00  0.00    -0.047 Br
ATOM     17  C   UNK d   1       9.466  65.397 -14.516  0.00  0.00     0.160 A 
ATOM     18  N   UNK d   1       9.449  64.069 -14.546  0.00  0.00    -0.183 NA
ATOM     19  N   UNK d   1      10.600  63.539 -14.230  0.00  0.00    -0.268 N 
ATOM     20  C   UNK d   1      10.916  62.136 -14.166  0.00  0.00     0.180 C 
ENDBRANCH  11  14
ENDBRANCH   1  10
BRANCH   7  21
ATOM     21  N   UNK d   1      18.487  62.962 -10.387  0.00  0.00    -0.375 N 
ATOM     22  C   UNK d   1      18.808  63.244  -8.990  0.00  0.00     0.149 C 
ATOM     23  C   UNK d   1      20.270  63.036  -8.704  0.00  0.00     0.187 C 
ATOM     24  O   UNK d   1      21.130  63.441  -9.671  0.00  0.00    -0.388 OA
ATOM     25  C   UNK d   1      20.721  63.391 -10.971  0.00  0.00     0.187 C 
ATOM     26  C   UNK d   1      19.585  62.400 -11.114  0.00  0.00     0.149 C 
ENDBRANCH   7  21
TORSDOF 3
ENDMDL
