/Users/jonathanwahrer/Desktop/Msc/3_Semester/Drug_Design_Praktikum/waehrer_HTS_screening/HTS_experiment/out/docking_results/vina_output/3sx0/0106_docked.pdbqt
 OpenBabel03192221263D

 29 32  0  0  0  0  0  0  0  0999 V2000
   23.2960   69.5590   -5.9690 C   0  0  0  0  0  3  0  0  0  0  0  0
   22.9290   68.3670   -6.3520 C   0  0  0  0  0  0  0  0  0  0  0  0
   23.6600   67.2110   -6.1270 O   0  0  0  0  0  0  0  0  0  0  0  0
   23.0300   66.0950   -6.6450 C   0  0  0  0  0  0  0  0  0  0  0  0
   21.8420   66.4450   -7.2460 C   0  0  0  0  0  0  0  0  0  0  0  0
   21.0500   65.4790   -7.8300 C   0  0  0  0  0  3  0  0  0  0  0  0
   21.4600   64.1630   -7.8090 C   0  0  0  0  0  3  0  0  0  0  0  0
   22.6800   63.8310   -7.1880 C   0  0  0  0  0  0  0  0  0  0  0  0
   23.4770   64.7670   -6.6030 C   0  0  0  0  0  0  0  0  0  0  0  0
   22.9670   62.4580   -7.2440 O   0  0  0  0  0  1  0  0  0  0  0  0
   21.7430   67.8990   -7.0760 C   0  0  0  0  0  0  0  0  0  0  0  0
   20.8110   68.6300   -7.4760 O   0  0  0  0  0  0  0  0  0  0  0  0
   24.5140   69.8980   -5.2530 C   0  0  0  0  0  0  0  0  0  0  0  0
   24.7210   69.5700   -3.9310 C   0  0  0  0  0  3  0  0  0  0  0  0
   25.8510   69.8910   -3.2350 C   0  0  0  0  0  0  0  0  0  0  0  0
   26.1690   69.4540   -1.4090 Br  0  0  0  0  0  0  0  0  0  0  0  0
   26.8420   70.5910   -3.9170 C   0  0  0  0  0  3  0  0  0  0  0  0
   26.6890   70.9500   -5.2510 C   0  0  0  0  0  3  0  0  0  0  0  0
   25.5350   70.6020   -5.8970 C   0  0  0  0  0  0  0  0  0  0  0  0
   25.3500   70.9480   -7.2210 O   0  0  0  0  0  0  0  0  0  0  0  0
   26.3470   71.6490   -7.9180 C   0  0  0  0  0  1  0  0  0  0  0  0
   24.7200   64.4840   -5.9400 C   0  0  0  0  0  2  0  0  0  0  0  0
   25.0370   63.2180   -5.4180 N   0  0  0  0  0  4  0  0  0  0  0  0
   26.3510   63.0840   -4.8510 C   0  0  0  0  0  2  0  0  0  0  0  0
   26.4640   63.5860   -3.4330 C   0  0  0  0  0  2  0  0  0  0  0  0
   25.3100   64.2020   -2.9680 O   0  0  0  0  0  0  0  0  0  0  0  0
   24.2980   63.2520   -3.0530 C   0  0  0  0  0  2  0  0  0  0  0  0
   24.0410   62.7500   -4.4360 C   0  0  0  0  0  2  0  0  0  0  0  0
   24.9510   62.5070   -6.1740 H   0  0  0  0  0  0  0  0  0  0  0  0
  1 13  1  0  0  0  0
  2  3  1  0  0  0  0
  2  1  2  0  0  0  0
  4  9  1  0  0  0  0
  4  3  1  0  0  0  0
  5 11  1  0  0  0  0
  5  4  2  0  0  0  0
  6  7  2  0  0  0  0
  6  5  1  0  0  0  0
  7  8  1  0  0  0  0
  8  9  2  0  0  0  0
  9 22  1  0  0  0  0
 10  8  1  0  0  0  0
 11  2  1  0  0  0  0
 12 11  2  0  0  0  0
 13 14  1  0  0  0  0
 14 15  2  0  0  0  0
 15 16  1  0  0  0  0
 17 15  1  0  0  0  0
 18 17  2  0  0  0  0
 19 13  2  0  0  0  0
 19 18  1  0  0  0  0
 20 19  1  0  0  0  0
 21 20  1  0  0  0  0
 22 23  1  0  0  0  0
 23 24  1  0  0  0  0
 23 28  1  0  0  0  0
 24 25  1  0  0  0  0
 25 26  1  0  0  0  0
 27 26  1  0  0  0  0
 28 27  1  0  0  0  0
 29 23  1  0  0  0  0
M  END
>  <Pose>
1

>  <Score>
-4.802

$$$$
