MODEL 1
REMARK VINA RESULT:    -8.139      0.000      0.000
REMARK INTER + INTRA:         -10.412
REMARK INTER:                 -10.042
REMARK INTRA:                  -0.370
REMARK UNBOUND:                -0.370
REMARK  4 active torsions:
REMARK  status: ('A' for Active; 'I' for Inactive)
REMARK    1  A    between atoms: C_4  and  C_8 
REMARK    2  A    between atoms: C_8  and  C_10 
REMARK    3  A    between atoms: C_10  and  N_11 
REMARK    4  A    between atoms: N_14  and  C_17 
ROOT
ATOM      1  N   UNK d   1      22.013  63.460  -9.284  0.00  0.00    -0.402 N 
ATOM      2  C   UNK d   1      21.544  64.121 -10.444  0.00  0.00     0.137 C 
ATOM      3  C   UNK d   1      20.222  63.689 -10.951  0.00  0.00     0.143 C 
ATOM      4  N   UNK d   1      19.238  63.716  -9.916  0.00  0.00    -0.362 N 
ATOM      5  C   UNK d   1      19.678  63.666  -8.552  0.00  0.00     0.143 C 
ATOM      6  C   UNK d   1      21.026  63.010  -8.366  0.00  0.00     0.137 C 
ENDROOT
BRANCH   4   7
ATOM      7  C   UNK d   1      17.846  63.764 -10.193  0.00  0.00     0.135 A 
ATOM      8  C   UNK d   1      17.194  62.610 -10.317  0.00  0.00     0.125 A 
ATOM      9  N   UNK d   1      17.550  61.241 -10.240  0.00  0.00    -0.291 N 
ATOM     10  C   UNK d   1      15.745  62.705 -10.604  0.00  0.00     0.113 A 
ATOM     11  N   UNK d   1      16.350  60.532 -10.474  0.00  0.00    -0.300 N 
ATOM     12  C   UNK d   1      18.860  60.694  -9.980  0.00  0.00     0.178 C 
ATOM     13  C   UNK d   1      15.303  61.459 -10.686  0.00  0.00     0.053 A 
ATOM     14  H   UNK d   1      16.319  59.492 -10.475  0.00  0.00     0.187 HD
ATOM     15  C   UNK d   1      13.877  61.142 -10.966  0.00  0.00     0.072 C 
ATOM     16  N   UNK d   1      15.128  63.981 -10.732  0.00  0.00    -0.240 NA
ATOM     17  C   UNK d   1      15.805  65.068 -10.603  0.00  0.00     0.209 A 
ATOM     18  N   UNK d   1      17.186  65.040 -10.329  0.00  0.00    -0.335 N 
ATOM     19  H   UNK d   1      17.771  65.885 -10.217  0.00  0.00     0.168 HD
ENDBRANCH   4   7
BRANCH   1  20
ATOM     20  C   UNK d   1      23.220  63.933  -8.728  0.00  0.00     0.200 C 
BRANCH  20  21
ATOM     21  C   UNK d   1      23.055  64.673  -7.476  0.00  0.00     0.176 C 
ATOM     22  O   UNK d   1      22.493  65.798  -7.499  0.00  0.00    -0.291 OA
BRANCH  21  23
ATOM     23  C   UNK d   1      23.548  64.085  -6.235  0.00  0.00     0.013 A 
ATOM     24  C   UNK d   1      24.726  63.385  -6.213  0.00  0.00     0.034 A 
ATOM     25  C   UNK d   1      25.224  62.811  -5.050  0.00  0.00     0.011 A 
ATOM     26 Br   UNK d   1      26.861  61.842  -5.022  0.00  0.00    -0.051 Br
ATOM     27  C   UNK d   1      24.512  62.948  -3.878  0.00  0.00     0.019 A 
ATOM     28  C   UNK d   1      23.320  63.660  -3.915  0.00  0.00     0.002 A 
ATOM     29  C   UNK d   1      22.834  64.224  -5.067  0.00  0.00     0.015 A 
ENDBRANCH  21  23
ENDBRANCH  20  21
ENDBRANCH   1  20
TORSDOF 4
ENDMDL
