MODEL 1
REMARK VINA RESULT:    -8.999      0.000      0.000
REMARK INTER + INTRA:         -10.972
REMARK INTER:                 -10.578
REMARK INTRA:                  -0.394
REMARK UNBOUND:                -0.394
REMARK  3 active torsions:
REMARK  status: ('A' for Active; 'I' for Inactive)
REMARK    1  A    between atoms: C_4  and  C_8 
REMARK       I    between atoms: C_8  and  N_10 
REMARK    2  A    between atoms: N_10  and  C_11 
REMARK    3  A    between atoms: C_11  and  C_13 
REMARK       I    between atoms: C_13  and  N_15 
ROOT
ATOM      1  C   UNK d   1      15.946  62.993 -10.909  0.00  0.00     0.242 C 
ATOM      2  O   UNK d   1      15.140  62.098 -10.503  0.00  0.00    -0.271 OA
ATOM      3  N   UNK d   1      17.351  62.758 -10.902  0.00  0.00    -0.350 N 
ATOM      4  C   UNK d   1      18.312  63.791 -11.193  0.00  0.00     0.129 C 
ATOM      5  C   UNK d   1      19.048  63.967  -9.843  0.00  0.00     0.068 C 
ATOM      6  C   UNK d   1      19.924  62.749  -9.727  0.00  0.00     0.204 C 
ATOM      7  N   UNK d   1      20.350  62.678  -8.330  0.00  0.00     0.099 N 
ATOM      8  C   UNK d   1      21.016  63.845  -7.887  0.00  0.00     0.277 C 
ATOM      9  C   UNK d   1      22.322  64.100  -8.617  0.00  0.00     0.091 C 
ATOM     10  C   UNK d   1      22.259  63.662 -10.023  0.00  0.00     0.062 A 
ATOM     11  N   UNK d   1      23.182  63.779 -10.992  0.00  0.00    -0.246 NA
ATOM     12  C   UNK d   1      22.667  63.219 -12.109  0.00  0.00     0.207 A 
ATOM     13  N   UNK d   1      21.424  62.761 -11.815  0.00  0.00    -0.350 N 
ATOM     14  C   UNK d   1      21.141  63.025 -10.524  0.00  0.00     0.074 A 
ATOM     15  C   UNK d   1      19.273  61.458 -10.078  0.00  0.00     0.068 C 
ATOM     16  C   UNK d   1      17.871  61.476 -10.585  0.00  0.00     0.129 C 
ATOM     17  H   UNK d   1      20.887  61.797  -8.125  0.00  0.00     0.317 HD
ATOM     18  H   UNK d   1      20.871  62.292 -12.560  0.00  0.00     0.166 HD
ENDROOT
BRANCH   1  19
ATOM     19  C   UNK d   1      15.358  64.247 -11.355  0.00  0.00     0.173 C 
ATOM     20  C   UNK d   1      15.375  65.256 -10.218  0.00  0.00     0.042 C 
BRANCH  19  21
ATOM     21  N   UNK d   1      14.109  64.107 -12.010  0.00  0.00    -0.344 N 
ATOM     22  C   UNK d   1      13.768  64.699 -13.222  0.00  0.00     0.252 C 
ATOM     23  O   UNK d   1      14.426  65.392 -13.979  0.00  0.00    -0.268 OA
ATOM     24  H   UNK d   1      13.415  63.453 -11.538  0.00  0.00     0.163 HD
BRANCH  22  25
ATOM     25  C   UNK d   1      12.341  64.434 -13.639  0.00  0.00     0.033 A 
ATOM     26  C   UNK d   1      12.079  63.230 -14.256  0.00  0.00     0.036 A 
ATOM     27  C   UNK d   1      10.803  62.959 -14.689  0.00  0.00     0.011 A 
ATOM     28 Br   UNK d   1      10.426  61.271 -15.540  0.00  0.00    -0.051 Br
ATOM     29  C   UNK d   1       9.769  63.858 -14.530  0.00  0.00     0.019 A 
ATOM     30  C   UNK d   1      10.091  65.063 -13.902  0.00  0.00     0.002 A 
ATOM     31  C   UNK d   1      11.354  65.350 -13.461  0.00  0.00     0.017 A 
ENDBRANCH  22  25
ENDBRANCH  19  21
ENDBRANCH   1  19
TORSDOF 3
ENDMDL
