/Users/jonathanwahrer/Desktop/Msc/3_Semester/Drug_Design_Praktikum/waehrer_HTS_screening/HTS_experiment/out/docking_results/vina_output/3sx0/0129_docked.pdbqt
 OpenBabel03192221273D

 31 34  0  0  1  0  0  0  0  0999 V2000
   15.9460   62.9930  -10.9090 C   0  0  0  0  0  0  0  0  0  0  0  0
   15.1400   62.0980  -10.5030 O   0  0  0  0  0  0  0  0  0  0  0  0
   17.3510   62.7580  -10.9020 N   0  0  0  0  0  0  0  0  0  0  0  0
   18.3120   63.7910  -11.1930 C   0  0  0  0  0  2  0  0  0  0  0  0
   19.0480   63.9670   -9.8430 C   0  0  0  0  0  2  0  0  0  0  0  0
   19.9240   62.7490   -9.7270 C   0  0  2  0  0  0  0  0  0  0  0  0
   20.3500   62.6780   -8.3300 N   0  0  0  0  0  0  0  0  0  0  0  0
   21.0160   63.8450   -7.8870 C   0  0  0  0  0  2  0  0  0  0  0  0
   22.3220   64.1000   -8.6170 C   0  0  0  0  0  2  0  0  0  0  0  0
   22.2590   63.6620  -10.0230 C   0  0  0  0  0  0  0  0  0  0  0  0
   23.1820   63.7790  -10.9920 N   0  0  0  0  0  0  0  0  0  0  0  0
   22.6670   63.2190  -12.1090 C   0  0  0  0  0  3  0  0  0  0  0  0
   21.4240   62.7610  -11.8150 N   0  0  0  0  0  0  0  0  0  0  0  0
   21.1410   63.0250  -10.5240 C   0  0  0  0  0  0  0  0  0  0  0  0
   19.2730   61.4580  -10.0780 C   0  0  0  0  0  3  0  0  0  0  0  0
   17.8710   61.4760  -10.5850 C   0  0  0  0  0  3  0  0  0  0  0  0
   20.8870   61.7970   -8.1250 H   0  0  0  0  0  0  0  0  0  0  0  0
   20.8710   62.2920  -12.5600 H   0  0  0  0  0  0  0  0  0  0  0  0
   15.3580   64.2470  -11.3550 C   0  0  2  0  0  3  0  0  0  0  0  0
   15.3750   65.2560  -10.2180 C   0  0  0  0  0  1  0  0  0  0  0  0
   14.1090   64.1070  -12.0100 N   0  0  0  0  0  0  0  0  0  0  0  0
   13.7680   64.6990  -13.2220 C   0  0  0  0  0  0  0  0  0  0  0  0
   14.4260   65.3920  -13.9790 O   0  0  0  0  0  0  0  0  0  0  0  0
   13.4150   63.4530  -11.5380 H   0  0  0  0  0  0  0  0  0  0  0  0
   12.3410   64.4340  -13.6390 C   0  0  0  0  0  0  0  0  0  0  0  0
   12.0790   63.2300  -14.2560 C   0  0  0  0  0  3  0  0  0  0  0  0
   10.8030   62.9590  -14.6890 C   0  0  0  0  0  0  0  0  0  0  0  0
   10.4260   61.2710  -15.5400 Br  0  0  0  0  0  0  0  0  0  0  0  0
    9.7690   63.8580  -14.5300 C   0  0  0  0  0  3  0  0  0  0  0  0
   10.0910   65.0630  -13.9020 C   0  0  0  0  0  3  0  0  0  0  0  0
   11.3540   65.3500  -13.4610 C   0  0  0  0  0  3  0  0  0  0  0  0
  1  3  1  0  0  0  0
  1  2  2  0  0  0  0
  3 16  1  0  0  0  0
  4  3  1  0  0  0  0
  4  5  1  0  0  0  0
  5  6  1  0  0  0  0
  6 15  1  6  0  0  0
  6  7  1  0  0  0  0
  7 17  1  0  0  0  0
  7  8  1  0  0  0  0
  9  8  1  0  0  0  0
 10  9  1  0  0  0  0
 11 10  1  0  0  0  0
 12 13  1  0  0  0  0
 12 11  2  0  0  0  0
 13 14  1  0  0  0  0
 14 10  2  0  0  0  0
 14  6  1  0  0  0  0
 16 15  2  0  0  0  0
 18 13  1  0  0  0  0
 19  1  1  0  0  0  0
 19 20  1  1  0  0  0
 21 24  1  0  0  0  0
 21 19  1  0  0  0  0
 22 21  1  0  0  0  0
 23 22  2  0  0  0  0
 25 31  1  0  0  0  0
 25 22  1  0  0  0  0
 26 25  2  0  0  0  0
 27 29  2  0  0  0  0
 27 26  1  0  0  0  0
 28 27  1  0  0  0  0
 29 30  1  0  0  0  0
 30 31  2  0  0  0  0
M  END
>  <Pose>
1

>  <Score>
-8.999

$$$$
