MODEL 1
REMARK VINA RESULT:    -7.346      0.000      0.000
REMARK INTER + INTRA:          -9.112
REMARK INTER:                  -8.634
REMARK INTRA:                  -0.478
REMARK UNBOUND:                -0.478
REMARK  3 active torsions:
REMARK  status: ('A' for Active; 'I' for Inactive)
REMARK    1  A    between atoms: C_4  and  C_8 
REMARK       I    between atoms: C_8  and  N_10 
REMARK    2  A    between atoms: N_10  and  C_11 
REMARK    3  A    between atoms: C_11  and  C_12 
REMARK       I    between atoms: C_12  and  N_14 
ROOT
ATOM      1  C   UNK d   1      13.145  65.825 -14.687  0.00  0.00     0.237 C 
ATOM      2  O   UNK d   1      14.408  65.637 -14.577  0.00  0.00    -0.272 OA
ATOM      3  N   UNK d   1      12.605  66.551 -15.757  0.00  0.00    -0.351 N 
ATOM      4  C   UNK d   1      11.205  66.784 -15.909  0.00  0.00     0.129 C 
ATOM      5  C   UNK d   1      10.900  68.137 -16.486  0.00  0.00     0.068 C 
ATOM      6  C   UNK d   1      12.001  69.162 -16.319  0.00  0.00     0.204 C 
ATOM      7  N   UNK d   1      11.596  70.251 -17.196  0.00  0.00     0.099 N 
ATOM      8  C   UNK d   1      12.337  71.448 -17.086  0.00  0.00     0.277 C 
ATOM      9  C   UNK d   1      13.157  71.649 -15.864  0.00  0.00     0.091 C 
ATOM     10  C   UNK d   1      12.593  70.910 -14.692  0.00  0.00     0.062 A 
ATOM     11  N   UNK d   1      12.529  71.214 -13.396  0.00  0.00    -0.246 NA
ATOM     12  C   UNK d   1      11.911  70.171 -12.804  0.00  0.00     0.207 A 
ATOM     13  N   UNK d   1      11.597  69.230 -13.722  0.00  0.00    -0.350 N 
ATOM     14  C   UNK d   1      12.026  69.685 -14.934  0.00  0.00     0.074 A 
ATOM     15  C   UNK d   1      13.368  68.658 -16.703  0.00  0.00     0.068 C 
ATOM     16  C   UNK d   1      13.453  67.144 -16.784  0.00  0.00     0.129 C 
ATOM     17  H   UNK d   1      11.668  69.833 -18.168  0.00  0.00     0.317 HD
ATOM     18  H   UNK d   1      11.120  68.334 -13.528  0.00  0.00     0.166 HD
ENDROOT
BRANCH   1  19
ATOM     19  C   UNK d   1      12.323  65.206 -13.585  0.00  0.00     0.225 C 
BRANCH  19  20
ATOM     20  N   UNK d   1      12.995  64.157 -12.977  0.00  0.00    -0.348 N 
ATOM     21  C   UNK d   1      13.635  63.155 -12.397  0.00  0.00     0.252 C 
ATOM     22  O   UNK d   1      13.398  61.899 -12.482  0.00  0.00    -0.268 OA
ATOM     23  H   UNK d   1      12.118  63.268 -13.574  0.00  0.00     0.163 HD
BRANCH  21  24
ATOM     24  C   UNK d   1      14.806  63.480 -11.508  0.00  0.00     0.033 A 
ATOM     25  C   UNK d   1      15.775  62.552 -11.234  0.00  0.00     0.036 A 
ATOM     26  C   UNK d   1      16.831  62.852 -10.387  0.00  0.00     0.011 A 
ATOM     27 Br   UNK d   1      18.148  61.545 -10.044  0.00  0.00    -0.051 Br
ATOM     28  C   UNK d   1      16.865  64.108  -9.835  0.00  0.00     0.019 A 
ATOM     29  C   UNK d   1      15.885  65.042 -10.114  0.00  0.00     0.002 A 
ATOM     30  C   UNK d   1      14.824  64.731 -10.970  0.00  0.00     0.017 A 
ENDBRANCH  21  24
ENDBRANCH  19  20
ENDBRANCH   1  19
TORSDOF 3
ENDMDL
