MODEL 1
REMARK VINA RESULT:    -7.042      0.000      0.000
REMARK INTER + INTRA:          -8.172
REMARK INTER:                  -7.866
REMARK INTRA:                  -0.306
REMARK UNBOUND:                -0.306
REMARK  2 active torsions:
REMARK  status: ('A' for Active; 'I' for Inactive)
REMARK    1  A    between atoms: C_4  and  C_8 
REMARK       I    between atoms: C_8  and  N_10 
REMARK    2  A    between atoms: N_10  and  C_11 
ROOT
ATOM      1  C   UNK d   1      13.006  64.506 -13.056  0.00  0.00     0.105 C 
ATOM      2  C   UNK d   1      11.846  64.041 -13.872  0.00  0.00     0.152 C 
ATOM      3  N   UNK d   1      11.320  65.296 -14.437  0.00  0.00    -0.335 N 
ATOM      4  C   UNK d   1      12.296  66.357 -14.238  0.00  0.00     0.181 C 
ATOM      5  C   UNK d   1      13.567  65.614 -13.961  0.00  0.00     0.061 C 
ATOM      6  C   UNK d   1      12.326  67.174 -15.448  0.00  0.00     0.243 C 
ATOM      7  O   UNK d   1      13.382  67.671 -15.857  0.00  0.00    -0.271 OA
ATOM      8  N   UNK d   1      11.113  67.406 -16.176  0.00  0.00    -0.337 N 
ATOM      9  C   UNK d   1       9.891  67.022 -15.512  0.00  0.00     0.179 C 
ATOM     10  C   UNK d   1       8.736  67.220 -16.405  0.00  0.00     0.037 C 
ATOM     11  C   UNK d   1       9.300  68.145 -17.466  0.00  0.00     0.022 C 
ATOM     12  C   UNK d   1      10.778  67.947 -17.458  0.00  0.00     0.127 C 
ATOM     13  C   UNK d   1      10.092  65.591 -15.097  0.00  0.00     0.243 C 
ATOM     14  O   UNK d   1       9.229  64.712 -15.320  0.00  0.00    -0.271 OA
ENDROOT
BRANCH   1  15
ATOM     15  N   UNK d   1      13.967  63.513 -12.747  0.00  0.00    -0.351 N 
ATOM     16  C   UNK d   1      14.434  63.361 -11.423  0.00  0.00     0.252 C 
ATOM     17  O   UNK d   1      13.981  64.132 -10.506  0.00  0.00    -0.268 OA
ATOM     18  H   UNK d   1      14.336  62.888 -13.486  0.00  0.00     0.163 HD
BRANCH  16  19
ATOM     19  C   UNK d   1      15.414  62.381 -10.987  0.00  0.00     0.033 A 
ATOM     20  C   UNK d   1      16.704  62.711 -10.654  0.00  0.00     0.036 A 
ATOM     21  C   UNK d   1      17.639  61.797 -10.242  0.00  0.00     0.011 A 
ATOM     22 Br   UNK d   1      19.418  62.291  -9.790  0.00  0.00    -0.051 Br
ATOM     23  C   UNK d   1      17.285  60.468 -10.148  0.00  0.00     0.019 A 
ATOM     24  C   UNK d   1      15.993  60.087 -10.473  0.00  0.00     0.002 A 
ATOM     25  C   UNK d   1      15.067  61.055 -10.891  0.00  0.00     0.017 A 
ENDBRANCH  16  19
ENDBRANCH   1  15
TORSDOF 2
ENDMDL
