/Users/jonathanwahrer/Desktop/Msc/3_Semester/Drug_Design_Praktikum/waehrer_HTS_screening/HTS_experiment/out/docking_results/vina_output/3sx0/0141_docked.pdbqt
 OpenBabel03192221283D

 23 26  0  0  1  0  0  0  0  0999 V2000
   21.0200   63.5320  -11.7030 N   0  0  0  0  0  0  0  0  0  0  0  0
   20.9430   64.2130  -10.4360 C   0  0  0  0  0  0  0  0  0  0  0  0
   21.8480   64.8950   -9.8590 O   0  0  0  0  0  0  0  0  0  0  0  0
   19.6190   64.0020   -9.8830 C   0  0  1  0  0  3  0  0  0  0  0  0
   18.7240   63.5670  -11.0610 C   0  0  2  0  0  3  0  0  0  0  0  0
   17.8300   62.4990  -10.5210 C   0  0  2  0  0  3  0  0  0  0  0  0
   17.9360   62.7340   -9.0010 C   0  0  0  0  0  2  0  0  0  0  0  0
   19.4790   62.7510   -9.0270 C   0  0  1  0  0  3  0  0  0  0  0  0
   19.7120   61.5260   -9.8450 C   0  0  0  0  0  2  0  0  0  0  0  0
   18.6200   61.2150  -10.5560 C   0  0  0  0  0  2  0  0  0  0  0  0
   19.7830   62.9130  -11.9270 C   0  0  0  0  0  0  0  0  0  0  0  0
   19.5560   61.9650  -12.7110 O   0  0  0  0  0  0  0  0  0  0  0  0
   22.1980   63.5640  -12.4740 N   0  0  0  0  0  0  0  0  0  0  0  0
   23.4670   63.1360  -12.0470 C   0  0  0  0  0  0  0  0  0  0  0  0
   23.6400   62.6770  -10.9040 O   0  0  0  0  0  0  0  0  0  0  0  0
   22.1600   63.9420  -13.4730 H   0  0  0  0  0  0  0  0  0  0  0  0
   24.6230   63.2130  -12.9180 C   0  0  0  0  0  0  0  0  0  0  0  0
   24.4300   63.1890  -14.2970 C   0  0  0  0  0  3  0  0  0  0  0  0
   25.4950   63.2650  -15.1590 C   0  0  0  0  0  0  0  0  0  0  0  0
   25.1590   63.2200  -17.0320 Br  0  0  0  0  0  0  0  0  0  0  0  0
   26.7960   63.3700  -14.6830 C   0  0  0  0  0  3  0  0  0  0  0  0
   26.9610   63.3920  -13.3190 C   0  0  0  0  0  3  0  0  0  0  0  0
   25.8960   63.3160  -12.4490 C   0  0  0  0  0  3  0  0  0  0  0  0
  1  2  1  0  0  0  0
  2  3  2  0  0  0  0
  4  2  1  6  0  0  0
  4  8  1  0  0  0  0
  5 11  1  6  0  0  0
  5  6  1  0  0  0  0
  5  4  1  0  0  0  0
  6 10  1  1  0  0  0
  6  7  1  0  0  0  0
  8  9  1  6  0  0  0
  8  7  1  0  0  0  0
 10  9  1  0  0  0  0
 11  1  1  0  0  0  0
 12 11  2  0  0  0  0
 13 14  1  0  0  0  0
 13  1  1  0  0  0  0
 14 15  2  0  0  0  0
 16 13  1  0  0  0  0
 17 23  1  0  0  0  0
 17 14  1  0  0  0  0
 18 17  2  0  0  0  0
 19 21  2  0  0  0  0
 19 18  1  0  0  0  0
 20 19  1  0  0  0  0
 21 22  1  0  0  0  0
 22 23  2  0  0  0  0
M  END
>  <Pose>
1

>  <Score>
-8.436

$$$$
