MODEL 1
REMARK VINA RESULT:    -8.098      0.000      0.000
REMARK INTER + INTRA:         -10.199
REMARK INTER:                  -9.518
REMARK INTRA:                  -0.681
REMARK UNBOUND:                -0.681
REMARK  3 active torsions:
REMARK  status: ('A' for Active; 'I' for Inactive)
REMARK    1  A    between atoms: C_4  and  C_8 
REMARK    2  A    between atoms: C_16  and  C_17 
REMARK    3  A    between atoms: C_17  and  N_18 
ROOT
ATOM      1  C   UNK d   1      18.778  63.430 -11.843  0.00  0.00     0.053 C 
ATOM      2  C   UNK d   1      19.965  63.394 -11.227  0.00  0.00     0.127 A 
ATOM      3  O   UNK d   1      20.180  63.522  -9.919  0.00  0.00    -0.305 OA
ATOM      4  C   UNK d   1      21.565  63.398  -9.642  0.00  0.00     0.101 A 
ATOM      5  C   UNK d   1      22.268  63.182 -10.779  0.00  0.00     0.051 A 
ATOM      6  C   UNK d   1      23.639  62.962 -10.670  0.00  0.00     0.021 A 
ATOM      7  C   UNK d   1      24.248  62.989  -9.455  0.00  0.00     0.041 A 
ATOM      8  C   UNK d   1      23.509  63.242  -8.317  0.00  0.00     0.118 A 
ATOM      9  C   UNK d   1      22.152  63.462  -8.349  0.00  0.00     0.039 A 
ATOM     10  O   UNK d   1      24.181  63.271  -7.093  0.00  0.00    -0.191 OA
ATOM     11  C   UNK d   1      21.267  63.179 -11.873  0.00  0.00     0.218 A 
ATOM     12  O   UNK d   1      21.490  63.030 -13.088  0.00  0.00    -0.284 OA
ENDROOT
BRANCH   1  13
ATOM     13  C   UNK d   1      17.534  63.617 -11.048  0.00  0.00    -0.032 A 
ATOM     14  C   UNK d   1      16.532  62.636 -11.110  0.00  0.00     0.030 A 
ATOM     15  C   UNK d   1      15.219  62.899 -10.698  0.00  0.00     0.011 A 
ATOM     16 Br   UNK d   1      13.939  61.492 -10.855  0.00  0.00    -0.051 Br
ATOM     17  C   UNK d   1      14.875  64.111 -10.221  0.00  0.00     0.019 A 
ATOM     18  C   UNK d   1      15.859  65.131 -10.137  0.00  0.00     0.002 A 
ATOM     19  C   UNK d   1      17.174  64.839 -10.558  0.00  0.00     0.011 A 
ENDBRANCH   1  13
BRANCH   9  20
ATOM     20  C   UNK d   1      21.338  64.171  -7.383  0.00  0.00     0.279 C 
BRANCH  20  21
ATOM     21  N   UNK d   1      21.377  65.206  -6.520  0.00  0.00    -0.063 N 
ATOM     22  C   UNK d   1      22.452  65.606  -5.723  0.00  0.00     0.261 C 
ATOM     23  C   UNK d   1      23.306  66.734  -6.344  0.00  0.00     0.195 C 
ATOM     24  O   UNK d   1      22.629  67.924  -6.471  0.00  0.00    -0.388 OA
ATOM     25  C   UNK d   1      21.310  67.672  -6.863  0.00  0.00     0.195 C 
ATOM     26  C   UNK d   1      21.137  66.393  -7.496  0.00  0.00     0.261 C 
ATOM     27  H   UNK d   1      20.469  65.210  -5.918  0.00  0.00     0.280 HD
ENDBRANCH  20  21
ENDBRANCH   9  20
TORSDOF 3
ENDMDL
