/Users/jonathanwahrer/Desktop/Msc/3_Semester/Drug_Design_Praktikum/waehrer_HTS_screening/HTS_experiment/out/docking_results/vina_output/3sx0/0153_docked.pdbqt
 OpenBabel03192221283D

 34 37  0  0  0  0  0  0  0  0999 V2000
   23.5090   64.0340   -8.1630 C   0  0  0  0  0  0  0  0  0  0  0  0
   24.2600   64.4600   -7.2060 N   0  0  0  0  0  0  0  0  0  0  0  0
   23.6950   65.5100   -6.6180 N   0  0  0  0  0  0  0  0  0  0  0  0
   22.5180   65.7760   -7.2430 N   0  0  0  0  0  0  0  0  0  0  0  0
   22.3420   64.8940   -8.1700 C   0  0  0  0  0  0  0  0  0  0  0  0
   23.7560   63.0070   -9.2590 C   0  0  0  0  0  0  0  0  0  0  0  0
   23.7860   63.5120  -10.5260 N   0  0  0  0  0  0  0  0  0  0  0  0
   23.7240   64.7200  -10.3420 H   0  0  0  0  0  0  0  0  0  0  0  0
   23.9200   61.8230   -8.8920 O   0  0  0  0  0  0  0  0  0  0  0  0
   23.8990   63.4380  -11.8340 N   0  0  0  0  0  0  0  0  0  0  0  0
   24.9850   63.5000  -12.5520 C   0  0  0  0  0  3  0  0  0  0  0  0
   24.9710   63.4240  -14.0260 C   0  0  0  0  0  0  0  0  0  0  0  0
   23.8910   63.7380  -14.8280 C   0  0  0  0  0  3  0  0  0  0  0  0
   24.0520   63.7560  -16.2130 C   0  0  0  0  0  0  0  0  0  0  0  0
   22.6100   64.2270  -17.3860 Br  0  0  0  0  0  0  0  0  0  0  0  0
   25.2560   63.4730  -16.8480 C   0  0  0  0  0  3  0  0  0  0  0  0
   26.2860   63.1580  -16.0010 C   0  0  0  0  0  3  0  0  0  0  0  0
   26.1750   63.1310  -14.6410 C   0  0  0  0  0  3  0  0  0  0  0  0
   21.2900   64.5830   -9.1320 C   0  0  0  0  0  2  0  0  0  0  0  0
   20.6400   63.3540   -9.1880 N   0  0  0  0  0  0  0  0  0  0  0  0
   19.7730   62.6820   -8.4150 C   0  0  0  0  0  2  0  0  0  0  0  0
   18.3900   62.6730   -9.1220 C   0  0  0  0  0  2  0  0  0  0  0  0
   18.3480   63.8030   -9.9800 N   0  0  0  0  0  0  0  0  0  0  0  0
   19.2210   63.6300  -11.1020 C   0  0  0  0  0  2  0  0  0  0  0  0
   17.1270   64.4450  -10.2260 C   0  0  0  0  0  1  0  0  0  0  0  0
   20.4790   62.9070  -10.6040 C   0  0  0  0  0  2  0  0  0  0  0  0
   21.9870   67.1220   -7.0890 C   0  0  0  0  0  0  0  0  0  0  0  0
   22.5170   67.8220   -5.9430 N   0  0  0  0  0  0  0  0  0  0  0  0
   22.0280   68.9660   -5.8510 O   0  0  0  0  0  0  0  0  0  0  0  0
   21.1880   69.1500   -6.8230 N   0  0  0  0  0  0  0  0  0  0  0  0
   21.1750   67.9870   -7.5910 C   0  0  0  0  0  0  0  0  0  0  0  0
   20.3430   67.9190   -8.7270 N   0  0  0  0  0  0  0  0  0  0  0  0
   19.8000   66.9880   -8.7900 H   0  0  0  0  0  0  0  0  0  0  0  0
   20.1670   68.5640   -9.4730 H   0  0  0  0  0  0  0  0  0  0  0  0
  1  2  1  0  0  0  0
  2  3  2  0  0  0  0
  4 27  1  0  0  0  0
  4  3  1  0  0  0  0
  5  1  2  0  0  0  0
  5  4  1  0  0  0  0
  6  9  2  0  0  0  0
  6  1  1  0  0  0  0
  7  8  1  0  0  0  0
  7  6  1  0  0  0  0
 10  7  1  0  0  0  0
 11 10  2  0  0  0  0
 12 11  1  0  0  0  0
 13 12  2  0  0  0  0
 14 13  1  0  0  0  0
 15 14  1  0  0  0  0
 16 14  2  0  0  0  0
 16 17  1  0  0  0  0
 17 18  2  0  0  0  0
 18 12  1  0  0  0  0
 19  5  1  0  0  0  0
 20 19  1  0  0  0  0
 20 21  1  0  0  0  0
 22 21  1  0  0  0  0
 23 22  1  0  0  0  0
 24 26  1  0  0  0  0
 24 23  1  0  0  0  0
 25 23  1  0  0  0  0
 26 20  1  0  0  0  0
 27 28  2  0  0  0  0
 28 29  1  0  0  0  0
 30 29  1  0  0  0  0
 31 27  1  0  0  0  0
 31 30  2  0  0  0  0
 32 31  1  0  0  0  0
 33 32  1  0  0  0  0
 34 32  1  0  0  0  0
M  END
>  <Pose>
1

>  <Score>
-6.990

$$$$
