MODEL 1
REMARK VINA RESULT:    -6.990      0.000      0.000
REMARK INTER + INTRA:         -10.180
REMARK INTER:                  -9.646
REMARK INTRA:                  -0.534
REMARK UNBOUND:                -0.534
REMARK  7 active torsions:
REMARK  status: ('A' for Active; 'I' for Inactive)
REMARK    1  A    between atoms: C_4  and  C_8 
REMARK    2  A    between atoms: N_9  and  N_10 
REMARK       I    between atoms: N_10  and  C_11 
REMARK    3  A    between atoms: C_11  and  C_13 
REMARK    4  A    between atoms: N_16  and  C_26 
REMARK    5  A    between atoms: C_17  and  C_18 
REMARK    6  A    between atoms: C_18  and  N_19 
REMARK    7  A    between atoms: C_30  and  N_31 
ROOT
ATOM      1  C   UNK d   1      23.509  64.034  -8.163  0.00  0.00     0.169 A 
ATOM      2  N   UNK d   1      24.260  64.460  -7.206  0.00  0.00    -0.152 NA
ATOM      3  N   UNK d   1      23.695  65.510  -6.618  0.00  0.00     0.012 NA
ATOM      4  N   UNK d   1      22.518  65.776  -7.243  0.00  0.00    -0.215 N 
ATOM      5  C   UNK d   1      22.342  64.894  -8.170  0.00  0.00     0.087 A 
ENDROOT
BRANCH   1   6
ATOM      6  C   UNK d   1      23.756  63.007  -9.259  0.00  0.00     0.293 C 
ATOM      7  N   UNK d   1      23.786  63.512 -10.526  0.00  0.00    -0.242 N 
ATOM      8  H   UNK d   1      23.724  64.720 -10.342  0.00  0.00     0.192 HD
ATOM      9  O   UNK d   1      23.920  61.823  -8.892  0.00  0.00    -0.264 OA
BRANCH   7  10
ATOM     10  N   UNK d   1      23.899  63.438 -11.834  0.00  0.00    -0.183 NA
ATOM     11  C   UNK d   1      24.985  63.500 -12.552  0.00  0.00     0.150 C 
BRANCH  11  12
ATOM     12  C   UNK d   1      24.971  63.424 -14.026  0.00  0.00    -0.016 A 
ATOM     13  C   UNK d   1      23.891  63.738 -14.828  0.00  0.00     0.032 A 
ATOM     14  C   UNK d   1      24.052  63.756 -16.213  0.00  0.00     0.011 A 
ATOM     15 Br   UNK d   1      22.610  64.227 -17.386  0.00  0.00    -0.051 Br
ATOM     16  C   UNK d   1      25.256  63.473 -16.848  0.00  0.00     0.019 A 
ATOM     17  C   UNK d   1      26.286  63.158 -16.001  0.00  0.00     0.002 A 
ATOM     18  C   UNK d   1      26.175  63.131 -14.641  0.00  0.00     0.013 A 
ENDBRANCH  11  12
ENDBRANCH   7  10
ENDBRANCH   1   6
BRANCH   5  19
ATOM     19  C   UNK d   1      21.290  64.583  -9.132  0.00  0.00     0.178 C 
BRANCH  19  20
ATOM     20  N   UNK d   1      20.640  63.354  -9.188  0.00  0.00    -0.404 N 
ATOM     21  C   UNK d   1      19.773  62.682  -8.415  0.00  0.00     0.136 C 
ATOM     22  C   UNK d   1      18.390  62.673  -9.122  0.00  0.00     0.135 C 
ATOM     23  N   UNK d   1      18.348  63.803  -9.980  0.00  0.00    -0.414 N 
ATOM     24  C   UNK d   1      19.221  63.630 -11.102  0.00  0.00     0.135 C 
ATOM     25  C   UNK d   1      17.127  64.445 -10.226  0.00  0.00     0.143 C 
ATOM     26  C   UNK d   1      20.479  62.907 -10.604  0.00  0.00     0.136 C 
ENDBRANCH  19  20
ENDBRANCH   5  19
BRANCH   4  27
ATOM     27  C   UNK d   1      21.987  67.122  -7.089  0.00  0.00     0.225 A 
ATOM     28  N   UNK d   1      22.517  67.822  -5.943  0.00  0.00    -0.081 NA
ATOM     29  O   UNK d   1      22.028  68.966  -5.851  0.00  0.00    -0.103 OA
ATOM     30  N   UNK d   1      21.188  69.150  -6.823  0.00  0.00    -0.083 NA
ATOM     31  C   UNK d   1      21.175  67.987  -7.591  0.00  0.00     0.201 A 
BRANCH  31  32
ATOM     32  N   UNK d   1      20.343  67.919  -8.727  0.00  0.00    -0.379 N 
ATOM     33  H   UNK d   1      19.800  66.988  -8.790  0.00  0.00     0.158 HD
ATOM     34  H   UNK d   1      20.167  68.564  -9.473  0.00  0.00     0.158 HD
ENDBRANCH  31  32
ENDBRANCH   4  27
TORSDOF 7
ENDMDL
