MODEL 1
REMARK VINA RESULT:    -5.346      0.000      0.000
REMARK INTER + INTRA:          -8.254
REMARK INTER:                  -7.534
REMARK INTRA:                  -0.720
REMARK UNBOUND:                -0.720
REMARK  7 active torsions:
REMARK  status: ('A' for Active; 'I' for Inactive)
REMARK    1  A    between atoms: C_4  and  C_8 
REMARK    2  A    between atoms: N_9  and  C_29 
REMARK    3  A    between atoms: C_15  and  C_17 
REMARK    4  A    between atoms: N_19  and  C_22 
REMARK    5  A    between atoms: C_29  and  C_30 
REMARK    6  A    between atoms: C_30  and  C_31 
REMARK    7  A    between atoms: C_31  and  N_32 
ROOT
ATOM      1  C   UNK d   1      11.442  64.570 -14.614  0.00  0.00     0.161 C 
ATOM      2  N   UNK d   1      11.012  63.707 -15.650  0.00  0.00    -0.332 N 
ATOM      3  C   UNK d   1      11.784  62.518 -15.633  0.00  0.00     0.295 C 
ATOM      4  O   UNK d   1      11.706  61.586 -16.493  0.00  0.00    -0.264 OA
ATOM      5  C   UNK d   1      12.655  62.551 -14.478  0.00  0.00     0.250 C 
ATOM      6  O   UNK d   1      13.456  61.611 -14.225  0.00  0.00    -0.282 OA
ATOM      7  C   UNK d   1      12.401  63.798 -13.782  0.00  0.00     0.062 C 
ATOM      8  C   UNK d   1      12.979  64.155 -12.657  0.00  0.00     0.133 C 
ATOM      9  O   UNK d   1      12.705  65.395 -12.128  0.00  0.00    -0.190 OA
ENDROOT
BRANCH   1  10
ATOM     10  C   UNK d   1      12.045  65.790 -15.162  0.00  0.00    -0.029 A 
ATOM     11  C   UNK d   1      11.422  67.000 -14.912  0.00  0.00     0.028 A 
ATOM     12  C   UNK d   1      11.861  68.219 -15.330  0.00  0.00     0.011 A 
ATOM     13 Br   UNK d   1      10.961  69.861 -14.955  0.00  0.00    -0.051 Br
ATOM     14  C   UNK d   1      13.049  68.235 -16.079  0.00  0.00     0.019 A 
ATOM     15  C   UNK d   1      13.695  67.041 -16.347  0.00  0.00     0.002 A 
ATOM     16  C   UNK d   1      13.222  65.821 -15.906  0.00  0.00     0.009 A 
ENDBRANCH   1  10
BRANCH   8  17
ATOM     17  C   UNK d   1      13.885  63.271 -11.968  0.00  0.00     0.045 A 
ATOM     18  C   UNK d   1      15.208  63.607 -11.634  0.00  0.00     0.047 A 
ATOM     19  N   UNK d   1      15.765  62.587 -10.969  0.00  0.00    -0.238 N 
ATOM     20  C   UNK d   1      15.848  64.909 -11.984  0.00  0.00     0.071 C 
ATOM     21  N   UNK d   1      14.850  61.639 -10.878  0.00  0.00    -0.179 NA
ATOM     22  C   UNK d   1      13.703  62.012 -11.465  0.00  0.00     0.155 A 
BRANCH  19  23
ATOM     23  C   UNK d   1      17.082  62.521 -10.441  0.00  0.00     0.058 A 
ATOM     24  C   UNK d   1      17.705  61.283 -10.351  0.00  0.00     0.031 A 
ATOM     25  C   UNK d   1      18.987  61.146  -9.858  0.00  0.00     0.002 A 
ATOM     26  C   UNK d   1      19.714  62.257  -9.428  0.00  0.00     0.000 A 
ATOM     27  C   UNK d   1      19.094  63.490  -9.518  0.00  0.00     0.002 A 
ATOM     28  C   UNK d   1      17.819  63.600 -10.011  0.00  0.00     0.031 A 
ENDBRANCH  19  23
ENDBRANCH   8  17
BRANCH   2  29
ATOM     29  C   UNK d   1       9.907  63.954 -16.618  0.00  0.00     0.129 C 
BRANCH  29  30
ATOM     30  C   UNK d   1       8.594  63.550 -16.000  0.00  0.00     0.048 C 
BRANCH  30  31
ATOM     31  C   UNK d   1       8.170  62.160 -16.356  0.00  0.00     0.235 C 
BRANCH  31  32
ATOM     32  N   UNK d   1       8.023  61.247 -15.271  0.00  0.00    -0.079 N 
ATOM     33  C   UNK d   1       8.745  60.022 -15.369  0.00  0.00     0.269 C 
ATOM     34  C   UNK d   1       8.415  61.895 -14.008  0.00  0.00     0.269 C 
ATOM     35  H   UNK d   1       6.992  61.019 -15.135  0.00  0.00     0.278 HD
ENDBRANCH  31  32
ENDBRANCH  30  31
ENDBRANCH  29  30
ENDBRANCH   2  29
TORSDOF 7
ENDMDL
