MODEL 1
REMARK VINA RESULT:    -5.384      0.000      0.000
REMARK INTER + INTRA:          -8.092
REMARK INTER:                  -7.587
REMARK INTRA:                  -0.505
REMARK UNBOUND:                -0.505
REMARK  7 active torsions:
REMARK  status: ('A' for Active; 'I' for Inactive)
REMARK    1  A    between atoms: C_4  and  C_8 
REMARK    2  A    between atoms: N_9  and  C_28 
REMARK    3  A    between atoms: C_15  and  C_17 
REMARK    4  A    between atoms: C_20  and  C_23 
REMARK    5  A    between atoms: C_23  and  O_25 
REMARK    6  A    between atoms: C_28  and  C_29 
REMARK    7  A    between atoms: C_29  and  N_30 
ROOT
ATOM      1  C   UNK d   1      21.214  63.999  -7.849  0.00  0.00     0.161 C 
ATOM      2  N   UNK d   1      22.402  63.524  -8.530  0.00  0.00    -0.331 N 
ATOM      3  C   UNK d   1      22.152  63.677  -9.920  0.00  0.00     0.295 C 
ATOM      4  O   UNK d   1      22.995  63.816 -10.834  0.00  0.00    -0.264 OA
ATOM      5  C   UNK d   1      20.683  63.645 -10.095  0.00  0.00     0.250 C 
ATOM      6  O   UNK d   1      20.044  63.742 -11.166  0.00  0.00    -0.282 OA
ATOM      7  C   UNK d   1      20.135  63.473  -8.757  0.00  0.00     0.062 C 
ATOM      8  C   UNK d   1      18.989  62.936  -8.468  0.00  0.00     0.132 C 
ATOM      9  O   UNK d   1      18.649  62.793  -7.106  0.00  0.00    -0.190 OA
ENDROOT
BRANCH   1  10
ATOM     10  C   UNK d   1      21.225  65.481  -7.869  0.00  0.00    -0.029 A 
ATOM     11  C   UNK d   1      22.064  66.215  -7.040  0.00  0.00     0.028 A 
ATOM     12  C   UNK d   1      22.073  67.594  -7.047  0.00  0.00     0.011 A 
ATOM     13 Br   UNK d   1      23.250  68.539  -5.882  0.00  0.00    -0.051 Br
ATOM     14  C   UNK d   1      21.245  68.310  -7.883  0.00  0.00     0.019 A 
ATOM     15  C   UNK d   1      20.404  67.604  -8.715  0.00  0.00     0.002 A 
ATOM     16  C   UNK d   1      20.402  66.226  -8.700  0.00  0.00     0.009 A 
ENDBRANCH   1  10
BRANCH   8  17
ATOM     17  C   UNK d   1      18.004  62.464  -9.430  0.00  0.00     0.032 A 
ATOM     18  C   UNK d   1      17.727  61.250  -9.962  0.00  0.00     0.019 A 
ATOM     19  N   UNK d   1      16.659  61.381 -10.777  0.00  0.00    -0.354 N 
ATOM     20  C   UNK d   1      18.472  59.962  -9.760  0.00  0.00     0.069 C 
ATOM     21  C   UNK d   1      16.221  62.645 -10.803  0.00  0.00     0.115 A 
ATOM     22  H   UNK d   1      16.230  60.579 -11.324  0.00  0.00     0.166 HD
ATOM     23  C   UNK d   1      17.047  63.348  -9.967  0.00  0.00    -0.014 A 
ATOM     24  C   UNK d   1      16.943  64.810  -9.677  0.00  0.00     0.052 C 
BRANCH  21  25
ATOM     25  C   UNK d   1      15.080  63.176 -11.576  0.00  0.00     0.310 C 
ATOM     26  O   UNK d   1      14.001  62.565 -11.560  0.00  0.00    -0.258 OA
BRANCH  25  27
ATOM     27  O   UNK d   1      15.206  64.340 -12.310  0.00  0.00    -0.321 OA
ATOM     28  C   UNK d   1      14.141  64.945 -13.007  0.00  0.00     0.213 C 
ENDBRANCH  25  27
ENDBRANCH  21  25
ENDBRANCH   8  17
BRANCH   2  29
ATOM     29  C   UNK d   1      23.622  62.987  -7.921  0.00  0.00     0.155 C 
BRANCH  29  30
ATOM     30  C   UNK d   1      24.083  63.853  -6.769  0.00  0.00     0.255 C 
BRANCH  30  31
ATOM     31  N   UNK d   1      24.245  63.146  -5.541  0.00  0.00    -0.066 N 
ATOM     32  C   UNK d   1      23.800  63.890  -4.369  0.00  0.00     0.261 C 
ATOM     33  C   UNK d   1      23.597  62.900  -3.254  0.00  0.00     0.195 C 
ATOM     34  O   UNK d   1      24.356  61.782  -3.494  0.00  0.00    -0.388 OA
ATOM     35  C   UNK d   1      25.637  62.047  -3.947  0.00  0.00     0.195 C 
ATOM     36  C   UNK d   1      25.637  62.805  -5.273  0.00  0.00     0.261 C 
ATOM     37  H   UNK d   1      23.744  62.241  -5.597  0.00  0.00     0.280 HD
ENDBRANCH  30  31
ENDBRANCH  29  30
ENDBRANCH   2  29
TORSDOF 7
ENDMDL
