/Users/jonathanwahrer/Desktop/Msc/3_Semester/Drug_Design_Praktikum/waehrer_HTS_screening/HTS_experiment/out/docking_results/vina_output/3sx0/0175_docked.pdbqt
 OpenBabel03192221303D

 32 35  0  0  1  0  0  0  0  0999 V2000
   22.0670   64.3940   -7.5160 C   0  0  2  0  0  3  0  0  0  0  0  0
   23.2660   64.0510   -8.2210 N   0  0  0  0  0  0  0  0  0  0  0  0
   22.9210   64.0110   -9.5980 C   0  0  0  0  0  0  0  0  0  0  0  0
   23.7260   64.0780  -10.5590 O   0  0  0  0  0  0  0  0  0  0  0  0
   21.4510   63.8750   -9.7280 C   0  0  0  0  0  0  0  0  0  0  0  0
   20.7820   63.8050  -10.7730 O   0  0  0  0  0  0  0  0  0  0  0  0
   20.9530   63.8400   -8.3660 C   0  0  0  0  0  0  0  0  0  0  0  0
   19.8000   63.3770   -7.9360 C   0  0  0  0  0  0  0  0  0  0  0  0
   19.5260   63.3650   -6.5850 O   0  0  0  0  0  1  0  0  0  0  0  0
   24.6090   63.7870   -7.6680 C   0  0  0  0  0  2  0  0  0  0  0  0
   24.4230   62.9980   -6.4020 C   0  0  0  0  0  2  0  0  0  0  0  0
   24.9650   63.5920   -5.2340 N   0  0  0  0  0  4  0  0  0  0  0  0
   24.0700   63.7290   -4.1220 C   0  0  0  0  0  2  0  0  0  0  0  0
   24.0810   62.5640   -3.1700 C   0  0  0  0  0  2  0  0  0  0  0  0
   25.3400   62.0710   -2.9100 O   0  0  0  0  0  0  0  0  0  0  0  0
   26.0040   61.7020   -4.0570 C   0  0  0  0  0  2  0  0  0  0  0  0
   26.2040   62.9380   -4.8920 C   0  0  0  0  0  2  0  0  0  0  0  0
   25.2560   64.5790   -5.5050 H   0  0  0  0  0  0  0  0  0  0  0  0
   21.8980   65.8650   -7.3440 C   0  0  0  0  0  0  0  0  0  0  0  0
   22.8220   66.6420   -6.6780 C   0  0  0  0  0  3  0  0  0  0  0  0
   22.6670   68.0150   -6.5160 C   0  0  0  0  0  0  0  0  0  0  0  0
   23.9710   69.0540   -5.5850 Br  0  0  0  0  0  0  0  0  0  0  0  0
   21.5630   68.6160   -7.0350 C   0  0  0  0  0  3  0  0  0  0  0  0
   20.6170   67.8850   -7.7070 C   0  0  0  0  0  3  0  0  0  0  0  0
   20.7900   66.5250   -7.8550 C   0  0  0  0  0  3  0  0  0  0  0  0
   18.7970   62.8830   -8.8450 C   0  0  0  0  0  0  0  0  0  0  0  0
   18.6840   61.6070   -9.3160 C   0  0  0  0  0  3  0  0  0  0  0  0
   17.6420   61.2600  -10.1550 C   0  0  0  0  0  3  0  0  0  0  0  0
   16.6710   62.1450  -10.5670 C   0  0  0  0  0  0  0  0  0  0  0  0
   16.7870   63.4340  -10.0910 C   0  0  0  0  0  3  0  0  0  0  0  0
   15.5580   61.7460  -11.4730 C   0  0  0  0  0  1  0  0  0  0  0  0
   17.8150   63.7990   -9.2570 C   0  0  0  0  0  3  0  0  0  0  0  0
  1 19  1  6  0  0  0
  2 10  1  0  0  0  0
  2  1  1  0  0  0  0
  3  2  1  0  0  0  0
  4  3  2  0  0  0  0
  5  3  1  0  0  0  0
  5  7  1  0  0  0  0
  6  5  2  0  0  0  0
  7  8  2  0  0  0  0
  7  1  1  0  0  0  0
  8  9  1  0  0  0  0
 10 11  1  0  0  0  0
 11 12  1  0  0  0  0
 12 17  1  0  0  0  0
 12 13  1  0  0  0  0
 13 14  1  0  0  0  0
 14 15  1  0  0  0  0
 16 15  1  0  0  0  0
 17 16  1  0  0  0  0
 18 12  1  0  0  0  0
 19 20  1  0  0  0  0
 20 21  2  0  0  0  0
 21 22  1  0  0  0  0
 23 21  1  0  0  0  0
 24 23  2  0  0  0  0
 25 24  1  0  0  0  0
 25 19  2  0  0  0  0
 26  8  1  0  0  0  0
 27 26  2  0  0  0  0
 28 27  1  0  0  0  0
 29 28  2  0  0  0  0
 29 30  1  0  0  0  0
 30 32  2  0  0  0  0
 31 29  1  0  0  0  0
 32 26  1  0  0  0  0
M  END
>  <Pose>
1

>  <Score>
-5.703

$$$$
