MODEL 1
REMARK VINA RESULT:    -7.008      0.000      0.000
REMARK INTER + INTRA:          -8.454
REMARK INTER:                  -9.466
REMARK INTRA:                   1.012
REMARK UNBOUND:                 1.012
REMARK  6 active torsions:
REMARK  status: ('A' for Active; 'I' for Inactive)
REMARK    1  A    between atoms: C_4  and  C_8 
REMARK    2  A    between atoms: N_9  and  C_24 
REMARK    3  A    between atoms: C_15  and  C_17 
REMARK    4  A    between atoms: C_24  and  C_25 
REMARK    5  A    between atoms: C_25  and  C_26 
REMARK    6  A    between atoms: C_26  and  N_27 
ROOT
ATOM      1  C   UNK d   1      22.061  62.654 -10.317  0.00  0.00     0.161 C 
ATOM      2  N   UNK d   1      22.558  63.405  -9.175  0.00  0.00    -0.332 N 
ATOM      3  C   UNK d   1      21.749  64.595  -9.073  0.00  0.00     0.295 C 
ATOM      4  O   UNK d   1      22.073  65.627  -8.434  0.00  0.00    -0.264 OA
ATOM      5  C   UNK d   1      20.540  64.353  -9.831  0.00  0.00     0.250 C 
ATOM      6  O   UNK d   1      19.556  65.136 -10.012  0.00  0.00    -0.282 OA
ATOM      7  C   UNK d   1      20.631  63.009 -10.385  0.00  0.00     0.062 C 
ATOM      8  C   UNK d   1      19.616  62.310 -10.872  0.00  0.00     0.130 C 
ATOM      9  O   UNK d   1      19.983  61.054 -11.399  0.00  0.00    -0.190 OA
ENDROOT
BRANCH   2  10
ATOM     10  C   UNK d   1      23.698  63.065  -8.387  0.00  0.00     0.129 C 
BRANCH  10  11
ATOM     11  C   UNK d   1      23.793  63.562  -7.003  0.00  0.00     0.048 C 
BRANCH  11  12
ATOM     12  C   UNK d   1      24.822  63.018  -6.084  0.00  0.00     0.236 C 
BRANCH  12  13
ATOM     13  N   UNK d   1      24.396  62.467  -4.842  0.00  0.00    -0.067 N 
ATOM     14  C   UNK d   1      25.526  62.148  -4.007  0.00  0.00     0.261 C 
ATOM     15  C   UNK d   1      25.906  63.267  -3.060  0.00  0.00     0.195 C 
ATOM     16  O   UNK d   1      24.883  63.476  -2.131  0.00  0.00    -0.388 OA
ATOM     17  C   UNK d   1      23.653  63.059  -2.643  0.00  0.00     0.195 C 
ATOM     18  C   UNK d   1      23.606  63.486  -4.084  0.00  0.00     0.261 C 
ATOM     19  H   UNK d   1      23.738  61.699  -4.951  0.00  0.00     0.280 HD
ENDBRANCH  12  13
ENDBRANCH  11  12
ENDBRANCH  10  11
ENDBRANCH   2  10
BRANCH   1  20
ATOM     20  C   UNK d   1      22.810  63.014 -11.548  0.00  0.00    -0.029 A 
ATOM     21  C   UNK d   1      24.186  63.032 -11.540  0.00  0.00     0.028 A 
ATOM     22  C   UNK d   1      24.929  63.364 -12.664  0.00  0.00     0.011 A 
ATOM     23 Br   UNK d   1      26.829  63.388 -12.667  0.00  0.00    -0.051 Br
ATOM     24  C   UNK d   1      24.288  63.691 -13.840  0.00  0.00     0.019 A 
ATOM     25  C   UNK d   1      22.912  63.674 -13.850  0.00  0.00     0.002 A 
ATOM     26  C   UNK d   1      22.172  63.336 -12.708  0.00  0.00     0.009 A 
ENDBRANCH   1  20
BRANCH   8  27
ATOM     27  C   UNK d   1      18.231  62.751 -10.881  0.00  0.00     0.001 A 
ATOM     28  C   UNK d   1      17.789  63.976 -11.321  0.00  0.00     0.016 A 
ATOM     29  C   UNK d   1      16.455  64.328 -11.338  0.00  0.00     0.024 A 
ATOM     30  C   UNK d   1      15.493  63.445 -10.902  0.00  0.00     0.034 A 
ATOM     31  C   UNK d   1      15.918  62.209 -10.456  0.00  0.00     0.024 A 
ATOM     32 Cl   UNK d   1      13.778  63.871 -10.914  0.00  0.00    -0.084 Cl
ATOM     33  C   UNK d   1      17.256  61.867 -10.444  0.00  0.00     0.016 A 
ENDBRANCH   8  27
TORSDOF 6
ENDMDL
