MODEL 1
REMARK VINA RESULT:    -4.796      0.000      0.000
REMARK INTER + INTRA:          -7.654
REMARK INTER:                  -6.478
REMARK INTRA:                  -1.176
REMARK UNBOUND:                -1.176
REMARK  6 active torsions:
REMARK  status: ('A' for Active; 'I' for Inactive)
REMARK    1  A    between atoms: C_4  and  C_8 
REMARK    2  A    between atoms: N_9  and  C_22 
REMARK    3  A    between atoms: C_15  and  C_17 
REMARK    4  A    between atoms: C_22  and  C_23 
REMARK    5  A    between atoms: C_23  and  C_24 
REMARK    6  A    between atoms: C_24  and  N_25 
ROOT
ATOM      1  C   UNK d   1      11.411  66.107 -15.869  0.00  0.00     0.161 C 
ATOM      2  N   UNK d   1      10.106  65.485 -16.034  0.00  0.00    -0.332 N 
ATOM      3  C   UNK d   1       9.660  65.293 -14.671  0.00  0.00     0.295 C 
ATOM      4  O   UNK d   1       8.477  65.199 -14.280  0.00  0.00    -0.264 OA
ATOM      5  C   UNK d   1      10.828  65.225 -13.802  0.00  0.00     0.251 C 
ATOM      6  O   UNK d   1      10.925  65.072 -12.557  0.00  0.00    -0.282 OA
ATOM      7  C   UNK d   1      11.987  65.380 -14.679  0.00  0.00     0.064 C 
ATOM      8  C   UNK d   1      13.223  65.016 -14.492  0.00  0.00     0.153 C 
ATOM      9  O   UNK d   1      14.164  65.323 -15.498  0.00  0.00    -0.188 OA
ENDROOT
BRANCH   2  10
ATOM     10  C   UNK d   1       9.358  65.134 -17.212  0.00  0.00     0.129 C 
BRANCH  10  11
ATOM     11  C   UNK d   1       9.498  63.685 -17.616  0.00  0.00     0.048 C 
BRANCH  11  12
ATOM     12  C   UNK d   1       8.407  62.893 -17.013  0.00  0.00     0.236 C 
BRANCH  12  13
ATOM     13  N   UNK d   1       8.802  61.610 -16.477  0.00  0.00    -0.067 N 
ATOM     14  C   UNK d   1      10.235  61.475 -16.364  0.00  0.00     0.261 C 
ATOM     15  C   UNK d   1      10.789  61.789 -15.020  0.00  0.00     0.195 C 
ATOM     16  O   UNK d   1      10.059  61.317 -13.950  0.00  0.00    -0.388 OA
ATOM     17  C   UNK d   1       8.706  61.623 -14.018  0.00  0.00     0.195 C 
ATOM     18  C   UNK d   1       8.091  61.181 -15.321  0.00  0.00     0.261 C 
ATOM     19  H   UNK d   1       8.536  60.920 -17.250  0.00  0.00     0.280 HD
ENDBRANCH  12  13
ENDBRANCH  11  12
ENDBRANCH  10  11
ENDBRANCH   2  10
BRANCH   1  20
ATOM     20  C   UNK d   1      11.283  67.534 -15.452  0.00  0.00    -0.029 A 
ATOM     21  C   UNK d   1      10.445  68.390 -16.133  0.00  0.00     0.028 A 
ATOM     22  C   UNK d   1      10.289  69.723 -15.789  0.00  0.00     0.011 A 
ATOM     23 Br   UNK d   1       9.109  70.877 -16.765  0.00  0.00    -0.051 Br
ATOM     24  C   UNK d   1      10.995  70.234 -14.719  0.00  0.00     0.019 A 
ATOM     25  C   UNK d   1      11.841  69.393 -14.021  0.00  0.00     0.002 A 
ATOM     26  C   UNK d   1      11.987  68.052 -14.382  0.00  0.00     0.009 A 
ENDBRANCH   1  20
BRANCH   8  27
ATOM     27  C   UNK d   1      13.614  64.312 -13.285  0.00  0.00     0.112 A 
ATOM     28  O   UNK d   1      13.393  63.039 -13.091  0.00  0.00    -0.320 OA
ATOM     29  C   UNK d   1      13.838  62.653 -11.926  0.00  0.00     0.142 A 
ATOM     30  C   UNK d   1      14.388  63.733 -11.304  0.00  0.00     0.027 A 
ATOM     31  C   UNK d   1      14.245  64.815 -12.181  0.00  0.00     0.042 A 
ENDBRANCH   8  27
TORSDOF 6
ENDMDL
