/Users/jonathanwahrer/Desktop/Msc/3_Semester/Drug_Design_Praktikum/waehrer_HTS_screening/HTS_experiment/out/docking_results/vina_output/3sx0/0191_docked.pdbqt
 OpenBabel03192221323D

 34 37  0  0  1  0  0  0  0  0999 V2000
   22.4350   64.4510  -10.3220 C   0  0  2  0  0  3  0  0  0  0  0  0
   23.6380   63.9610  -10.9630 N   0  0  0  0  0  0  0  0  0  0  0  0
   24.0180   62.7780  -10.2270 C   0  0  0  0  0  0  0  0  0  0  0  0
   24.7360   61.8470  -10.6650 O   0  0  0  0  0  0  0  0  0  0  0  0
   23.4060   62.8950   -8.9000 C   0  0  0  0  0  0  0  0  0  0  0  0
   23.4730   62.0920   -7.9340 O   0  0  0  0  0  0  0  0  0  0  0  0
   22.6640   64.1500   -8.8600 C   0  0  0  0  0  0  0  0  0  0  0  0
   22.2820   64.8310   -7.7930 C   0  0  0  0  0  0  0  0  0  0  0  0
   21.5690   65.9920   -7.9570 O   0  0  0  0  0  1  0  0  0  0  0  0
   21.1960   63.7900  -10.8060 C   0  0  0  0  0  0  0  0  0  0  0  0
   19.9610   64.0240  -10.1980 C   0  0  0  0  0  3  0  0  0  0  0  0
   18.8000   63.4350  -10.6070 C   0  0  0  0  0  0  0  0  0  0  0  0
   17.1430   63.8200   -9.7060 Br  0  0  0  0  0  0  0  0  0  0  0  0
   18.8100   62.5700  -11.6610 C   0  0  0  0  0  3  0  0  0  0  0  0
   19.9910   62.3050  -12.2940 C   0  0  0  0  0  3  0  0  0  0  0  0
   21.1690   62.9120  -11.8670 C   0  0  0  0  0  3  0  0  0  0  0  0
   22.6110   64.3720   -6.4310 C   0  0  0  0  0  0  0  0  0  0  0  0
   23.8020   64.0520   -6.0050 O   0  0  0  0  0  0  0  0  0  0  0  0
   23.8280   63.6790   -4.7690 C   0  0  0  0  0  0  0  0  0  0  0  0
   22.5360   63.7500   -4.3070 C   0  0  0  0  0  0  0  0  0  0  0  0
   24.8850   63.2670   -3.9680 C   0  0  0  0  0  0  0  0  0  0  0  0
   21.7650   64.1890   -5.3620 C   0  0  0  0  0  3  0  0  0  0  0  0
   22.2920   63.3970   -2.9980 C   0  0  0  0  0  3  0  0  0  0  0  0
   23.3050   62.9800   -2.1570 C   0  0  0  0  0  3  0  0  0  0  0  0
   24.6040   62.9240   -2.6700 C   0  0  0  0  0  3  0  0  0  0  0  0
   26.1750   63.2000   -4.4300 O   0  0  0  0  0  0  0  0  0  0  0  0
   26.8070   62.0900   -4.9810 C   0  0  0  0  0  1  0  0  0  0  0  0
   24.3280   64.4960  -12.1110 C   0  0  0  0  0  2  0  0  0  0  0  0
   24.6970   63.4110  -13.0930 C   0  0  0  0  0  2  0  0  0  0  0  0
   26.1040   63.4400  -13.5690 C   0  0  0  0  0  2  0  0  0  0  0  0
   26.2720   63.7970  -14.9430 N   0  0  0  0  0  4  0  0  0  0  0  0
   25.1830   63.2510  -15.7570 C   0  0  0  0  0  1  0  0  0  0  0  0
   27.5280   63.3730  -15.4790 C   0  0  0  0  0  1  0  0  0  0  0  0
   26.2050   64.8440  -15.0980 H   0  0  0  0  0  0  0  0  0  0  0  0
  1 10  1  6  0  0  0
  1  7  1  0  0  0  0
  2  1  1  0  0  0  0
  2  3  1  0  0  0  0
  3  5  1  0  0  0  0
  4  3  2  0  0  0  0
  5  7  1  0  0  0  0
  5  6  2  0  0  0  0
  7  8  2  0  0  0  0
  8 17  1  0  0  0  0
  9  8  1  0  0  0  0
 10 11  1  0  0  0  0
 12 11  2  0  0  0  0
 12 13  1  0  0  0  0
 14 12  1  0  0  0  0
 15 16  1  0  0  0  0
 15 14  2  0  0  0  0
 16 10  2  0  0  0  0
 17 18  1  0  0  0  0
 17 22  2  0  0  0  0
 18 19  1  0  0  0  0
 19 20  2  0  0  0  0
 19 21  1  0  0  0  0
 20 23  1  0  0  0  0
 21 25  2  0  0  0  0
 22 20  1  0  0  0  0
 23 24  2  0  0  0  0
 25 24  1  0  0  0  0
 26 21  1  0  0  0  0
 27 26  1  0  0  0  0
 28  2  1  0  0  0  0
 29 28  1  0  0  0  0
 30 29  1  0  0  0  0
 31 30  1  0  0  0  0
 32 31  1  0  0  0  0
 33 31  1  0  0  0  0
 34 31  1  0  0  0  0
M  END
>  <Pose>
1

>  <Score>
-6.268

$$$$
