MODEL 1
REMARK VINA RESULT:    -8.527      0.000      0.000
REMARK INTER + INTRA:          -9.998
REMARK INTER:                 -10.023
REMARK INTRA:                   0.025
REMARK UNBOUND:                 0.025
REMARK  3 active torsions:
REMARK  status: ('A' for Active; 'I' for Inactive)
REMARK    1  A    between atoms: C_4  and  N_8 
REMARK       I    between atoms: N_8  and  C_9 
REMARK    2  A    between atoms: C_9  and  C_11 
REMARK    3  A    between atoms: N_13  and  C_15 
ROOT
ATOM      1  C   UNK d   1      22.147  64.405  -9.743  0.00  0.00     0.114 C 
ATOM      2  C   UNK d   1      20.675  64.643  -9.530  0.00  0.00     0.140 C 
ATOM      3  N   UNK d   1      20.345  63.361 -10.171  0.00  0.00    -0.362 N 
ATOM      4  C   UNK d   1      21.675  63.398 -10.751  0.00  0.00     0.140 C 
ENDROOT
BRANCH   1   5
ATOM      5  C   UNK d   1      22.848  63.813  -8.550  0.00  0.00     0.229 C 
ATOM      6  N   UNK d   1      22.721  64.442  -7.302  0.00  0.00    -0.327 N 
ATOM      7  H   UNK d   1      22.117  65.341  -7.233  0.00  0.00     0.169 HD
ATOM      8  O   UNK d   1      23.501  62.785  -8.781  0.00  0.00    -0.273 OA
BRANCH   6   9
ATOM      9  C   UNK d   1      23.318  64.003  -6.105  0.00  0.00     0.035 A 
ATOM     10  C   UNK d   1      24.546  63.326  -6.162  0.00  0.00     0.048 A 
ATOM     11  C   UNK d   1      25.197  62.864  -5.042  0.00  0.00     0.013 A 
ATOM     12 Br   UNK d   1      26.864  61.949  -5.166  0.00  0.00    -0.051 Br
ATOM     13  C   UNK d   1      24.646  63.060  -3.811  0.00  0.00     0.019 A 
ATOM     14  C   UNK d   1      23.457  63.713  -3.727  0.00  0.00     0.004 A 
ATOM     15  C   UNK d   1      22.789  64.186  -4.858  0.00  0.00     0.029 A 
ENDBRANCH   6   9
ENDBRANCH   1   5
BRANCH   3  16
ATOM     16  C   UNK d   1      19.194  62.527 -10.166  0.00  0.00     0.162 A 
ATOM     17  N   UNK d   1      19.241  61.234  -9.751  0.00  0.00    -0.222 NA
ATOM     18  C   UNK d   1      18.121  60.454  -9.755  0.00  0.00     0.237 A 
ATOM     19  N   UNK d   1      16.944  60.934 -10.167  0.00  0.00    -0.220 NA
ATOM     20  C   UNK d   1      16.825  62.194 -10.588  0.00  0.00     0.183 A 
ATOM     21  N   UNK d   1      15.773  62.902 -11.045  0.00  0.00    -0.236 N 
ATOM     22  C   UNK d   1      17.959  62.981 -10.583  0.00  0.00     0.173 A 
ATOM     23  N   UNK d   1      16.227  64.105 -11.321  0.00  0.00    -0.064 NA
ATOM     24  C   UNK d   1      14.392  62.457 -11.211  0.00  0.00     0.183 C 
ATOM     25  N   UNK d   1      17.536  64.185 -11.055  0.00  0.00    -0.124 NA
ENDBRANCH   3  16
TORSDOF 3
ENDMDL
