MODEL 1
REMARK VINA RESULT:    -9.351      0.000      0.000
REMARK INTER + INTRA:         -10.791
REMARK INTER:                 -10.444
REMARK INTRA:                  -0.347
REMARK UNBOUND:                -0.347
REMARK  2 active torsions:
REMARK  status: ('A' for Active; 'I' for Inactive)
REMARK    1  A    between atoms: C_4  and  N_8 
REMARK    2  A    between atoms: N_8  and  C_9 
ROOT
ATOM      1  C   UNK d   1      18.296  63.105 -10.225  0.00  0.00     0.180 A 
ATOM      2  N   UNK d   1      18.489  61.842  -9.858  0.00  0.00    -0.202 NA
ATOM      3  C   UNK d   1      17.588  60.853  -9.978  0.00  0.00     0.231 A 
ATOM      4  N   UNK d   1      17.540  59.540  -9.694  0.00  0.00    -0.081 NA
ATOM      5  O   UNK d   1      16.395  59.029 -10.019  0.00  0.00    -0.103 OA
ATOM      6  N   UNK d   1      15.676  59.973 -10.515  0.00  0.00    -0.081 NA
ATOM      7  C   UNK d   1      16.345  61.138 -10.525  0.00  0.00     0.229 A 
ATOM      8  N   UNK d   1      16.102  62.400 -10.911  0.00  0.00    -0.196 N 
ATOM      9  N   UNK d   1      15.001  62.914 -11.454  0.00  0.00     0.004 NA
ATOM     10  N   UNK d   1      15.236  64.218 -11.664  0.00  0.00     0.018 NA
ATOM     11  N   UNK d   1      16.475  64.486 -11.247  0.00  0.00    -0.138 NA
ATOM     12  C   UNK d   1      17.025  63.364 -10.776  0.00  0.00     0.212 A 
ENDROOT
BRANCH   1  13
ATOM     13  N   UNK d   1      19.212  64.177 -10.118  0.00  0.00    -0.338 N 
ATOM     14  H   UNK d   1      18.866  65.174 -10.218  0.00  0.00     0.167 HD
BRANCH  13  15
ATOM     15  C   UNK d   1      20.595  64.030  -9.881  0.00  0.00     0.035 A 
ATOM     16  C   UNK d   1      21.554  63.706 -10.802  0.00  0.00     0.048 A 
ATOM     17  C   UNK d   1      22.905  63.571 -10.528  0.00  0.00     0.013 A 
ATOM     18 Br   UNK d   1      24.163  63.115 -11.887  0.00  0.00    -0.051 Br
ATOM     19  C   UNK d   1      23.338  63.772  -9.243  0.00  0.00     0.019 A 
ATOM     20  C   UNK d   1      22.424  64.102  -8.268  0.00  0.00     0.004 A 
ATOM     21  C   UNK d   1      21.091  64.227  -8.575  0.00  0.00     0.029 A 
ENDBRANCH  13  15
ENDBRANCH   1  13
TORSDOF 2
ENDMDL
