MODEL 1
REMARK VINA RESULT:    -9.461      0.000      0.000
REMARK INTER + INTRA:         -11.201
REMARK INTER:                 -10.567
REMARK INTRA:                  -0.635
REMARK UNBOUND:                -0.635
REMARK  2 active torsions:
REMARK  status: ('A' for Active; 'I' for Inactive)
REMARK    1  A    between atoms: C_4  and  N_8 
REMARK    2  A    between atoms: C_14  and  C_18 
ROOT
ATOM      1  N   UNK d   1      19.184  62.549 -10.686  0.00  0.00    -0.246 N 
ATOM      2  C   UNK d   1      20.104  62.666 -11.790  0.00  0.00     0.268 C 
ATOM      3  O   UNK d   1      19.986  62.021 -12.870  0.00  0.00    -0.269 OA
ATOM      4  C   UNK d   1      21.150  63.626 -11.445  0.00  0.00     0.285 C 
ATOM      5  O   UNK d   1      22.418  63.385 -11.895  0.00  0.00    -0.260 OA
ATOM      6  N   UNK d   1      23.198  63.882 -10.853  0.00  0.00    -0.264 N 
ATOM      7  C   UNK d   1      22.572  63.546  -9.638  0.00  0.00     0.083 C 
ATOM      8  C   UNK d   1      21.283  63.369  -9.962  0.00  0.00     0.080 C 
ATOM      9  C   UNK d   1      19.937  62.995  -9.544  0.00  0.00     0.266 C 
ATOM     10  O   UNK d   1      19.505  63.051  -8.374  0.00  0.00    -0.267 OA
ATOM     11  H   UNK d   1      24.079  64.403 -10.955  0.00  0.00     0.194 HD
ENDROOT
BRANCH   1  12
ATOM     12  C   UNK d   1      17.845  62.097 -10.678  0.00  0.00     0.047 A 
ATOM     13  C   UNK d   1      16.773  62.964 -10.875  0.00  0.00     0.049 A 
ATOM     14  C   UNK d   1      15.459  62.568 -10.876  0.00  0.00     0.013 A 
ATOM     15 Br   UNK d   1      14.016  63.785 -11.145  0.00  0.00    -0.051 Br
ATOM     16  C   UNK d   1      15.135  61.242 -10.675  0.00  0.00     0.019 A 
ATOM     17  C   UNK d   1      16.194  60.360 -10.478  0.00  0.00     0.004 A 
ATOM     18  C   UNK d   1      17.506  60.768 -10.478  0.00  0.00     0.030 A 
ENDBRANCH   1  12
BRANCH   7  19
ATOM     19  C   UNK d   1      23.140  63.456  -8.302  0.00  0.00     0.036 A 
ATOM     20  C   UNK d   1      22.760  64.257  -7.222  0.00  0.00     0.040 A 
ATOM     21  N   UNK d   1      23.456  63.888  -6.165  0.00  0.00    -0.278 N 
ATOM     22  C   UNK d   1      21.765  65.355  -7.256  0.00  0.00     0.071 C 
ATOM     23  N   UNK d   1      24.263  62.892  -6.520  0.00  0.00    -0.184 NA
ATOM     24  C   UNK d   1      23.382  64.462  -4.822  0.00  0.00     0.179 C 
ATOM     25  C   UNK d   1      24.093  62.614  -7.801  0.00  0.00     0.154 A 
ENDBRANCH   7  19
TORSDOF 2
ENDMDL
