MODEL 1
REMARK VINA RESULT:    -7.079      0.000      0.000
REMARK INTER + INTRA:          -8.249
REMARK INTER:                  -8.114
REMARK INTRA:                  -0.135
REMARK UNBOUND:                -0.135
REMARK  3 active torsions:
REMARK  status: ('A' for Active; 'I' for Inactive)
REMARK    1  A    between atoms: C_4  and  N_8 
REMARK    2  A    between atoms: C_12  and  C_20 
REMARK    3  A    between atoms: C_20  and  O_21 
ROOT
ATOM      1  N   UNK d   1      20.991  64.001  -9.603  0.00  0.00    -0.252 N 
ATOM      2  C   UNK d   1      21.226  65.174  -8.837  0.00  0.00     0.239 C 
ATOM      3  O   UNK d   1      20.369  66.116  -8.659  0.00  0.00    -0.272 OA
ATOM      4  C   UNK d   1      22.591  65.125  -8.293  0.00  0.00     0.135 C 
ATOM      5  C   UNK d   1      22.531  64.519  -6.925  0.00  0.00     0.113 C 
ATOM      6  O   UNK d   1      22.224  63.178  -7.272  0.00  0.00    -0.363 OA
ATOM      7  C   UNK d   1      23.397  62.943  -8.037  0.00  0.00     0.159 C 
ATOM      8  C   UNK d   1      23.258  64.033  -9.083  0.00  0.00     0.128 C 
ATOM      9  C   UNK d   1      22.257  63.555 -10.058  0.00  0.00     0.239 C 
ATOM     10  O   UNK d   1      22.501  62.879 -11.091  0.00  0.00    -0.272 OA
ATOM     11  C   UNK d   1      24.428  63.303  -7.037  0.00  0.00     0.005 C 
ATOM     12  C   UNK d   1      23.869  64.292  -6.314  0.00  0.00     0.012 C 
ENDROOT
BRANCH   1  13
ATOM     13  C   UNK d   1      19.709  63.386  -9.868  0.00  0.00     0.046 A 
ATOM     14  C   UNK d   1      18.544  64.131  -9.971  0.00  0.00     0.049 A 
ATOM     15  C   UNK d   1      17.315  63.610 -10.219  0.00  0.00     0.013 A 
ATOM     16 Br   UNK d   1      15.798  64.764 -10.333  0.00  0.00    -0.051 Br
ATOM     17  C   UNK d   1      17.197  62.243 -10.383  0.00  0.00     0.019 A 
ATOM     18  C   UNK d   1      18.327  61.458 -10.290  0.00  0.00     0.004 A 
ATOM     19  C   UNK d   1      19.577  62.026 -10.033  0.00  0.00     0.030 A 
ENDBRANCH   1  13
BRANCH   5  20
ATOM     20  C   UNK d   1      21.544  65.126  -6.002  0.00  0.00     0.207 C 
BRANCH  20  21
ATOM     21  O   UNK d   1      20.963  64.112  -5.238  0.00  0.00    -0.398 OA
ATOM     22  H   UNK d   1      20.361  64.500  -4.554  0.00  0.00     0.209 HD
ENDBRANCH  20  21
ENDBRANCH   5  20
TORSDOF 3
ENDMDL
