/Users/jonathanwahrer/Desktop/Msc/3_Semester/Drug_Design_Praktikum/waehrer_HTS_screening/HTS_experiment/out/docking_results/vina_output/3sx0/0213_docked.pdbqt
 OpenBabel03192221333D

 25 28  0  0  1  0  0  0  0  0999 V2000
   18.9850   62.7290  -10.2070 N   0  0  0  0  0  0  0  0  0  0  0  0
   19.8960   63.2170  -11.2170 C   0  0  0  0  0  0  0  0  0  0  0  0
   19.6220   63.7340  -12.3050 O   0  0  0  0  0  0  0  0  0  0  0  0
   21.2830   62.9900  -10.7170 C   0  0  1  0  0  3  0  0  0  0  0  0
   22.1840   63.9780  -11.0680 O   0  0  0  0  0  0  0  0  0  0  0  0
   23.0510   63.9530  -10.0020 N   0  0  0  0  0  0  0  0  0  0  0  0
   22.1950   63.8790   -8.8480 C   0  0  0  0  0  0  0  0  0  0  0  0
   21.0920   63.2920   -9.2440 C   0  0  0  0  0  0  0  0  0  0  0  0
   19.7420   62.7800   -8.9770 C   0  0  0  0  0  0  0  0  0  0  0  0
   19.3650   62.4550   -7.8470 O   0  0  0  0  0  0  0  0  0  0  0  0
   24.0760   63.9800   -9.9980 H   0  0  0  0  0  0  0  0  0  0  0  0
   17.6540   62.3060  -10.4230 C   0  0  0  0  0  0  0  0  0  0  0  0
   16.6790   63.2230  -10.7420 C   0  0  0  0  0  3  0  0  0  0  0  0
   15.3530   62.8310  -10.9550 C   0  0  0  0  0  0  0  0  0  0  0  0
   14.0250   64.1220  -11.3940 Br  0  0  0  0  0  0  0  0  0  0  0  0
   14.9760   61.5130  -10.8540 C   0  0  0  0  0  3  0  0  0  0  0  0
   15.9510   60.5920  -10.5350 C   0  0  0  0  0  3  0  0  0  0  0  0
   17.2780   60.9890  -10.3220 C   0  0  0  0  0  3  0  0  0  0  0  0
   22.4470   64.3490   -7.5120 C   0  0  0  0  0  0  0  0  0  0  0  0
   23.1920   63.6170   -6.5890 C   0  0  0  0  0  3  0  0  0  0  0  0
   23.2760   64.3030   -5.4350 N   0  0  0  0  0  0  0  0  0  0  0  0
   22.6060   65.4250   -5.6340 N   0  0  0  0  0  0  0  0  0  0  0  0
   23.9740   63.8780   -4.2110 C   0  0  0  0  0  1  0  0  0  0  0  0
   22.0900   65.5060   -6.8590 C   0  0  0  0  0  0  0  0  0  0  0  0
   21.2790   66.6220   -7.4530 C   0  0  0  0  0  1  0  0  0  0  0  0
  1  9  1  0  0  0  0
  2  1  1  0  0  0  0
  3  2  2  0  0  0  0
  4  2  1  6  0  0  0
  4  8  1  0  0  0  0
  5  4  1  0  0  0  0
  5  6  1  0  0  0  0
  6 11  1  0  0  0  0
  6  7  1  0  0  0  0
  7 19  1  0  0  0  0
  8  9  1  0  0  0  0
  8  7  2  0  0  0  0
  9 10  2  0  0  0  0
 12 18  1  0  0  0  0
 12  1  1  0  0  0  0
 13 12  2  0  0  0  0
 14 16  2  0  0  0  0
 14 13  1  0  0  0  0
 15 14  1  0  0  0  0
 16 17  1  0  0  0  0
 17 18  2  0  0  0  0
 19 24  1  0  0  0  0
 19 20  2  0  0  0  0
 20 21  1  0  0  0  0
 21 23  1  0  0  0  0
 22 21  1  0  0  0  0
 24 22  2  0  0  0  0
 25 24  1  0  0  0  0
M  END
>  <Pose>
1

>  <Score>
-8.231

$$$$
