MODEL 1
REMARK VINA RESULT:    -8.231      0.000      0.000
REMARK INTER + INTRA:          -9.844
REMARK INTER:                  -9.193
REMARK INTRA:                  -0.651
REMARK UNBOUND:                -0.651
REMARK  2 active torsions:
REMARK  status: ('A' for Active; 'I' for Inactive)
REMARK    1  A    between atoms: C_4  and  N_8 
REMARK    2  A    between atoms: C_14  and  C_18 
ROOT
ATOM      1  N   UNK d   1      18.985  62.729 -10.207  0.00  0.00    -0.246 N 
ATOM      2  C   UNK d   1      19.896  63.217 -11.217  0.00  0.00     0.268 C 
ATOM      3  O   UNK d   1      19.622  63.734 -12.305  0.00  0.00    -0.269 OA
ATOM      4  C   UNK d   1      21.283  62.990 -10.717  0.00  0.00     0.285 C 
ATOM      5  O   UNK d   1      22.184  63.978 -11.068  0.00  0.00    -0.260 OA
ATOM      6  N   UNK d   1      23.051  63.953 -10.002  0.00  0.00    -0.264 N 
ATOM      7  C   UNK d   1      22.195  63.879  -8.848  0.00  0.00     0.083 C 
ATOM      8  C   UNK d   1      21.092  63.292  -9.244  0.00  0.00     0.080 C 
ATOM      9  C   UNK d   1      19.742  62.780  -8.977  0.00  0.00     0.266 C 
ATOM     10  O   UNK d   1      19.365  62.455  -7.847  0.00  0.00    -0.267 OA
ATOM     11  H   UNK d   1      24.076  63.980  -9.998  0.00  0.00     0.194 HD
ENDROOT
BRANCH   1  12
ATOM     12  C   UNK d   1      17.654  62.306 -10.423  0.00  0.00     0.047 A 
ATOM     13  C   UNK d   1      16.679  63.223 -10.742  0.00  0.00     0.049 A 
ATOM     14  C   UNK d   1      15.353  62.831 -10.955  0.00  0.00     0.013 A 
ATOM     15 Br   UNK d   1      14.025  64.122 -11.394  0.00  0.00    -0.051 Br
ATOM     16  C   UNK d   1      14.976  61.513 -10.854  0.00  0.00     0.019 A 
ATOM     17  C   UNK d   1      15.951  60.592 -10.535  0.00  0.00     0.004 A 
ATOM     18  C   UNK d   1      17.278  60.989 -10.322  0.00  0.00     0.030 A 
ENDBRANCH   1  12
BRANCH   7  19
ATOM     19  C   UNK d   1      22.447  64.349  -7.512  0.00  0.00     0.036 A 
ATOM     20  C   UNK d   1      23.192  63.617  -6.589  0.00  0.00     0.127 A 
ATOM     21  N   UNK d   1      23.276  64.303  -5.435  0.00  0.00    -0.284 N 
ATOM     22  N   UNK d   1      22.606  65.425  -5.634  0.00  0.00    -0.177 NA
ATOM     23  C   UNK d   1      23.974  63.878  -4.211  0.00  0.00     0.179 C 
ATOM     24  C   UNK d   1      22.090  65.506  -6.859  0.00  0.00     0.065 A 
ATOM     25  C   UNK d   1      21.279  66.622  -7.453  0.00  0.00     0.073 C 
ENDBRANCH   7  19
TORSDOF 2
ENDMDL
