MODEL 1
REMARK VINA RESULT:    -7.920      0.000      0.000
REMARK INTER + INTRA:         -10.951
REMARK INTER:                 -10.236
REMARK INTRA:                  -0.715
REMARK UNBOUND:                -0.715
REMARK  5 active torsions:
REMARK  status: ('A' for Active; 'I' for Inactive)
REMARK    1  A    between atoms: C_4  and  N_8 
REMARK    2  A    between atoms: C_10  and  C_14 
REMARK       I    between atoms: C_14  and  N_16 
REMARK    3  A    between atoms: N_19  and  C_22 
REMARK    4  A    between atoms: C_22  and  C_23 
REMARK    5  A    between atoms: C_23  and  N_24 
ROOT
ATOM      1  C   UNK d   1      22.670  63.784  -9.318  0.00  0.00     0.226 C 
ATOM      2  O   UNK d   1      23.753  63.985  -9.922  0.00  0.00    -0.273 OA
ATOM      3  N   UNK d   1      22.538  64.010  -7.932  0.00  0.00    -0.348 N 
ATOM      4  C   UNK d   1      21.298  63.790  -7.200  0.00  0.00     0.156 C 
ATOM      5  C   UNK d   1      21.266  64.724  -5.997  0.00  0.00     0.292 C 
ATOM      6  N   UNK d   1      22.038  65.933  -6.204  0.00  0.00     0.093 N 
ATOM      7  C   UNK d   1      23.419  65.604  -6.260  0.00  0.00     0.292 C 
ATOM      8  C   UNK d   1      23.721  64.493  -7.208  0.00  0.00     0.156 C 
ENDROOT
BRANCH   1   9
ATOM      9  C   UNK d   1      21.535  63.309 -10.085  0.00  0.00     0.105 C 
ATOM     10  C   UNK d   1      20.451  64.392 -10.263  0.00  0.00     0.146 C 
ATOM     11  N   UNK d   1      19.553  63.605 -11.094  0.00  0.00    -0.317 N 
ATOM     12  C   UNK d   1      20.427  63.034 -12.062  0.00  0.00     0.225 C 
ATOM     13  C   UNK d   1      21.832  63.094 -11.573  0.00  0.00     0.119 C 
ATOM     14  O   UNK d   1      20.066  62.553 -13.161  0.00  0.00    -0.273 OA
BRANCH  11  15
ATOM     15  C   UNK d   1      18.159  63.495 -10.893  0.00  0.00     0.038 A 
ATOM     16  C   UNK d   1      17.565  62.247 -10.856  0.00  0.00     0.048 A 
ATOM     17  C   UNK d   1      16.198  62.073 -10.669  0.00  0.00     0.013 A 
ATOM     18 Br   UNK d   1      15.486  60.323 -10.634  0.00  0.00    -0.051 Br
ATOM     19  C   UNK d   1      15.399  63.204 -10.515  0.00  0.00     0.019 A 
ATOM     20  C   UNK d   1      15.947  64.468 -10.545  0.00  0.00     0.004 A 
ATOM     21  C   UNK d   1      17.310  64.567 -10.734  0.00  0.00     0.030 A 
ENDBRANCH  11  15
ENDBRANCH   1   9
BRANCH   6  22
ATOM     22  C   UNK d   1      21.518  66.738  -7.252  0.00  0.00     0.292 C 
BRANCH  22  23
ATOM     23  C   UNK d   1      21.184  68.148  -6.837  0.00  0.00     0.159 C 
BRANCH  23  24
ATOM     24  N   UNK d   1      22.330  68.956  -6.533  0.00  0.00    -0.348 N 
ATOM     25  C   UNK d   1      23.480  69.051  -7.203  0.00  0.00     0.209 A 
ATOM     26  N   UNK d   1      24.299  69.921  -6.573  0.00  0.00    -0.255 NA
ATOM     27  C   UNK d   1      23.662  70.383  -5.490  0.00  0.00     0.135 A 
ATOM     28  C   UNK d   1      22.430  69.771  -5.475  0.00  0.00     0.111 A 
ENDBRANCH  23  24
ENDBRANCH  22  23
ENDBRANCH   6  22
TORSDOF 5
ENDMDL
