/Users/jonathanwahrer/Desktop/Msc/3_Semester/Drug_Design_Praktikum/waehrer_HTS_screening/HTS_experiment/out/docking_results/vina_output/3sx0/0216_docked.pdbqt
 OpenBabel03192221333D

 28 31  0  0  1  0  0  0  0  0999 V2000
   22.6700   63.7840   -9.3180 C   0  0  0  0  0  0  0  0  0  0  0  0
   23.7530   63.9850   -9.9220 O   0  0  0  0  0  0  0  0  0  0  0  0
   22.5380   64.0100   -7.9320 N   0  0  0  0  0  0  0  0  0  0  0  0
   21.2980   63.7900   -7.2000 C   0  0  0  0  0  2  0  0  0  0  0  0
   21.2660   64.7240   -5.9970 C   0  0  0  0  0  2  0  0  0  0  0  0
   22.0380   65.9330   -6.2040 N   0  0  0  0  0  0  0  0  0  0  0  0
   23.4190   65.6040   -6.2600 C   0  0  0  0  0  2  0  0  0  0  0  0
   23.7210   64.4930   -7.2080 C   0  0  0  0  0  2  0  0  0  0  0  0
   21.5350   63.3090  -10.0850 C   0  0  1  0  0  3  0  0  0  0  0  0
   20.4510   64.3920  -10.2630 C   0  0  0  0  0  2  0  0  0  0  0  0
   19.5530   63.6050  -11.0940 N   0  0  0  0  0  0  0  0  0  0  0  0
   20.4270   63.0340  -12.0620 C   0  0  0  0  0  0  0  0  0  0  0  0
   21.8320   63.0940  -11.5730 C   0  0  0  0  0  2  0  0  0  0  0  0
   20.0660   62.5530  -13.1610 O   0  0  0  0  0  0  0  0  0  0  0  0
   18.1590   63.4950  -10.8930 C   0  0  0  0  0  0  0  0  0  0  0  0
   17.5650   62.2470  -10.8560 C   0  0  0  0  0  3  0  0  0  0  0  0
   16.1980   62.0730  -10.6690 C   0  0  0  0  0  0  0  0  0  0  0  0
   15.4860   60.3230  -10.6340 Br  0  0  0  0  0  0  0  0  0  0  0  0
   15.3990   63.2040  -10.5150 C   0  0  0  0  0  3  0  0  0  0  0  0
   15.9470   64.4680  -10.5450 C   0  0  0  0  0  3  0  0  0  0  0  0
   17.3100   64.5670  -10.7340 C   0  0  0  0  0  3  0  0  0  0  0  0
   21.5180   66.7380   -7.2520 C   0  0  0  0  0  2  0  0  0  0  0  0
   21.1840   68.1480   -6.8370 C   0  0  0  0  0  2  0  0  0  0  0  0
   22.3300   68.9560   -6.5330 N   0  0  0  0  0  0  0  0  0  0  0  0
   23.4800   69.0510   -7.2030 C   0  0  0  0  0  3  0  0  0  0  0  0
   24.2990   69.9210   -6.5730 N   0  0  0  0  0  0  0  0  0  0  0  0
   23.6620   70.3830   -5.4900 C   0  0  0  0  0  3  0  0  0  0  0  0
   22.4300   69.7710   -5.4750 C   0  0  0  0  0  3  0  0  0  0  0  0
  1  3  1  0  0  0  0
  2  1  2  0  0  0  0
  3  8  1  0  0  0  0
  3  4  1  0  0  0  0
  4  5  1  0  0  0  0
  6  5  1  0  0  0  0
  7  6  1  0  0  0  0
  8  7  1  0  0  0  0
  9  1  1  1  0  0  0
 10  9  1  0  0  0  0
 11 15  1  0  0  0  0
 11 10  1  0  0  0  0
 12 13  1  0  0  0  0
 12 11  1  0  0  0  0
 13  9  1  0  0  0  0
 14 12  2  0  0  0  0
 15 16  2  0  0  0  0
 15 21  1  0  0  0  0
 16 17  1  0  0  0  0
 17 18  1  0  0  0  0
 17 19  2  0  0  0  0
 20 19  1  0  0  0  0
 21 20  2  0  0  0  0
 22 23  1  0  0  0  0
 22  6  1  0  0  0  0
 23 24  1  0  0  0  0
 24 28  1  0  0  0  0
 25 26  2  0  0  0  0
 25 24  1  0  0  0  0
 26 27  1  0  0  0  0
 27 28  2  0  0  0  0
M  END
>  <Pose>
1

>  <Score>
-7.920

$$$$
