/Users/jonathanwahrer/Desktop/Msc/3_Semester/Drug_Design_Praktikum/waehrer_HTS_screening/HTS_experiment/out/docking_results/vina_output/3sx0/0219_docked.pdbqt
 OpenBabel03192221343D

 27 30  0  0  1  0  0  0  0  0999 V2000
   22.4250   65.2070   -8.3760 N   0  0  0  0  0  0  0  0  0  0  0  0
   22.8930   64.0040   -8.9710 C   0  0  0  0  0  0  0  0  0  0  0  0
   23.7400   63.3480   -8.2690 O   0  0  0  0  0  0  0  0  0  0  0  0
   21.7300   65.7790   -8.9010 H   0  0  0  0  0  0  0  0  0  0  0  0
   22.4770   63.4930  -10.2930 C   0  0  0  0  0  2  0  0  0  0  0  0
   21.1120   63.0470  -10.3620 N   0  0  0  0  0  0  0  0  0  0  0  0
   20.4840   62.7070  -11.6100 C   0  0  0  0  0  0  0  0  0  0  0  0
   20.8620   63.0080  -12.7690 O   0  0  0  0  0  0  0  0  0  0  0  0
   19.2870   61.9250  -11.3030 C   0  0  1  0  0  3  0  0  0  0  0  0
   19.2160   61.7940   -9.7690 C   0  0  2  0  0  3  0  0  0  0  0  0
   17.9840   62.6260  -11.5730 C   0  0  1  0  0  3  0  0  0  0  0  0
   17.8350   62.1890   -9.3820 C   0  0  2  0  0  3  0  0  0  0  0  0
   20.1650   62.8410   -9.3060 C   0  0  0  0  0  0  0  0  0  0  0  0
   17.0560   61.8030  -10.6570 C   0  0  0  0  0  2  0  0  0  0  0  0
   17.7390   63.6640   -9.5160 C   0  0  0  0  0  2  0  0  0  0  0  0
   17.9760   63.9140  -10.8000 C   0  0  0  0  0  2  0  0  0  0  0  0
   20.1640   63.4440   -8.2190 O   0  0  0  0  0  0  0  0  0  0  0  0
   22.8680   65.6610   -7.0920 C   0  0  0  0  0  2  0  0  0  0  0  0
   22.0500   64.9930   -5.9760 C   0  0  0  0  0  2  0  0  0  0  0  0
   22.7960   64.2960   -5.1810 O   0  0  0  0  0  0  0  0  0  0  0  0
   23.6060   63.6170   -4.4570 C   0  0  0  0  0  0  0  0  0  0  0  0
   24.7710   63.0690   -5.0240 C   0  0  0  0  0  3  0  0  0  0  0  0
   25.6780   62.3350   -4.3090 C   0  0  0  0  0  0  0  0  0  0  0  0
   27.2490   61.6070   -5.1130 Br  0  0  0  0  0  0  0  0  0  0  0  0
   25.4720   62.1010   -2.9770 C   0  0  0  0  0  3  0  0  0  0  0  0
   24.3450   62.6120   -2.3640 C   0  0  0  0  0  3  0  0  0  0  0  0
   23.4370   63.3500   -3.0830 C   0  0  0  0  0  3  0  0  0  0  0  0
  1 18  1  0  0  0  0
  2  1  1  0  0  0  0
  2  3  2  0  0  0  0
  4  1  1  0  0  0  0
  5  2  1  0  0  0  0
  6  5  1  0  0  0  0
  6 13  1  0  0  0  0
  7  6  1  0  0  0  0
  8  7  2  0  0  0  0
  9  7  1  1  0  0  0
  9 10  1  0  0  0  0
 10 12  1  0  0  0  0
 10 13  1  1  0  0  0
 11  9  1  0  0  0  0
 11 16  1  1  0  0  0
 11 14  1  0  0  0  0
 12 14  1  6  0  0  0
 13 17  2  0  0  0  0
 15 12  1  0  0  0  0
 16 15  1  0  0  0  0
 18 19  1  0  0  0  0
 19 20  1  0  0  0  0
 20 21  1  0  0  0  0
 21 27  1  0  0  0  0
 22 21  2  0  0  0  0
 22 23  1  0  0  0  0
 23 25  2  0  0  0  0
 24 23  1  0  0  0  0
 25 26  1  0  0  0  0
 27 26  2  0  0  0  0
M  END
>  <Pose>
1

>  <Score>
-7.985

$$$$
