MODEL 1
REMARK VINA RESULT:    -5.615      0.000      0.000
REMARK INTER + INTRA:          -6.828
REMARK INTER:                  -7.913
REMARK INTRA:                   1.085
REMARK UNBOUND:                 1.085
REMARK  7 active torsions:
REMARK  status: ('A' for Active; 'I' for Inactive)
REMARK    1  A    between atoms: C_5  and  C_8 
REMARK    2  A    between atoms: C_8  and  C_10 
REMARK    3  A    between atoms: C_11  and  C_25 
REMARK    4  A    between atoms: N_12  and  C_17 
REMARK    5  A    between atoms: C_17  and  C_18 
REMARK    6  A    between atoms: C_18  and  N_19 
REMARK    7  A    between atoms: C_27  and  O_32 
ROOT
ATOM      1  C   UNK d   1      22.590  64.471  -9.090  0.00  0.00     0.167 C 
ATOM      2  C   UNK d   1      21.906  64.180 -10.403  0.00  0.00     0.140 C 
ATOM      3  N   UNK d   1      22.917  63.431 -11.113  0.00  0.00    -0.334 N 
ATOM      4  C   UNK d   1      23.613  62.669 -10.132  0.00  0.00     0.291 C 
ATOM      5  O   UNK d   1      24.481  61.773 -10.366  0.00  0.00    -0.264 OA
ATOM      6  C   UNK d   1      23.148  63.099  -8.799  0.00  0.00     0.230 C 
ATOM      7  O   UNK d   1      23.218  62.466  -7.734  0.00  0.00    -0.286 OA
ENDROOT
BRANCH   1   8
ATOM      8  C   UNK d   1      21.718  64.945  -8.031  0.00  0.00     0.173 C 
ATOM      9  O   UNK d   1      20.760  64.256  -7.624  0.00  0.00    -0.291 OA
BRANCH   8  10
ATOM     10  C   UNK d   1      21.952  66.241  -7.422  0.00  0.00     0.011 A 
ATOM     11  C   UNK d   1      23.118  66.487  -6.687  0.00  0.00     0.016 A 
ATOM     12  C   UNK d   1      23.359  67.701  -6.098  0.00  0.00     0.020 A 
ATOM     13  C   UNK d   1      22.436  68.711  -6.228  0.00  0.00     0.011 A 
ATOM     14 Br   UNK d   1      22.787  70.384  -5.405  0.00  0.00    -0.051 Br
ATOM     15  C   UNK d   1      21.276  68.534  -6.934  0.00  0.00     0.020 A 
ATOM     16  C   UNK d   1      21.067  67.296  -7.514  0.00  0.00     0.016 A 
ENDBRANCH   8  10
ENDBRANCH   1   8
BRANCH   2  17
ATOM     17  C   UNK d   1      20.628  63.496 -10.279  0.00  0.00    -0.031 A 
ATOM     18  C   UNK d   1      19.423  64.093 -10.676  0.00  0.00     0.049 A 
ATOM     19  C   UNK d   1      18.215  63.437 -10.559  0.00  0.00     0.105 A 
ATOM     20  C   UNK d   1      18.147  62.155 -10.044  0.00  0.00     0.140 A 
ATOM     21  C   UNK d   1      19.320  61.549  -9.649  0.00  0.00     0.043 A 
ATOM     22  O   UNK d   1      16.944  61.472  -9.916  0.00  0.00    -0.189 OA
ATOM     23  C   UNK d   1      20.526  62.222  -9.772  0.00  0.00     0.012 A 
BRANCH  19  24
ATOM     24  O   UNK d   1      17.023  64.021 -10.948  0.00  0.00    -0.353 OA
ATOM     25  C   UNK d   1      16.220  64.794 -10.093  0.00  0.00     0.210 C 
ENDBRANCH  19  24
ENDBRANCH   2  17
BRANCH   3  26
ATOM     26  C   UNK d   1      23.229  63.401 -12.520  0.00  0.00     0.154 C 
BRANCH  26  27
ATOM     27  C   UNK d   1      24.697  63.297 -12.806  0.00  0.00     0.255 C 
BRANCH  27  28
ATOM     28  N   UNK d   1      25.230  64.309 -13.633  0.00  0.00    -0.066 N 
ATOM     29  C   UNK d   1      24.516  64.274 -14.914  0.00  0.00     0.261 C 
ATOM     30  C   UNK d   1      24.859  63.070 -15.728  0.00  0.00     0.195 C 
ATOM     31  O   UNK d   1      25.975  62.388 -15.307  0.00  0.00    -0.388 OA
ATOM     32  C   UNK d   1      26.994  63.250 -14.984  0.00  0.00     0.195 C 
ATOM     33  C   UNK d   1      26.620  64.240 -13.914  0.00  0.00     0.261 C 
ATOM     34  H   UNK d   1      25.023  65.270 -13.241  0.00  0.00     0.280 HD
ENDBRANCH  27  28
ENDBRANCH  26  27
ENDBRANCH   3  26
TORSDOF 7
ENDMDL
