/Users/jonathanwahrer/Desktop/Msc/3_Semester/Drug_Design_Praktikum/waehrer_HTS_screening/HTS_experiment/out/docking_results/vina_output/3sx0/0235_docked.pdbqt
 OpenBabel03192221343D

 25 28  0  0  1  0  0  0  0  0999 V2000
   20.6590   63.2040   -8.9260 C   0  0  1  0  0  3  0  0  0  0  0  0
   21.9220   63.0930   -9.6390 N   0  0  0  0  0  0  0  0  0  0  0  0
   22.4160   63.4360  -10.8810 N   0  0  0  0  0  2  0  0  0  0  0  0
   23.6520   63.3130  -11.2150 C   0  0  0  0  0  3  0  0  0  0  0  0
   24.5990   62.7780  -10.2640 C   0  0  0  0  0  3  0  0  0  0  0  0
   24.2010   62.4020   -9.0710 C   0  0  0  0  0  3  0  0  0  0  0  0
   22.8140   62.4890   -8.6530 C   0  0  0  0  0  0  0  0  0  0  0  0
   22.5370   63.3320   -7.4580 C   0  0  2  0  0  3  0  0  0  0  0  0
   21.1200   63.8840   -7.6560 C   0  0  1  0  0  3  0  0  0  0  0  0
   21.3200   65.3220   -7.8160 C   0  0  0  0  0  0  0  0  0  0  0  0
   20.4650   66.1370   -8.2610 O   0  0  0  0  0  0  0  0  0  0  0  0
   22.6290   65.6520   -7.3930 N   0  0  0  0  0  0  0  0  0  0  0  0
   23.4360   64.4840   -7.3220 C   0  0  0  0  0  0  0  0  0  0  0  0
   24.6810   64.4360   -7.1700 O   0  0  0  0  0  0  0  0  0  0  0  0
   19.6850   64.0040   -9.6820 C   0  0  0  0  0  0  0  0  0  0  0  0
   20.0640   65.1660  -10.0430 O   0  0  0  0  0  0  0  0  0  0  0  0
   18.3510   63.5800  -10.0430 C   0  0  0  0  0  0  0  0  0  0  0  0
   17.3280   64.4670  -10.2560 C   0  0  0  0  0  3  0  0  0  0  0  0
   16.0780   64.0070  -10.6020 C   0  0  0  0  0  3  0  0  0  0  0  0
   15.7790   62.6710  -10.7530 C   0  0  0  0  0  0  0  0  0  0  0  0
   14.0220   62.0990  -11.2360 Br  0  0  0  0  0  0  0  0  0  0  0  0
   16.8100   61.7820  -10.5380 C   0  0  0  0  0  3  0  0  0  0  0  0
   18.0630   62.2330  -10.1920 C   0  0  0  0  0  3  0  0  0  0  0  0
   23.1030   66.9780   -7.0720 C   0  0  0  0  0  2  0  0  0  0  0  0
   22.1140   67.7980   -6.3000 C   0  0  0  0  0  1  0  0  0  0  0  0
  1 15  1  6  0  0  0
  1  9  1  0  0  0  0
  2  1  1  0  0  0  0
  2  7  1  0  0  0  0
  3  2  1  0  0  0  0
  4  3  1  0  0  0  0
  4  5  2  0  0  0  0
  5  6  1  0  0  0  0
  6  7  2  0  0  0  0
  8  7  1  6  0  0  0
  8 13  1  0  0  0  0
  9 10  1  6  0  0  0
  9  8  1  0  0  0  0
 10 12  1  0  0  0  0
 11 10  2  0  0  0  0
 12 13  1  0  0  0  0
 12 24  1  0  0  0  0
 13 14  2  0  0  0  0
 16 15  2  0  0  0  0
 17 15  1  0  0  0  0
 18 17  2  0  0  0  0
 19 18  1  0  0  0  0
 20 19  2  0  0  0  0
 20 22  1  0  0  0  0
 21 20  1  0  0  0  0
 22 23  2  0  0  0  0
 23 17  1  0  0  0  0
 24 25  1  0  0  0  0
M  END
>  <Pose>
1

>  <Score>
-5.205

$$$$
