MODEL 1
REMARK VINA RESULT:    -6.943      0.000      0.000
REMARK INTER + INTRA:          -7.892
REMARK INTER:                  -7.755
REMARK INTRA:                  -0.137
REMARK UNBOUND:                -0.137
REMARK  2 active torsions:
REMARK  status: ('A' for Active; 'I' for Inactive)
REMARK    1  A    between atoms: C_5  and  C_8 
REMARK       I    between atoms: C_8  and  N_10 
REMARK    2  A    between atoms: N_10  and  N_11 
ROOT
ATOM      1  N   UNK d   1      21.438  64.894  -8.889  0.00  0.00    -0.187 N 
ATOM      2  C   UNK d   1      21.874  65.798  -7.879  0.00  0.00     0.251 C 
ATOM      3  O   UNK d   1      21.089  66.678  -7.387  0.00  0.00    -0.271 OA
ATOM      4  C   UNK d   1      23.297  65.547  -7.533  0.00  0.00     0.101 C 
ATOM      5  C   UNK d   1      23.598  64.293  -8.330  0.00  0.00     0.101 C 
ATOM      6  C   UNK d   1      23.447  63.235  -7.258  0.00  0.00     0.022 C 
ATOM      7  C   UNK d   1      24.353  63.899  -6.200  0.00  0.00     0.018 C 
ATOM      8  C   UNK d   1      23.445  65.139  -6.094  0.00  0.00     0.022 C 
ATOM      9  C   UNK d   1      22.170  64.423  -5.735  0.00  0.00    -0.025 C 
ATOM     10  C   UNK d   1      22.146  63.372  -6.546  0.00  0.00    -0.025 C 
ATOM     11  C   UNK d   1      22.562  64.187  -9.373  0.00  0.00     0.251 C 
ATOM     12  O   UNK d   1      22.681  63.584 -10.461  0.00  0.00    -0.271 OA
ENDROOT
BRANCH   1  13
ATOM     13  N   UNK d   1      20.127  64.674  -9.386  0.00  0.00    -0.254 N 
ATOM     14  C   UNK d   1      19.524  63.400  -9.332  0.00  0.00     0.270 C 
ATOM     15  O   UNK d   1      20.127  62.394  -8.833  0.00  0.00    -0.266 OA
ATOM     16  H   UNK d   1      19.610  65.476  -9.789  0.00  0.00     0.191 HD
BRANCH  14  17
ATOM     17  C   UNK d   1      18.190  63.195  -9.844  0.00  0.00     0.033 A 
ATOM     18  C   UNK d   1      17.779  61.903 -10.155  0.00  0.00     0.018 A 
ATOM     19  C   UNK d   1      16.518  61.660 -10.659  0.00  0.00     0.020 A 
ATOM     20  C   UNK d   1      15.644  62.688 -10.863  0.00  0.00     0.011 A 
ATOM     21 Br   UNK d   1      13.902  62.326 -11.565  0.00  0.00    -0.051 Br
ATOM     22  C   UNK d   1      16.040  63.989 -10.555  0.00  0.00     0.020 A 
ATOM     23  C   UNK d   1      17.296  64.219 -10.056  0.00  0.00     0.018 A 
ENDBRANCH  14  17
ENDBRANCH   1  13
TORSDOF 2
ENDMDL
