MODEL 1
REMARK VINA RESULT:    -8.891      0.000      0.000
REMARK INTER + INTRA:         -11.170
REMARK INTER:                 -12.010
REMARK INTRA:                   0.840
REMARK UNBOUND:                 0.840
REMARK  6 active torsions:
REMARK  status: ('A' for Active; 'I' for Inactive)
REMARK    1  A    between atoms: C_5  and  C_8 
REMARK    2  A    between atoms: C_10  and  C_24 
REMARK    3  A    between atoms: N_11  and  C_16 
REMARK    4  A    between atoms: C_16  and  C_17 
REMARK    5  A    between atoms: C_17  and  N_18 
REMARK    6  A    between atoms: C_26  and  N_30 
ROOT
ATOM      1  C   UNK d   1      20.096  63.219  -9.652  0.00  0.00     0.130 C 
ATOM      2  C   UNK d   1      20.915  63.452 -10.643  0.00  0.00     0.062 C 
ATOM      3  C   UNK d   1      22.299  64.041 -10.561  0.00  0.00     0.161 C 
ATOM      4  N   UNK d   1      22.989  63.409 -11.633  0.00  0.00    -0.331 N 
ATOM      5  C   UNK d   1      22.007  63.116 -12.656  0.00  0.00     0.295 C 
ATOM      6  O   UNK d   1      22.218  62.880 -13.870  0.00  0.00    -0.264 OA
ATOM      7  C   UNK d   1      20.687  63.139 -12.035  0.00  0.00     0.250 C 
ATOM      8  O   UNK d   1      19.583  62.919 -12.640  0.00  0.00    -0.282 OA
ATOM      9  O   UNK d   1      20.526  63.537  -8.344  0.00  0.00    -0.190 OA
ENDROOT
BRANCH   1  10
ATOM     10  C   UNK d   1      18.778  62.649  -9.882  0.00  0.00     0.001 A 
ATOM     11  C   UNK d   1      17.761  63.566 -10.144  0.00  0.00     0.015 A 
ATOM     12  C   UNK d   1      16.492  63.143 -10.420  0.00  0.00     0.020 A 
ATOM     13  C   UNK d   1      16.232  61.791 -10.436  0.00  0.00     0.011 A 
ATOM     14 Br   UNK d   1      14.435  61.231 -10.829  0.00  0.00    -0.051 Br
ATOM     15  C   UNK d   1      17.234  60.879 -10.179  0.00  0.00     0.020 A 
ATOM     16  C   UNK d   1      18.511  61.320  -9.901  0.00  0.00     0.015 A 
ENDBRANCH   1  10
BRANCH   3  17
ATOM     17  C   UNK d   1      22.854  63.913  -9.219  0.00  0.00    -0.028 A 
ATOM     18  C   UNK d   1      22.742  64.834  -8.212  0.00  0.00     0.045 A 
ATOM     19  C   UNK d   1      23.287  64.634  -6.971  0.00  0.00     0.103 A 
ATOM     20  C   UNK d   1      23.973  63.478  -6.714  0.00  0.00     0.036 A 
ATOM     21  C   UNK d   1      24.121  62.505  -7.698  0.00  0.00     0.003 A 
ATOM     22  C   UNK d   1      23.563  62.737  -8.929  0.00  0.00     0.010 A 
BRANCH  19  23
ATOM     23  N   UNK d   1      23.131  65.624  -5.980  0.00  0.00    -0.116 N 
ATOM     24  O   UNK d   1      22.720  65.357  -4.822  0.00  0.00    -0.532 OA
ATOM     25  O   UNK d   1      23.442  66.926  -6.300  0.00  0.00    -0.532 OA
ENDBRANCH  19  23
ENDBRANCH   3  17
BRANCH   4  26
ATOM     26  C   UNK d   1      24.383  63.087 -11.873  0.00  0.00     0.155 C 
BRANCH  26  27
ATOM     27  C   UNK d   1      25.117  64.030 -12.771  0.00  0.00     0.255 C 
BRANCH  27  28
ATOM     28  N   UNK d   1      25.560  63.404 -14.007  0.00  0.00    -0.066 N 
ATOM     29  C   UNK d   1      26.897  63.878 -14.378  0.00  0.00     0.261 C 
ATOM     30  C   UNK d   1      27.295  63.026 -15.591  0.00  0.00     0.195 C 
ATOM     31  O   UNK d   1      26.426  63.179 -16.644  0.00  0.00    -0.388 OA
ATOM     32  C   UNK d   1      25.094  62.981 -16.315  0.00  0.00     0.195 C 
ATOM     33  C   UNK d   1      24.687  63.768 -15.094  0.00  0.00     0.261 C 
ATOM     34  H   UNK d   1      25.630  62.384 -13.962  0.00  0.00     0.280 HD
ENDBRANCH  27  28
ENDBRANCH  26  27
ENDBRANCH   4  26
TORSDOF 6
ENDMDL
