MODEL 1
REMARK VINA RESULT:    -7.863      0.000      0.000
REMARK INTER + INTRA:          -9.170
REMARK INTER:                 -11.080
REMARK INTRA:                   1.910
REMARK UNBOUND:                 1.910
REMARK  7 active torsions:
REMARK  status: ('A' for Active; 'I' for Inactive)
REMARK    1  A    between atoms: C_5  and  C_8 
REMARK    2  A    between atoms: C_10  and  C_24 
REMARK    3  A    between atoms: N_11  and  C_16 
REMARK    4  A    between atoms: C_16  and  C_17 
REMARK    5  A    between atoms: C_17  and  N_18 
REMARK    6  A    between atoms: C_27  and  C_30 
REMARK    7  A    between atoms: C_30  and  O_32 
ROOT
ATOM      1  C   UNK d   1      23.332  63.196 -10.605  0.00  0.00     0.130 C 
ATOM      2  C   UNK d   1      22.022  63.106 -10.677  0.00  0.00     0.062 A 
ATOM      3  C   UNK d   1      21.079  62.982  -9.507  0.00  0.00     0.161 A 
ATOM      4  N   UNK d   1      19.779  62.830 -10.063  0.00  0.00    -0.331 N 
ATOM      5  C   UNK d   1      19.805  62.985 -11.497  0.00  0.00     0.295 A 
ATOM      6  O   UNK d   1      18.856  62.981 -12.294  0.00  0.00    -0.264 OA
ATOM      7  C   UNK d   1      21.224  63.161 -11.880  0.00  0.00     0.250 A 
ATOM      8  O   UNK d   1      21.640  63.332 -13.071  0.00  0.00    -0.282 OA
ATOM      9  O   UNK d   1      23.875  63.180  -9.300  0.00  0.00    -0.190 OA
ENDROOT
BRANCH   3  10
ATOM     10  C   UNK d   1      21.217  64.281  -8.778  0.00  0.00    -0.030 A 
ATOM     11  C   UNK d   1      21.710  64.258  -7.512  0.00  0.00     0.011 A 
ATOM     12  C   UNK d   1      21.854  65.426  -6.791  0.00  0.00     0.018 A 
ATOM     13  C   UNK d   1      21.499  66.622  -7.353  0.00  0.00     0.039 A 
ATOM     14  C   UNK d   1      21.003  66.643  -8.631  0.00  0.00     0.018 A 
ATOM     15  C   UNK d   1      20.857  65.474  -9.360  0.00  0.00     0.011 A 
BRANCH  13  16
ATOM     16  C   UNK d   1      21.643  67.869  -6.597  0.00  0.00     0.292 C 
ATOM     17  O   UNK d   1      20.662  68.649  -6.497  0.00  0.00    -0.259 OA
BRANCH  16  18
ATOM     18  O   UNK d   1      22.809  68.241  -5.985  0.00  0.00    -0.323 OA
ATOM     19  C   UNK d   1      23.560  69.366  -6.380  0.00  0.00     0.213 C 
ENDBRANCH  16  18
ENDBRANCH  13  16
ENDBRANCH   3  10
BRANCH   4  20
ATOM     20  C   UNK d   1      18.546  62.567  -9.371  0.00  0.00     0.155 C 
BRANCH  20  21
ATOM     21  C   UNK d   1      17.575  61.707 -10.105  0.00  0.00     0.255 C 
BRANCH  21  22
ATOM     22  N   UNK d   1      16.495  62.403 -10.740  0.00  0.00    -0.066 N 
ATOM     23  C   UNK d   1      16.184  63.683 -10.138  0.00  0.00     0.261 C 
ATOM     24  C   UNK d   1      15.170  64.363 -11.035  0.00  0.00     0.195 C 
ATOM     25  O   UNK d   1      13.986  63.595 -10.926  0.00  0.00    -0.388 OA
ATOM     26  C   UNK d   1      14.264  62.380 -11.558  0.00  0.00     0.195 C 
ATOM     27  C   UNK d   1      15.245  61.620 -10.680  0.00  0.00     0.261 C 
ATOM     28  H   UNK d   1      16.652  62.512 -11.777  0.00  0.00     0.280 HD
ENDBRANCH  21  22
ENDBRANCH  20  21
ENDBRANCH   4  20
BRANCH   1  29
ATOM     29  C   UNK d   1      24.201  63.308 -11.767  0.00  0.00     0.001 A 
ATOM     30  C   UNK d   1      25.557  62.973 -11.668  0.00  0.00     0.015 A 
ATOM     31  C   UNK d   1      26.421  63.026 -12.741  0.00  0.00     0.020 A 
ATOM     32  C   UNK d   1      25.972  63.419 -13.983  0.00  0.00     0.011 A 
ATOM     33 Br   UNK d   1      27.192  63.487 -15.455  0.00  0.00    -0.051 Br
ATOM     34  C   UNK d   1      24.644  63.753 -14.107  0.00  0.00     0.020 A 
ATOM     35  C   UNK d   1      23.771  63.697 -13.014  0.00  0.00     0.015 A 
ENDBRANCH   1  29
TORSDOF 7
ENDMDL
