/Users/jonathanwahrer/Desktop/Msc/3_Semester/Drug_Design_Praktikum/waehrer_HTS_screening/HTS_experiment/out/docking_results/vina_output/3sx0/0265_docked.pdbqt
 OpenBabel03192221363D

 35 38  0  0  1  0  0  0  0  0999 V2000
   23.3320   63.1960  -10.6050 C   0  0  0  0  0  0  0  0  0  0  0  0
   22.0220   63.1060  -10.6770 C   0  0  0  0  0  0  0  0  0  0  0  0
   21.0790   62.9820   -9.5070 C   0  0  2  0  0  3  0  0  0  0  0  0
   19.7790   62.8300  -10.0630 N   0  0  0  0  0  0  0  0  0  0  0  0
   19.8050   62.9850  -11.4970 C   0  0  0  0  0  0  0  0  0  0  0  0
   18.8560   62.9810  -12.2940 O   0  0  0  0  0  0  0  0  0  0  0  0
   21.2240   63.1610  -11.8800 C   0  0  0  0  0  0  0  0  0  0  0  0
   21.6400   63.3320  -13.0710 O   0  0  0  0  0  0  0  0  0  0  0  0
   23.8750   63.1800   -9.3000 O   0  0  0  0  0  1  0  0  0  0  0  0
   21.2170   64.2810   -8.7780 C   0  0  0  0  0  0  0  0  0  0  0  0
   21.7100   64.2580   -7.5120 C   0  0  0  0  0  3  0  0  0  0  0  0
   21.8540   65.4260   -6.7910 C   0  0  0  0  0  3  0  0  0  0  0  0
   21.4990   66.6220   -7.3530 C   0  0  0  0  0  0  0  0  0  0  0  0
   21.0030   66.6430   -8.6310 C   0  0  0  0  0  3  0  0  0  0  0  0
   20.8570   65.4740   -9.3600 C   0  0  0  0  0  3  0  0  0  0  0  0
   21.6430   67.8690   -6.5970 C   0  0  0  0  0  0  0  0  0  0  0  0
   20.6620   68.6490   -6.4970 O   0  0  0  0  0  0  0  0  0  0  0  0
   22.8090   68.2410   -5.9850 O   0  0  0  0  0  0  0  0  0  0  0  0
   23.5600   69.3660   -6.3800 C   0  0  0  0  0  1  0  0  0  0  0  0
   18.5460   62.5670   -9.3710 C   0  0  0  0  0  2  0  0  0  0  0  0
   17.5750   61.7070  -10.1050 C   0  0  0  0  0  2  0  0  0  0  0  0
   16.4950   62.4030  -10.7400 N   0  0  0  0  0  4  0  0  0  0  0  0
   16.1840   63.6830  -10.1380 C   0  0  0  0  0  2  0  0  0  0  0  0
   15.1700   64.3630  -11.0350 C   0  0  0  0  0  2  0  0  0  0  0  0
   13.9860   63.5950  -10.9260 O   0  0  0  0  0  0  0  0  0  0  0  0
   14.2640   62.3800  -11.5580 C   0  0  0  0  0  2  0  0  0  0  0  0
   15.2450   61.6200  -10.6800 C   0  0  0  0  0  2  0  0  0  0  0  0
   16.6520   62.5120  -11.7770 H   0  0  0  0  0  0  0  0  0  0  0  0
   24.2010   63.3080  -11.7670 C   0  0  0  0  0  0  0  0  0  0  0  0
   25.5570   62.9730  -11.6680 C   0  0  0  0  0  3  0  0  0  0  0  0
   26.4210   63.0260  -12.7410 C   0  0  0  0  0  3  0  0  0  0  0  0
   25.9720   63.4190  -13.9830 C   0  0  0  0  0  0  0  0  0  0  0  0
   27.1920   63.4870  -15.4550 Br  0  0  0  0  0  0  0  0  0  0  0  0
   24.6440   63.7530  -14.1070 C   0  0  0  0  0  3  0  0  0  0  0  0
   23.7710   63.6970  -13.0140 C   0  0  0  0  0  3  0  0  0  0  0  0
  1  9  1  0  0  0  0
  2  1  2  0  0  0  0
  2  3  1  0  0  0  0
  3 10  1  1  0  0  0
  4  3  1  0  0  0  0
  4 20  1  0  0  0  0
  5  4  1  0  0  0  0
  6  5  2  0  0  0  0
  7  5  1  0  0  0  0
  7  2  1  0  0  0  0
  8  7  2  0  0  0  0
 10 11  1  0  0  0  0
 11 12  2  0  0  0  0
 13 12  1  0  0  0  0
 13 16  1  0  0  0  0
 14 13  2  0  0  0  0
 15 10  2  0  0  0  0
 15 14  1  0  0  0  0
 16 17  2  0  0  0  0
 16 18  1  0  0  0  0
 19 18  1  0  0  0  0
 21 20  1  0  0  0  0
 22 27  1  0  0  0  0
 22 23  1  0  0  0  0
 22 21  1  0  0  0  0
 24 25  1  0  0  0  0
 24 23  1  0  0  0  0
 26 25  1  0  0  0  0
 26 27  1  0  0  0  0
 28 22  1  0  0  0  0
 29 30  1  0  0  0  0
 29  1  1  0  0  0  0
 31 30  2  0  0  0  0
 32 31  1  0  0  0  0
 33 32  1  0  0  0  0
 34 32  2  0  0  0  0
 34 35  1  0  0  0  0
 35 29  2  0  0  0  0
M  END
>  <Pose>
1

>  <Score>
-7.863

$$$$
