MODEL 1
REMARK VINA RESULT:    -5.998      0.000      0.000
REMARK INTER + INTRA:          -8.688
REMARK INTER:                  -7.751
REMARK INTRA:                  -0.937
REMARK UNBOUND:                -0.937
REMARK  5 active torsions:
REMARK  status: ('A' for Active; 'I' for Inactive)
REMARK    1  A    between atoms: C_5  and  C_8 
REMARK    2  A    between atoms: C_10  and  C_24 
REMARK    3  A    between atoms: N_11  and  C_16 
REMARK    4  A    between atoms: C_16  and  C_17 
REMARK    5  A    between atoms: C_17  and  N_18 
ROOT
ATOM      1  C   UNK d   1      11.006  65.934 -14.141  0.00  0.00     0.130 C 
ATOM      2  C   UNK d   1      11.922  65.092 -14.580  0.00  0.00     0.062 C 
ATOM      3  C   UNK d   1      12.226  63.697 -14.148  0.00  0.00     0.161 C 
ATOM      4  N   UNK d   1      12.654  63.052 -15.400  0.00  0.00    -0.331 N 
ATOM      5  C   UNK d   1      13.346  64.061 -16.109  0.00  0.00     0.295 C 
ATOM      6  O   UNK d   1      14.182  63.854 -16.999  0.00  0.00    -0.264 OA
ATOM      7  C   UNK d   1      12.912  65.364 -15.618  0.00  0.00     0.250 C 
ATOM      8  O   UNK d   1      13.264  66.522 -15.956  0.00  0.00    -0.282 OA
ATOM      9  O   UNK d   1      10.166  65.493 -13.100  0.00  0.00    -0.190 OA
ENDROOT
BRANCH   1  10
ATOM     10  C   UNK d   1      10.802  67.279 -14.652  0.00  0.00     0.001 A 
ATOM     11  C   UNK d   1       9.970  67.524 -15.721  0.00  0.00     0.015 A 
ATOM     12  C   UNK d   1       9.793  68.801 -16.230  0.00  0.00     0.020 A 
ATOM     13  C   UNK d   1      10.449  69.878 -15.679  0.00  0.00     0.011 A 
ATOM     14 Br   UNK d   1      10.211  71.649 -16.375  0.00  0.00    -0.051 Br
ATOM     15  C   UNK d   1      11.284  69.648 -14.612  0.00  0.00     0.020 A 
ATOM     16  C   UNK d   1      11.457  68.357 -14.103  0.00  0.00     0.015 A 
ENDBRANCH   1  10
BRANCH   3  17
ATOM     17  C   UNK d   1      13.229  63.603 -13.085  0.00  0.00    -0.031 A 
ATOM     18  C   UNK d   1      13.456  62.394 -12.417  0.00  0.00     0.009 A 
ATOM     19  C   UNK d   1      14.373  62.240 -11.423  0.00  0.00     0.001 A 
ATOM     20  C   UNK d   1      15.140  63.319 -11.022  0.00  0.00     0.000 A 
ATOM     21  C   UNK d   1      14.940  64.512 -11.654  0.00  0.00     0.001 A 
ATOM     22  C   UNK d   1      13.998  64.668 -12.676  0.00  0.00     0.009 A 
ENDBRANCH   3  17
BRANCH   4  23
ATOM     23  C   UNK d   1      12.369  61.696 -15.698  0.00  0.00     0.155 C 
BRANCH  23  24
ATOM     24  C   UNK d   1      11.034  61.348 -16.215  0.00  0.00     0.255 C 
BRANCH  24  25
ATOM     25  N   UNK d   1      10.243  60.475 -15.403  0.00  0.00    -0.066 N 
ATOM     26  C   UNK d   1       9.161  59.827 -16.056  0.00  0.00     0.261 C 
ATOM     27  C   UNK d   1       7.865  60.470 -15.612  0.00  0.00     0.195 C 
ATOM     28  O   UNK d   1       7.972  61.854 -15.502  0.00  0.00    -0.388 OA
ATOM     29  C   UNK d   1       8.811  62.240 -14.473  0.00  0.00     0.195 C 
ATOM     30  C   UNK d   1       9.768  61.103 -14.190  0.00  0.00     0.261 C 
ATOM     31  H   UNK d   1      10.919  59.714 -15.083  0.00  0.00     0.280 HD
ENDBRANCH  24  25
ENDBRANCH  23  24
ENDBRANCH   4  23
TORSDOF 5
ENDMDL
