/Users/jonathanwahrer/Desktop/Msc/3_Semester/Drug_Design_Praktikum/waehrer_HTS_screening/HTS_experiment/out/docking_results/vina_output/3sx0/0274_docked.pdbqt
 OpenBabel03192221373D

 31 34  0  0  1  0  0  0  0  0999 V2000
   11.0060   65.9340  -14.1410 C   0  0  0  0  0  0  0  0  0  0  0  0
   11.9220   65.0920  -14.5800 C   0  0  0  0  0  0  0  0  0  0  0  0
   12.2260   63.6970  -14.1480 C   0  0  1  0  0  3  0  0  0  0  0  0
   12.6540   63.0520  -15.4000 N   0  0  0  0  0  0  0  0  0  0  0  0
   13.3460   64.0610  -16.1090 C   0  0  0  0  0  0  0  0  0  0  0  0
   14.1820   63.8540  -16.9990 O   0  0  0  0  0  0  0  0  0  0  0  0
   12.9120   65.3640  -15.6180 C   0  0  0  0  0  0  0  0  0  0  0  0
   13.2640   66.5220  -15.9560 O   0  0  0  0  0  0  0  0  0  0  0  0
   10.1660   65.4930  -13.1000 O   0  0  0  0  0  1  0  0  0  0  0  0
   10.8020   67.2790  -14.6520 C   0  0  0  0  0  0  0  0  0  0  0  0
    9.9700   67.5240  -15.7210 C   0  0  0  0  0  3  0  0  0  0  0  0
    9.7930   68.8010  -16.2300 C   0  0  0  0  0  3  0  0  0  0  0  0
   10.4490   69.8780  -15.6790 C   0  0  0  0  0  0  0  0  0  0  0  0
   10.2110   71.6490  -16.3750 Br  0  0  0  0  0  0  0  0  0  0  0  0
   11.2840   69.6480  -14.6120 C   0  0  0  0  0  3  0  0  0  0  0  0
   11.4570   68.3570  -14.1030 C   0  0  0  0  0  3  0  0  0  0  0  0
   13.2290   63.6030  -13.0850 C   0  0  0  0  0  0  0  0  0  0  0  0
   13.4560   62.3940  -12.4170 C   0  0  0  0  0  3  0  0  0  0  0  0
   14.3730   62.2400  -11.4230 C   0  0  0  0  0  3  0  0  0  0  0  0
   15.1400   63.3190  -11.0220 C   0  0  0  0  0  3  0  0  0  0  0  0
   14.9400   64.5120  -11.6540 C   0  0  0  0  0  3  0  0  0  0  0  0
   13.9980   64.6680  -12.6760 C   0  0  0  0  0  3  0  0  0  0  0  0
   12.3690   61.6960  -15.6980 C   0  0  0  0  0  2  0  0  0  0  0  0
   11.0340   61.3480  -16.2150 C   0  0  0  0  0  2  0  0  0  0  0  0
   10.2430   60.4750  -15.4030 N   0  0  0  0  0  4  0  0  0  0  0  0
    9.1610   59.8270  -16.0560 C   0  0  0  0  0  2  0  0  0  0  0  0
    7.8650   60.4700  -15.6120 C   0  0  0  0  0  2  0  0  0  0  0  0
    7.9720   61.8540  -15.5020 O   0  0  0  0  0  0  0  0  0  0  0  0
    8.8110   62.2400  -14.4730 C   0  0  0  0  0  2  0  0  0  0  0  0
    9.7680   61.1030  -14.1900 C   0  0  0  0  0  2  0  0  0  0  0  0
   10.9190   59.7140  -15.0830 H   0  0  0  0  0  0  0  0  0  0  0  0
  1  9  1  0  0  0  0
  2  3  1  0  0  0  0
  2  1  2  0  0  0  0
  3 17  1  1  0  0  0
  4  3  1  0  0  0  0
  5  7  1  0  0  0  0
  5  4  1  0  0  0  0
  6  5  2  0  0  0  0
  7  2  1  0  0  0  0
  8  7  2  0  0  0  0
 10  1  1  0  0  0  0
 10 16  1  0  0  0  0
 11 10  2  0  0  0  0
 12 11  1  0  0  0  0
 12 13  2  0  0  0  0
 13 15  1  0  0  0  0
 14 13  1  0  0  0  0
 15 16  2  0  0  0  0
 17 22  2  0  0  0  0
 17 18  1  0  0  0  0
 18 19  2  0  0  0  0
 19 20  1  0  0  0  0
 21 20  2  0  0  0  0
 22 21  1  0  0  0  0
 23  4  1  0  0  0  0
 24 23  1  0  0  0  0
 24 25  1  0  0  0  0
 25 31  1  0  0  0  0
 25 30  1  0  0  0  0
 26 27  1  0  0  0  0
 26 25  1  0  0  0  0
 27 28  1  0  0  0  0
 28 29  1  0  0  0  0
 29 30  1  0  0  0  0
M  END
>  <Pose>
1

>  <Score>
-5.998

$$$$
