/Users/jonathanwahrer/Desktop/Msc/3_Semester/Drug_Design_Praktikum/waehrer_HTS_screening/HTS_experiment/out/docking_results/vina_output/3sx0/0278_docked.pdbqt
 OpenBabel03192221373D

 30 33  0  0  1  0  0  0  0  0999 V2000
   21.6360   63.6470   -9.2050 N   0  0  0  0  0  0  0  0  0  0  0  0
   21.4400   63.3310  -10.5070 C   0  0  0  0  0  0  0  0  0  0  0  0
   20.1740   62.7730  -10.5820 C   0  0  0  0  0  0  0  0  0  0  0  0
   19.7090   62.3460  -11.8120 C   0  0  0  0  0  3  0  0  0  0  0  0
   20.4800   62.4640  -12.9760 C   0  0  0  0  0  3  0  0  0  0  0  0
   21.7410   63.0290  -12.8490 C   0  0  0  0  0  3  0  0  0  0  0  0
   22.2280   63.4610  -11.6400 C   0  0  0  0  0  3  0  0  0  0  0  0
   19.6000   62.7490   -9.3420 N   0  0  0  0  0  0  0  0  0  0  0  0
   20.5330   63.2950   -8.5170 C   0  0  2  0  0  3  0  0  0  0  0  0
   22.8500   64.2550   -8.7440 C   0  0  0  0  0  2  0  0  0  0  0  0
   22.7110   64.9310   -7.4140 C   0  0  1  0  0  3  0  0  0  0  0  0
   23.4270   64.1470   -6.3390 C   0  0  0  0  0  0  0  0  0  0  0  0
   24.4430   63.2870   -6.6730 C   0  0  0  0  0  3  0  0  0  0  0  0
   25.0960   62.5780   -5.7000 C   0  0  0  0  0  3  0  0  0  0  0  0
   24.7160   62.7430   -4.3870 C   0  0  0  0  0  0  0  0  0  0  0  0
   25.6230   61.7560   -3.0200 Br  0  0  0  0  0  0  0  0  0  0  0  0
   23.7070   63.5910   -3.9980 C   0  0  0  0  0  3  0  0  0  0  0  0
   23.0760   64.2860   -5.0180 C   0  0  0  0  0  3  0  0  0  0  0  0
   23.2120   66.2180   -7.3770 O   0  0  0  0  0  0  0  0  0  0  0  0
   23.8120   66.4280   -8.1190 H   0  0  0  0  0  0  0  0  0  0  0  0
   20.3530   63.4430   -7.2470 N   0  0  0  0  0  0  0  0  0  0  0  0
   19.5410   64.0420   -6.9100 H   0  0  0  0  0  0  0  0  0  0  0  0
   20.9230   63.0410   -6.5000 H   0  0  0  0  0  0  0  0  0  0  0  0
   18.2850   62.2480   -9.0760 C   0  0  0  0  0  2  0  0  0  0  0  0
   17.2010   62.9790   -9.8190 C   0  0  0  0  0  0  0  0  0  0  0  0
   16.2890   62.2490  -10.5620 C   0  0  0  0  0  3  0  0  0  0  0  0
   15.2640   62.8460  -11.2700 C   0  0  0  0  0  3  0  0  0  0  0  0
   15.1710   64.2150  -11.2150 C   0  0  0  0  0  3  0  0  0  0  0  0
   16.0600   64.9610  -10.4880 C   0  0  0  0  0  3  0  0  0  0  0  0
   17.0650   64.3380   -9.7970 C   0  0  0  0  0  3  0  0  0  0  0  0
  1 10  1  0  0  0  0
  1  9  1  0  0  0  0
  2  1  1  0  0  0  0
  3  2  1  0  0  0  0
  3  8  1  0  0  0  0
  4  3  2  0  0  0  0
  5  6  2  0  0  0  0
  5  4  1  0  0  0  0
  6  7  1  0  0  0  0
  7  2  2  0  0  0  0
  8 24  1  0  0  0  0
  8  9  1  0  0  0  0
  9 21  1  6  0  0  0
 11 10  1  6  0  0  0
 11 19  1  0  0  0  0
 11 12  1  0  0  0  0
 12 18  1  0  0  0  0
 13 12  2  0  0  0  0
 13 14  1  0  0  0  0
 14 15  2  0  0  0  0
 15 17  1  0  0  0  0
 15 16  1  0  0  0  0
 18 17  2  0  0  0  0
 20 19  1  0  0  0  0
 21 22  1  0  0  0  0
 21 23  1  0  0  0  0
 25 30  1  0  0  0  0
 25 24  1  0  0  0  0
 26 25  2  0  0  0  0
 27 28  2  0  0  0  0
 27 26  1  0  0  0  0
 28 29  1  0  0  0  0
 29 30  2  0  0  0  0
M  END
>  <Pose>
1

>  <Score>
-9.174

$$$$
