MODEL 1
REMARK VINA RESULT:    -9.174      0.000      0.000
REMARK INTER + INTRA:         -12.468
REMARK INTER:                 -12.392
REMARK INTRA:                  -0.076
REMARK UNBOUND:                -0.076
REMARK  7 active torsions:
REMARK  status: ('A' for Active; 'I' for Inactive)
REMARK    1  A    between atoms: C_5  and  C_8 
REMARK    2  A    between atoms: C_8  and  O_9 
REMARK    3  A    between atoms: C_8  and  C_10 
REMARK    4  A    between atoms: C_10  and  N_11 
REMARK    5  A    between atoms: N_18  and  C_21 
REMARK    6  A    between atoms: C_19  and  N_20 
REMARK    7  A    between atoms: C_21  and  C_22 
ROOT
ATOM      1  N   UNK d   1      21.636  63.647  -9.205  0.00  0.00    -0.178 N 
ATOM      2  C   UNK d   1      21.440  63.331 -10.507  0.00  0.00     0.079 A 
ATOM      3  C   UNK d   1      20.174  62.773 -10.582  0.00  0.00     0.079 A 
ATOM      4  C   UNK d   1      19.709  62.346 -11.812  0.00  0.00     0.032 A 
ATOM      5  C   UNK d   1      20.480  62.464 -12.976  0.00  0.00     0.002 A 
ATOM      6  C   UNK d   1      21.741  63.029 -12.849  0.00  0.00     0.002 A 
ATOM      7  C   UNK d   1      22.228  63.461 -11.640  0.00  0.00     0.032 A 
ATOM      8  N   UNK d   1      19.600  62.749  -9.342  0.00  0.00    -0.177 N 
ATOM      9  C   UNK d   1      20.533  63.295  -8.517  0.00  0.00     0.681 A 
ENDROOT
BRANCH   1  10
ATOM     10  C   UNK d   1      22.850  64.255  -8.744  0.00  0.00     0.184 C 
BRANCH  10  11
ATOM     11  C   UNK d   1      22.711  64.931  -7.414  0.00  0.00     0.170 C 
BRANCH  11  12
ATOM     12  C   UNK d   1      23.427  64.147  -6.339  0.00  0.00    -0.028 A 
ATOM     13  C   UNK d   1      24.443  63.287  -6.673  0.00  0.00     0.011 A 
ATOM     14  C   UNK d   1      25.096  62.578  -5.700  0.00  0.00     0.019 A 
ATOM     15  C   UNK d   1      24.716  62.743  -4.387  0.00  0.00     0.011 A 
ATOM     16 Br   UNK d   1      25.623  61.756  -3.020  0.00  0.00    -0.051 Br
ATOM     17  C   UNK d   1      23.707  63.591  -3.998  0.00  0.00     0.019 A 
ATOM     18  C   UNK d   1      23.076  64.286  -5.018  0.00  0.00     0.011 A 
ENDBRANCH  11  12
BRANCH  11  19
ATOM     19  O   UNK d   1      23.212  66.218  -7.377  0.00  0.00    -0.389 OA
ATOM     20  H   UNK d   1      23.812  66.428  -8.119  0.00  0.00     0.210 HD
ENDBRANCH  11  19
ENDBRANCH  10  11
ENDBRANCH   1  10
BRANCH   9  21
ATOM     21  N   UNK d   1      20.353  63.443  -7.247  0.00  0.00    -0.234 N 
ATOM     22  H   UNK d   1      19.541  64.042  -6.910  0.00  0.00     0.174 HD
ATOM     23  H   UNK d   1      20.923  63.041  -6.500  0.00  0.00     0.174 HD
ENDBRANCH   9  21
BRANCH   8  24
ATOM     24  C   UNK d   1      18.285  62.248  -9.076  0.00  0.00     0.186 C 
BRANCH  24  25
ATOM     25  C   UNK d   1      17.201  62.979  -9.819  0.00  0.00    -0.039 A 
ATOM     26  C   UNK d   1      16.289  62.249 -10.562  0.00  0.00     0.009 A 
ATOM     27  C   UNK d   1      15.264  62.846 -11.270  0.00  0.00     0.001 A 
ATOM     28  C   UNK d   1      15.171  64.215 -11.215  0.00  0.00     0.000 A 
ATOM     29  C   UNK d   1      16.060  64.961 -10.488  0.00  0.00     0.001 A 
ATOM     30  C   UNK d   1      17.065  64.338  -9.797  0.00  0.00     0.009 A 
ENDBRANCH  24  25
ENDBRANCH   8  24
TORSDOF 7
ENDMDL
