MODEL 1
REMARK VINA RESULT:    -5.623      0.000      0.000
REMARK INTER + INTRA:          -6.782
REMARK INTER:                  -6.609
REMARK INTRA:                  -0.172
REMARK UNBOUND:                -0.172
REMARK  3 active torsions:
REMARK  status: ('A' for Active; 'I' for Inactive)
REMARK    1  A    between atoms: C_5  and  C_8 
REMARK    2  A    between atoms: C_16  and  C_17 
REMARK    3  A    between atoms: C_17  and  N_18 
ROOT
ATOM      1  C   UNK d   1      12.095  62.276 -14.062  0.00  0.00     0.053 C 
ATOM      2  C   UNK d   1      11.276  63.043 -14.790  0.00  0.00     0.127 A 
ATOM      3  O   UNK d   1      11.267  64.427 -14.725  0.00  0.00    -0.305 OA
ATOM      4  C   UNK d   1      10.321  64.975 -15.585  0.00  0.00     0.101 A 
ATOM      5  C   UNK d   1       9.693  63.952 -16.228  0.00  0.00     0.051 A 
ATOM      6  C   UNK d   1       8.700  64.219 -17.147  0.00  0.00     0.021 A 
ATOM      7  C   UNK d   1       8.384  65.533 -17.374  0.00  0.00     0.041 A 
ATOM      8  C   UNK d   1       9.029  66.588 -16.714  0.00  0.00     0.118 A 
ATOM      9  C   UNK d   1      10.018  66.342 -15.796  0.00  0.00     0.039 A 
ATOM     10  O   UNK d   1       8.647  67.899 -17.003  0.00  0.00    -0.191 OA
ATOM     11  C   UNK d   1      10.269  62.686 -15.752  0.00  0.00     0.218 A 
ATOM     12  O   UNK d   1       9.973  61.512 -16.093  0.00  0.00    -0.284 OA
ENDROOT
BRANCH   1  13
ATOM     13  C   UNK d   1      13.039  62.901 -13.141  0.00  0.00    -0.033 A 
ATOM     14  C   UNK d   1      13.598  62.170 -12.106  0.00  0.00     0.013 A 
ATOM     15  C   UNK d   1      14.492  62.732 -11.215  0.00  0.00     0.020 A 
ATOM     16  C   UNK d   1      14.867  64.052 -11.322  0.00  0.00     0.011 A 
ATOM     17 Br   UNK d   1      16.113  64.832 -10.084  0.00  0.00    -0.051 Br
ATOM     18  C   UNK d   1      14.321  64.796 -12.347  0.00  0.00     0.020 A 
ATOM     19  C   UNK d   1      13.417  64.221 -13.244  0.00  0.00     0.013 A 
ENDBRANCH   1  13
BRANCH   9  20
ATOM     20  C   UNK d   1      10.778  67.336 -15.028  0.00  0.00     0.279 C 
BRANCH  20  21
ATOM     21  N   UNK d   1      11.144  68.541 -15.665  0.00  0.00    -0.063 N 
ATOM     22  C   UNK d   1      10.720  69.710 -14.923  0.00  0.00     0.261 C 
ATOM     23  C   UNK d   1      11.775  70.065 -13.891  0.00  0.00     0.195 C 
ATOM     24  O   UNK d   1      12.809  70.717 -14.544  0.00  0.00    -0.388 OA
ATOM     25  C   UNK d   1      12.943  70.145 -15.814  0.00  0.00     0.195 C 
ATOM     26  C   UNK d   1      12.610  68.663 -15.754  0.00  0.00     0.261 C 
ATOM     27  H   UNK d   1      10.823  68.578 -16.654  0.00  0.00     0.280 HD
ENDBRANCH  20  21
ENDBRANCH   9  20
TORSDOF 3
ENDMDL
