/Users/jonathanwahrer/Desktop/Msc/3_Semester/Drug_Design_Praktikum/waehrer_HTS_screening/HTS_experiment/out/docking_results/vina_output/3sx0/0293_docked.pdbqt
 OpenBabel03192221373D

 27 30  0  0  0  0  0  0  0  0999 V2000
   12.0950   62.2760  -14.0620 C   0  0  0  0  0  3  0  0  0  0  0  0
   11.2760   63.0430  -14.7900 C   0  0  0  0  0  0  0  0  0  0  0  0
   11.2670   64.4270  -14.7250 O   0  0  0  0  0  0  0  0  0  0  0  0
   10.3210   64.9750  -15.5850 C   0  0  0  0  0  0  0  0  0  0  0  0
    9.6930   63.9520  -16.2280 C   0  0  0  0  0  0  0  0  0  0  0  0
    8.7000   64.2190  -17.1470 C   0  0  0  0  0  3  0  0  0  0  0  0
    8.3840   65.5330  -17.3740 C   0  0  0  0  0  3  0  0  0  0  0  0
    9.0290   66.5880  -16.7140 C   0  0  0  0  0  0  0  0  0  0  0  0
   10.0180   66.3420  -15.7960 C   0  0  0  0  0  0  0  0  0  0  0  0
    8.6470   67.8990  -17.0030 O   0  0  0  0  0  1  0  0  0  0  0  0
   10.2690   62.6860  -15.7520 C   0  0  0  0  0  0  0  0  0  0  0  0
    9.9730   61.5120  -16.0930 O   0  0  0  0  0  0  0  0  0  0  0  0
   13.0390   62.9010  -13.1410 C   0  0  0  0  0  0  0  0  0  0  0  0
   13.5980   62.1700  -12.1060 C   0  0  0  0  0  3  0  0  0  0  0  0
   14.4920   62.7320  -11.2150 C   0  0  0  0  0  3  0  0  0  0  0  0
   14.8670   64.0520  -11.3220 C   0  0  0  0  0  0  0  0  0  0  0  0
   16.1130   64.8320  -10.0840 Br  0  0  0  0  0  0  0  0  0  0  0  0
   14.3210   64.7960  -12.3470 C   0  0  0  0  0  3  0  0  0  0  0  0
   13.4170   64.2210  -13.2440 C   0  0  0  0  0  3  0  0  0  0  0  0
   10.7780   67.3360  -15.0280 C   0  0  0  0  0  2  0  0  0  0  0  0
   11.1440   68.5410  -15.6650 N   0  0  0  0  0  4  0  0  0  0  0  0
   10.7200   69.7100  -14.9230 C   0  0  0  0  0  2  0  0  0  0  0  0
   11.7750   70.0650  -13.8910 C   0  0  0  0  0  2  0  0  0  0  0  0
   12.8090   70.7170  -14.5440 O   0  0  0  0  0  0  0  0  0  0  0  0
   12.9430   70.1450  -15.8140 C   0  0  0  0  0  2  0  0  0  0  0  0
   12.6100   68.6630  -15.7540 C   0  0  0  0  0  2  0  0  0  0  0  0
   10.8230   68.5780  -16.6540 H   0  0  0  0  0  0  0  0  0  0  0  0
  1 13  1  0  0  0  0
  2  3  1  0  0  0  0
  2  1  2  0  0  0  0
  4  3  1  0  0  0  0
  5 11  1  0  0  0  0
  5  4  2  0  0  0  0
  6  5  1  0  0  0  0
  7  6  2  0  0  0  0
  7  8  1  0  0  0  0
  8  9  2  0  0  0  0
  9  4  1  0  0  0  0
  9 20  1  0  0  0  0
 10  8  1  0  0  0  0
 11  2  1  0  0  0  0
 12 11  2  0  0  0  0
 13 14  1  0  0  0  0
 14 15  2  0  0  0  0
 16 15  1  0  0  0  0
 16 17  1  0  0  0  0
 18 16  2  0  0  0  0
 19 13  2  0  0  0  0
 19 18  1  0  0  0  0
 21 20  1  0  0  0  0
 21 22  1  0  0  0  0
 22 23  1  0  0  0  0
 24 23  1  0  0  0  0
 25 26  1  0  0  0  0
 25 24  1  0  0  0  0
 26 21  1  0  0  0  0
 27 21  1  0  0  0  0
M  END
>  <Pose>
1

>  <Score>
-5.623

$$$$
