MODEL 1
REMARK VINA RESULT:    -9.633      0.000      0.000
REMARK INTER + INTRA:         -14.971
REMARK INTER:                 -13.575
REMARK INTRA:                  -1.396
REMARK UNBOUND:                -1.396
REMARK  8 active torsions:
REMARK  status: ('A' for Active; 'I' for Inactive)
REMARK    1  A    between atoms: C_5  and  C_8 
REMARK    2  A    between atoms: N_9  and  N_10 
REMARK       I    between atoms: N_10  and  C_11 
REMARK    3  A    between atoms: C_11  and  C_13 
REMARK    4  A    between atoms: C_13  and  N_14 
REMARK    5  A    between atoms: C_16  and  C_25 
REMARK    6  A    between atoms: C_18  and  C_19 
REMARK    7  A    between atoms: C_23  and  N_24 
REMARK    8  A    between atoms: C_29  and  N_30 
ROOT
ATOM      1  N   UNK d   1      23.362  64.194  -7.054  0.00  0.00    -0.239 N 
ATOM      2  N   UNK d   1      22.961  65.463  -7.373  0.00  0.00    -0.147 NA
ATOM      3  C   UNK d   1      23.268  66.281  -6.357  0.00  0.00     0.206 A 
ATOM      4  N   UNK d   1      23.847  65.510  -5.438  0.00  0.00    -0.203 NA
ATOM      5  C   UNK d   1      23.910  64.194  -5.868  0.00  0.00     0.184 A 
ENDROOT
BRANCH   1   6
ATOM      6  C   UNK d   1      23.159  63.119  -8.005  0.00  0.00     0.257 C 
BRANCH   6   7
ATOM      7  C   UNK d   1      21.914  63.320  -8.792  0.00  0.00     0.257 C 
ATOM      8  N   UNK d   1      20.654  63.405  -8.152  0.00  0.00    -0.246 N 
ATOM      9  H   UNK d   1      20.571  63.328  -7.092  0.00  0.00     0.192 HD
ATOM     10  O   UNK d   1      21.974  63.416 -10.038  0.00  0.00    -0.270 OA
BRANCH   8  11
ATOM     11  N   UNK d   1      19.519  63.593  -8.910  0.00  0.00    -0.184 NA
ATOM     12  C   UNK d   1      18.563  62.759  -9.039  0.00  0.00     0.150 C 
BRANCH  12  13
ATOM     13  C   UNK d   1      17.383  63.011  -9.857  0.00  0.00    -0.017 A 
ATOM     14  C   UNK d   1      16.641  61.979 -10.393  0.00  0.00     0.014 A 
ATOM     15  C   UNK d   1      15.525  62.242 -11.166  0.00  0.00     0.020 A 
ATOM     16  C   UNK d   1      15.106  63.537 -11.434  0.00  0.00     0.011 A 
ATOM     17 Br   UNK d   1      13.561  63.867 -12.505  0.00  0.00    -0.051 Br
ATOM     18  C   UNK d   1      15.847  64.570 -10.900  0.00  0.00     0.020 A 
ATOM     19  C   UNK d   1      16.958  64.294 -10.129  0.00  0.00     0.014 A 
ENDBRANCH  12  13
ENDBRANCH   8  11
ENDBRANCH   6   7
ENDBRANCH   1   6
BRANCH   5  20
ATOM     20  C   UNK d   1      24.492  63.142  -5.060  0.00  0.00     0.181 A 
ATOM     21  N   UNK d   1      25.741  62.599  -5.349  0.00  0.00    -0.097 NA
ATOM     22  O   UNK d   1      26.032  61.707  -4.485  0.00  0.00    -0.104 OA
ATOM     23  N   UNK d   1      25.089  61.598  -3.634  0.00  0.00    -0.085 NA
ATOM     24  C   UNK d   1      24.102  62.486  -3.965  0.00  0.00     0.186 A 
BRANCH  24  25
ATOM     25  N   UNK d   1      22.944  62.585  -3.183  0.00  0.00    -0.380 N 
ATOM     26  H   UNK d   1      22.462  61.711  -2.870  0.00  0.00     0.158 HD
ATOM     27  H   UNK d   1      22.520  63.484  -2.873  0.00  0.00     0.158 HD
ENDBRANCH  24  25
ENDBRANCH   5  20
BRANCH   3  28
ATOM     28  C   UNK d   1      23.024  67.715  -6.267  0.00  0.00     0.183 A 
ATOM     29  N   UNK d   1      23.811  68.635  -5.700  0.00  0.00    -0.097 NA
ATOM     30  O   UNK d   1      23.246  69.823  -5.821  0.00  0.00    -0.104 OA
ATOM     31  N   UNK d   1      22.109  69.723  -6.449  0.00  0.00    -0.085 NA
ATOM     32  C   UNK d   1      21.936  68.399  -6.747  0.00  0.00     0.186 A 
BRANCH  32  33
ATOM     33  N   UNK d   1      20.805  67.888  -7.435  0.00  0.00    -0.380 N 
ATOM     34  H   UNK d   1      19.848  67.946  -6.987  0.00  0.00     0.158 HD
ATOM     35  H   UNK d   1      20.850  67.448  -8.374  0.00  0.00     0.158 HD
ENDBRANCH  32  33
ENDBRANCH   3  28
TORSDOF 8
ENDMDL
