/Users/jonathanwahrer/Desktop/Msc/3_Semester/Drug_Design_Praktikum/waehrer_HTS_screening/HTS_experiment/out/docking_results/vina_output/3sx0/0302_docked.pdbqt
 OpenBabel03192221383D

 29 33  0  0  1  0  0  0  0  0999 V2000
   22.8040   63.3900  -12.1800 C   0  0  0  0  0  0  0  0  0  0  0  0
   22.7370   63.4990  -10.8370 N   0  0  0  0  0  0  0  0  0  0  0  0
   21.4450   63.4430  -10.4300 C   0  0  1  0  0  3  0  0  0  0  0  0
   20.6670   63.2950  -11.5160 N   0  0  0  0  0  0  0  0  0  0  0  0
   21.4920   63.2630  -12.5870 C   0  0  0  0  0  3  0  0  0  0  0  0
   19.4000   63.2440  -11.0610 C   0  0  0  0  0  0  0  0  0  0  0  0
   19.3830   63.3600   -9.6880 C   0  0  0  0  0  0  0  0  0  0  0  0
   18.2000   63.3380   -8.9580 C   0  0  0  0  0  3  0  0  0  0  0  0
   16.9990   63.1970   -9.6140 C   0  0  0  0  0  3  0  0  0  0  0  0
   17.0260   63.0820  -10.9870 C   0  0  0  0  0  3  0  0  0  0  0  0
   18.1840   63.1000  -11.7360 C   0  0  0  0  0  3  0  0  0  0  0  0
   20.6870   63.4840   -9.3220 N   0  0  0  0  0  0  0  0  0  0  0  0
   23.5420   63.6130  -10.1880 H   0  0  0  0  0  0  0  0  0  0  0  0
   21.0960   63.6300   -7.9410 C   0  0  0  0  0  2  0  0  0  0  0  0
   21.7880   64.9540   -7.7000 C   0  0  0  0  0  2  0  0  0  0  0  0
   22.8260   64.8030   -6.7200 N   0  0  0  0  0  4  0  0  0  0  0  0
   23.9490   64.0810   -7.2820 C   0  0  0  0  0  2  0  0  0  0  0  0
   24.4770   63.0130   -6.3550 C   0  0  0  0  0  2  0  0  0  0  0  0
   24.7090   63.5800   -5.1000 O   0  0  0  0  0  0  0  0  0  0  0  0
   23.5690   64.1310   -4.5560 C   0  0  0  0  0  2  0  0  0  0  0  0
   22.4170   64.1250   -5.5270 C   0  0  0  0  0  2  0  0  0  0  0  0
   23.1970   65.7430   -6.4310 H   0  0  0  0  0  0  0  0  0  0  0  0
   24.0130   63.4070  -12.9970 C   0  0  0  0  0  0  0  0  0  0  0  0
   25.2690   63.4000  -12.4350 C   0  0  0  0  0  3  0  0  0  0  0  0
   26.4230   63.4150  -13.2160 C   0  0  0  0  0  3  0  0  0  0  0  0
   26.3300   63.4370  -14.5940 C   0  0  0  0  0  0  0  0  0  0  0  0
   27.8990   63.4590  -15.6610 Br  0  0  0  0  0  0  0  0  0  0  0  0
   25.0760   63.4450  -15.1700 C   0  0  0  0  0  3  0  0  0  0  0  0
   23.9290   63.4300  -14.3710 C   0  0  0  0  0  3  0  0  0  0  0  0
  1  2  1  0  0  0  0
  2  3  1  0  0  0  0
  2 13  1  0  0  0  0
  3  4  1  1  0  0  0
  3 12  1  0  0  0  0
  4  6  1  0  0  0  0
  5  1  2  0  0  0  0
  5  4  1  0  0  0  0
  6  7  1  0  0  0  0
  7 12  1  0  0  0  0
  7  8  2  0  0  0  0
  9  8  1  0  0  0  0
 10  9  2  0  0  0  0
 11  6  2  0  0  0  0
 11 10  1  0  0  0  0
 12 14  1  0  0  0  0
 14 15  1  0  0  0  0
 15 16  1  0  0  0  0
 16 22  1  0  0  0  0
 16 21  1  0  0  0  0
 17 16  1  0  0  0  0
 17 18  1  0  0  0  0
 18 19  1  0  0  0  0
 19 20  1  0  0  0  0
 21 20  1  0  0  0  0
 23 24  1  0  0  0  0
 23  1  1  0  0  0  0
 25 24  2  0  0  0  0
 26 25  1  0  0  0  0
 27 26  1  0  0  0  0
 28 26  2  0  0  0  0
 28 29  1  0  0  0  0
 29 23  2  0  0  0  0
M  END
>  <Pose>
1

>  <Score>
-8.129

$$$$
