MODEL 1
REMARK VINA RESULT:    -6.963      0.000      0.000
REMARK INTER + INTRA:          -8.970
REMARK INTER:                  -8.591
REMARK INTRA:                  -0.379
REMARK UNBOUND:                -0.379
REMARK  4 active torsions:
REMARK  status: ('A' for Active; 'I' for Inactive)
REMARK    1  A    between atoms: C_5  and  C_8 
REMARK    2  A    between atoms: N_13  and  C_23 
REMARK    3  A    between atoms: C_23  and  C_24 
REMARK    4  A    between atoms: C_24  and  O_25 
ROOT
ATOM      1  C   UNK d   1      19.167  63.116  -9.158  0.00  0.00     0.185 A 
ATOM      2  N   UNK d   1      20.401  63.216  -9.636  0.00  0.00    -0.107 N 
ATOM      3  C   UNK d   1      21.291  63.402  -8.630  0.00  0.00     0.736 A 
ATOM      4  N   UNK d   1      20.574  63.408  -7.490  0.00  0.00     0.045 NA
ATOM      5  N   UNK d   1      19.324  63.239  -7.775  0.00  0.00    -0.114 NA
ATOM      6  N   UNK d   1      22.546  63.502  -9.083  0.00  0.00    -0.168 N 
ATOM      7  C   UNK d   1      22.453  63.368 -10.410  0.00  0.00     0.165 A 
ATOM      8  C   UNK d   1      21.117  63.181 -10.793  0.00  0.00     0.170 A 
ATOM      9  N   UNK d   1      20.790  62.987 -12.061  0.00  0.00    -0.287 N 
ATOM     10  C   UNK d   1      21.803  62.989 -12.982  0.00  0.00     0.330 A 
ATOM     11  O   UNK d   1      21.535  62.813 -14.194  0.00  0.00    -0.246 OA
ATOM     12  N   UNK d   1      23.086  63.173 -12.649  0.00  0.00    -0.273 N 
ATOM     13  C   UNK d   1      23.440  63.364 -11.367  0.00  0.00     0.280 A 
ATOM     14  O   UNK d   1      24.636  63.539 -11.015  0.00  0.00    -0.265 OA
ATOM     15  C   UNK d   1      19.487  62.659 -12.580  0.00  0.00     0.163 C 
ATOM     16  H   UNK d   1      23.856  63.177 -13.349  0.00  0.00     0.173 HD
ENDROOT
BRANCH   1  17
ATOM     17  C   UNK d   1      17.836  62.925  -9.700  0.00  0.00     0.013 A 
ATOM     18  C   UNK d   1      17.093  64.067 -10.007  0.00  0.00     0.017 A 
ATOM     19  C   UNK d   1      15.898  64.006 -10.654  0.00  0.00     0.020 A 
ATOM     20  C   UNK d   1      15.383  62.783 -11.030  0.00  0.00     0.011 A 
ATOM     21 Br   UNK d   1      13.719  62.702 -11.930  0.00  0.00    -0.051 Br
ATOM     22  C   UNK d   1      16.070  61.621 -10.758  0.00  0.00     0.020 A 
ATOM     23  C   UNK d   1      17.270  61.743 -10.104  0.00  0.00     0.017 A 
ENDBRANCH   1  17
BRANCH   6  24
ATOM     24  C   UNK d   1      23.748  63.714  -8.308  0.00  0.00     0.174 C 
BRANCH  24  25
ATOM     25  C   UNK d   1      23.482  64.446  -7.010  0.00  0.00     0.187 C 
BRANCH  25  26
ATOM     26  O   UNK d   1      23.717  65.811  -7.126  0.00  0.00    -0.394 OA
ATOM     27  C   UNK d   1      22.755  66.465  -6.357  0.00  0.00     0.201 C 
ENDBRANCH  25  26
ENDBRANCH  24  25
ENDBRANCH   6  24
TORSDOF 4
ENDMDL
