/Users/jonathanwahrer/Desktop/Msc/3_Semester/Drug_Design_Praktikum/waehrer_HTS_screening/HTS_experiment/out/docking_results/vina_output/3sx0/0309_docked.pdbqt
 OpenBabel03192221383D

 33 36  0  0  0  0  0  0  0  0999 V2000
   12.6950   63.9060  -13.7390 C   0  0  0  0  0  0  0  0  0  0  0  0
   13.6920   64.8350  -13.5600 C   0  0  0  0  0  0  0  0  0  0  0  0
   14.7210   64.6360  -12.7600 O   0  0  0  0  0  0  0  0  0  0  0  0
   14.8580   63.5250  -12.0810 C   0  0  0  0  0  0  0  0  0  0  0  0
   13.9110   62.5730  -12.2140 C   0  0  0  0  0  0  0  0  0  0  0  0
   14.0280   61.3920  -11.5150 C   0  0  0  0  0  3  0  0  0  0  0  0
   15.1160   61.2210  -10.6980 C   0  0  0  0  0  3  0  0  0  0  0  0
   16.0990   62.2210  -10.5670 C   0  0  0  0  0  0  0  0  0  0  0  0
   16.0030   63.3980  -11.2480 C   0  0  0  0  0  0  0  0  0  0  0  0
   17.1220   61.8720   -9.7020 O   0  0  0  0  0  1  0  0  0  0  0  0
   12.8050   62.7080  -13.0300 C   0  0  0  0  0  0  0  0  0  0  0  0
   11.9390   61.8350  -13.1500 O   0  0  0  0  0  0  0  0  0  0  0  0
   16.9110   64.5180  -11.2010 C   0  0  0  0  0  2  0  0  0  0  0  0
   18.3080   64.3810  -11.1180 N   0  0  0  0  0  4  0  0  0  0  0  0
   18.7740   63.1840  -11.7240 C   0  0  0  0  0  2  0  0  0  0  0  0
   20.0260   62.5690  -11.2350 C   0  0  0  0  0  2  0  0  0  0  0  0
   20.4040   62.9960   -9.9580 N   0  0  0  0  0  0  0  0  0  0  0  0
   20.3250   64.3570   -9.6540 C   0  0  0  0  0  2  0  0  0  0  0  0
   20.8440   62.0720   -8.9990 C   0  0  0  0  0  1  0  0  0  0  0  0
   18.9710   64.9060   -9.9800 C   0  0  0  0  0  2  0  0  0  0  0  0
   18.6330   65.1400  -11.9010 H   0  0  0  0  0  0  0  0  0  0  0  0
   13.5950   66.1050  -14.2960 C   0  0  0  0  0  0  0  0  0  0  0  0
   14.3600   66.2760  -15.2780 O   0  0  0  0  0  0  0  0  0  0  0  0
   12.7260   67.1010  -13.9730 O   0  0  0  0  0  0  0  0  0  0  0  0
   12.1170   67.8740  -14.9780 C   0  0  0  0  0  2  0  0  0  0  0  0
   11.3990   69.0320  -14.3410 C   0  0  0  0  0  1  0  0  0  0  0  0
   11.6080   64.1590  -14.6460 C   0  0  0  0  0  0  0  0  0  0  0  0
   11.6880   63.9260  -16.0170 C   0  0  0  0  0  3  0  0  0  0  0  0
   10.6430   64.1560  -16.8850 C   0  0  0  0  0  3  0  0  0  0  0  0
    9.4640   64.6350  -16.3960 C   0  0  0  0  0  0  0  0  0  0  0  0
    8.0240   64.9430  -17.6160 Br  0  0  0  0  0  0  0  0  0  0  0  0
    9.3340   64.8840  -15.0460 C   0  0  0  0  0  3  0  0  0  0  0  0
   10.4130   64.6420  -14.1800 C   0  0  0  0  0  3  0  0  0  0  0  0
  1  2  2  0  0  0  0
  1 11  1  0  0  0  0
  2  3  1  0  0  0  0
  3  4  1  0  0  0  0
  4  9  1  0  0  0  0
  5  4  2  0  0  0  0
  5  6  1  0  0  0  0
  6  7  2  0  0  0  0
  7  8  1  0  0  0  0
  8 10  1  0  0  0  0
  9 13  1  0  0  0  0
  9  8  2  0  0  0  0
 11  5  1  0  0  0  0
 12 11  2  0  0  0  0
 13 14  1  0  0  0  0
 14 20  1  0  0  0  0
 15 16  1  0  0  0  0
 15 14  1  0  0  0  0
 16 17  1  0  0  0  0
 17 18  1  0  0  0  0
 17 19  1  0  0  0  0
 20 18  1  0  0  0  0
 21 14  1  0  0  0  0
 22 24  1  0  0  0  0
 22  2  1  0  0  0  0
 23 22  2  0  0  0  0
 25 26  1  0  0  0  0
 25 24  1  0  0  0  0
 27 33  1  0  0  0  0
 27  1  1  0  0  0  0
 28 27  2  0  0  0  0
 29 30  2  0  0  0  0
 29 28  1  0  0  0  0
 30 32  1  0  0  0  0
 31 30  1  0  0  0  0
 32 33  2  0  0  0  0
M  END
>  <Pose>
1

>  <Score>
-3.512

$$$$
