MODEL 1
REMARK VINA RESULT:    -9.153      0.000      0.000
REMARK INTER + INTRA:         -13.980
REMARK INTER:                 -13.166
REMARK INTRA:                  -0.815
REMARK UNBOUND:                -0.815
REMARK  8 active torsions:
REMARK  status: ('A' for Active; 'I' for Inactive)
REMARK    1  A    between atoms: C_5  and  C_8 
REMARK    2  A    between atoms: N_15  and  C_16 
REMARK    3  A    between atoms: C_16  and  C_17 
REMARK    4  A    between atoms: C_17  and  C_18 
REMARK    5  A    between atoms: C_18  and  N_19 
REMARK    6  A    between atoms: N_22  and  C_25 
REMARK    7  A    between atoms: C_25  and  C_26 
REMARK    8  A    between atoms: C_26  and  O_27 
ROOT
ATOM      1  C   UNK d   1      20.161  63.004 -11.323  0.00  0.00     0.078 A 
ATOM      2  C   UNK d   1      20.825  63.124 -12.558  0.00  0.00     0.146 A 
ATOM      3  N   UNK d   1      22.147  63.216 -12.380  0.00  0.00    -0.153 N 
ATOM      4  C   UNK d   1      23.335  63.345 -13.021  0.00  0.00     0.083 A 
ATOM      5  C   UNK d   1      24.298  63.365 -12.042  0.00  0.00     0.077 A 
ATOM      6  N   UNK d   1      23.674  63.247 -10.837  0.00  0.00    -0.189 N 
ATOM      7  C   UNK d   1      22.351  63.156 -11.067  0.00  0.00     0.692 A 
ATOM      8  N   UNK d   1      21.140  63.027 -10.417  0.00  0.00    -0.180 N 
ATOM      9  C   UNK d   1      25.615  63.490 -12.431  0.00  0.00     0.032 A 
ATOM     10  C   UNK d   1      25.976  63.596 -13.768  0.00  0.00     0.002 A 
ATOM     11  C   UNK d   1      25.013  63.577 -14.745  0.00  0.00     0.002 A 
ATOM     12  C   UNK d   1      23.676  63.449 -14.349  0.00  0.00     0.033 A 
ATOM     13  H   UNK d   1      24.165  63.233  -9.917  0.00  0.00     0.184 HD
ENDROOT
BRANCH   8  14
ATOM     14  C   UNK d   1      21.031  62.959  -8.975  0.00  0.00     0.149 C 
BRANCH  14  15
ATOM     15  C   UNK d   1      20.966  64.308  -8.299  0.00  0.00     0.051 C 
BRANCH  15  16
ATOM     16  C   UNK d   1      21.582  64.260  -6.923  0.00  0.00     0.274 C 
BRANCH  16  17
ATOM     17  N   UNK d   1      22.966  64.644  -6.867  0.00  0.00     0.091 N 
ATOM     18  C   UNK d   1      23.726  63.427  -7.103  0.00  0.00     0.300 C 
ATOM     19  C   UNK d   1      24.866  63.217  -6.178  0.00  0.00     0.265 C 
ATOM     20  N   UNK d   1      24.603  63.459  -4.786  0.00  0.00    -0.066 N 
ATOM     21  C   UNK d   1      23.462  64.320  -4.554  0.00  0.00     0.265 C 
ATOM     22  H   UNK d   1      25.436  64.025  -4.431  0.00  0.00     0.280 HD
ATOM     23  C   UNK d   1      23.384  65.324  -5.686  0.00  0.00     0.300 C 
BRANCH  20  24
ATOM     24  C   UNK d   1      24.611  62.254  -4.020  0.00  0.00     0.260 C 
BRANCH  24  25
ATOM     25  C   UNK d   1      25.193  62.352  -2.651  0.00  0.00     0.192 C 
BRANCH  25  26
ATOM     26  O   UNK d   1      26.092  63.406  -2.497  0.00  0.00    -0.399 OA
ATOM     27  H   UNK d   1      26.156  63.652  -1.558  0.00  0.00     0.209 HD
ENDBRANCH  25  26
ENDBRANCH  24  25
ENDBRANCH  20  24
ENDBRANCH  16  17
ENDBRANCH  15  16
ENDBRANCH  14  15
ENDBRANCH   8  14
BRANCH   1  28
ATOM     28  C   UNK d   1      18.706  62.920 -11.193  0.00  0.00    -0.007 A 
ATOM     29  C   UNK d   1      18.002  61.848 -10.749  0.00  0.00     0.015 A 
ATOM     30  C   UNK d   1      16.604  61.858 -10.608  0.00  0.00     0.020 A 
ATOM     31  C   UNK d   1      15.874  62.975 -10.921  0.00  0.00     0.011 A 
ATOM     32 Br   UNK d   1      13.966  62.992 -10.730  0.00  0.00    -0.051 Br
ATOM     33  C   UNK d   1      16.564  64.065 -11.372  0.00  0.00     0.020 A 
ATOM     34  C   UNK d   1      17.944  64.046 -11.507  0.00  0.00     0.015 A 
ENDBRANCH   1  28
TORSDOF 8
ENDMDL
