MODEL 1
REMARK VINA RESULT:    -8.510      0.000      0.000
REMARK INTER + INTRA:         -12.786
REMARK INTER:                 -12.490
REMARK INTRA:                  -0.296
REMARK UNBOUND:                -0.296
REMARK  8 active torsions:
REMARK  status: ('A' for Active; 'I' for Inactive)
REMARK    1  A    between atoms: C_5  and  C_8 
REMARK    2  A    between atoms: N_9  and  C_26 
REMARK    3  A    between atoms: C_14  and  C_15 
REMARK    4  A    between atoms: C_15  and  C_17 
REMARK    5  A    between atoms: C_20  and  O_23 
REMARK    6  A    between atoms: C_26  and  C_27 
REMARK    7  A    between atoms: C_27  and  C_28 
REMARK    8  A    between atoms: C_28  and  N_29 
ROOT
ATOM      1  C   UNK d   1      21.334  63.280  -9.624  0.00  0.00     0.161 A 
ATOM      2  N   UNK d   1      22.188  63.321 -10.780  0.00  0.00    -0.332 N 
ATOM      3  C   UNK d   1      21.448  63.119 -11.969  0.00  0.00     0.295 A 
ATOM      4  O   UNK d   1      21.876  63.070 -13.163  0.00  0.00    -0.264 OA
ATOM      5  C   UNK d   1      20.017  62.964 -11.623  0.00  0.00     0.250 A 
ATOM      6  O   UNK d   1      19.094  62.768 -12.445  0.00  0.00    -0.282 OA
ATOM      7  C   UNK d   1      19.955  63.085 -10.182  0.00  0.00     0.062 A 
ENDROOT
BRANCH   7   8
ATOM      8  C   UNK d   1      18.833  62.980  -9.504  0.00  0.00     0.130 C 
ATOM      9  O   UNK d   1      18.925  62.668  -8.131  0.00  0.00    -0.190 OA
BRANCH   8  10
ATOM     10  C   UNK d   1      17.503  63.162 -10.027  0.00  0.00     0.002 A 
ATOM     11  C   UNK d   1      16.635  62.192 -10.388  0.00  0.00     0.024 A 
ATOM     12  C   UNK d   1      15.372  62.506 -10.844  0.00  0.00    -0.028 A 
ATOM     13  C   UNK d   1      14.912  63.800 -10.962  0.00  0.00     0.074 A 
ATOM     14  C   UNK d   1      14.445  61.392 -11.232  0.00  0.00     0.051 C 
ATOM     15  C   UNK d   1      15.818  64.773 -10.587  0.00  0.00     0.038 A 
ATOM     16  C   UNK d   1      17.078  64.495 -10.132  0.00  0.00     0.017 A 
BRANCH  13  17
ATOM     17  O   UNK d   1      13.638  64.109 -11.422  0.00  0.00    -0.355 OA
ATOM     18  C   UNK d   1      13.437  64.443 -12.788  0.00  0.00     0.210 C 
ENDBRANCH  13  17
ENDBRANCH   8  10
ENDBRANCH   7   8
BRANCH   1  19
ATOM     19  C   UNK d   1      21.429  64.481  -8.791  0.00  0.00    -0.030 A 
ATOM     20  C   UNK d   1      20.856  65.668  -9.193  0.00  0.00     0.011 A 
ATOM     21  C   UNK d   1      20.946  66.817  -8.400  0.00  0.00     0.019 A 
ATOM     22  C   UNK d   1      21.612  66.789  -7.195  0.00  0.00     0.011 A 
ATOM     23 Br   UNK d   1      21.719  68.386  -6.133  0.00  0.00    -0.051 Br
ATOM     24  C   UNK d   1      22.183  65.615  -6.789  0.00  0.00     0.019 A 
ATOM     25  C   UNK d   1      22.085  64.495  -7.581  0.00  0.00     0.011 A 
ENDBRANCH   1  19
BRANCH   2  26
ATOM     26  C   UNK d   1      23.622  63.534 -10.710  0.00  0.00     0.129 C 
BRANCH  26  27
ATOM     27  C   UNK d   1      24.378  62.887 -11.838  0.00  0.00     0.048 C 
BRANCH  27  28
ATOM     28  C   UNK d   1      25.152  63.891 -12.636  0.00  0.00     0.236 C 
BRANCH  28  29
ATOM     29  N   UNK d   1      25.511  63.423 -13.942  0.00  0.00    -0.067 N 
ATOM     30  C   UNK d   1      26.814  63.879 -14.379  0.00  0.00     0.261 C 
ATOM     31  C   UNK d   1      27.148  63.104 -15.658  0.00  0.00     0.195 C 
ATOM     32  O   UNK d   1      26.033  62.423 -16.123  0.00  0.00    -0.388 OA
ATOM     33  C   UNK d   1      24.941  63.308 -16.259  0.00  0.00     0.195 C 
ATOM     34  C   UNK d   1      24.476  63.760 -14.879  0.00  0.00     0.261 C 
ATOM     35  H   UNK d   1      25.569  62.361 -13.913  0.00  0.00     0.280 HD
ENDBRANCH  28  29
ENDBRANCH  27  28
ENDBRANCH  26  27
ENDBRANCH   2  26
TORSDOF 8
ENDMDL
