MODEL 1
REMARK VINA RESULT:    -6.873      0.000      0.000
REMARK INTER + INTRA:          -9.821
REMARK INTER:                  -9.686
REMARK INTRA:                  -0.135
REMARK UNBOUND:                -0.135
REMARK  7 active torsions:
REMARK  status: ('A' for Active; 'I' for Inactive)
REMARK    1  A    between atoms: C_5  and  C_8 
REMARK    2  A    between atoms: N_9  and  C_25 
REMARK    3  A    between atoms: C_15  and  C_17 
REMARK    4  A    between atoms: C_19  and  O_23 
REMARK    5  A    between atoms: C_25  and  C_26 
REMARK    6  A    between atoms: C_26  and  C_27 
REMARK    7  A    between atoms: C_27  and  N_28 
ROOT
ATOM      1  C   UNK d   1      21.907  63.920  -7.366  0.00  0.00     0.161 C 
ATOM      2  N   UNK d   1      23.046  63.404  -8.098  0.00  0.00    -0.332 N 
ATOM      3  C   UNK d   1      22.824  63.734  -9.471  0.00  0.00     0.295 C 
ATOM      4  O   UNK d   1      23.698  63.886 -10.360  0.00  0.00    -0.264 OA
ATOM      5  C   UNK d   1      21.378  63.856  -9.622  0.00  0.00     0.250 C 
ATOM      6  O   UNK d   1      20.704  64.134 -10.645  0.00  0.00    -0.282 OA
ATOM      7  C   UNK d   1      20.781  63.592  -8.317  0.00  0.00     0.062 C 
ATOM      8  C   UNK d   1      19.553  63.206  -8.072  0.00  0.00     0.130 C 
ATOM      9  O   UNK d   1      19.205  63.073  -6.716  0.00  0.00    -0.190 OA
ENDROOT
BRANCH   2  10
ATOM     10  C   UNK d   1      24.210  62.682  -7.558  0.00  0.00     0.129 C 
BRANCH  10  11
ATOM     11  C   UNK d   1      24.716  63.368  -6.280  0.00  0.00     0.048 C 
BRANCH  11  12
ATOM     12  C   UNK d   1      25.480  62.371  -5.455  0.00  0.00     0.236 C 
BRANCH  12  13
ATOM     13  N   UNK d   1      24.639  61.909  -4.377  0.00  0.00    -0.067 N 
ATOM     14  C   UNK d   1      23.640  62.847  -3.972  0.00  0.00     0.261 C 
ATOM     15  C   UNK d   1      24.195  64.009  -3.222  0.00  0.00     0.195 C 
ATOM     16  O   UNK d   1      24.923  63.587  -2.123  0.00  0.00    -0.388 OA
ATOM     17  C   UNK d   1      25.987  62.816  -2.591  0.00  0.00     0.195 C 
ATOM     18  C   UNK d   1      25.409  61.553  -3.199  0.00  0.00     0.261 C 
ATOM     19  H   UNK d   1      24.163  61.030  -4.690  0.00  0.00     0.280 HD
ENDBRANCH  12  13
ENDBRANCH  11  12
ENDBRANCH  10  11
ENDBRANCH   2  10
BRANCH   1  20
ATOM     20  C   UNK d   1      22.023  65.354  -7.145  0.00  0.00    -0.030 A 
ATOM     21  C   UNK d   1      23.097  65.873  -6.465  0.00  0.00     0.011 A 
ATOM     22  C   UNK d   1      23.216  67.246  -6.234  0.00  0.00     0.019 A 
ATOM     23  C   UNK d   1      22.248  68.110  -6.690  0.00  0.00     0.011 A 
ATOM     24 Br   UNK d   1      22.413  69.983  -6.371  0.00  0.00    -0.051 Br
ATOM     25  C   UNK d   1      21.172  67.606  -7.370  0.00  0.00     0.019 A 
ATOM     26  C   UNK d   1      21.070  66.244  -7.590  0.00  0.00     0.011 A 
ENDBRANCH   1  20
BRANCH   8  27
ATOM     27  C   UNK d   1      18.577  62.916  -9.118  0.00  0.00     0.004 A 
ATOM     28  C   UNK d   1      17.725  63.850  -9.661  0.00  0.00     0.051 A 
ATOM     29  C   UNK d   1      16.784  63.578 -10.638  0.00  0.00     0.069 A 
ATOM     30  C   UNK d   1      16.683  62.298 -11.104  0.00  0.00     0.037 A 
ATOM     31  C   UNK d   1      17.525  61.320 -10.584  0.00  0.00     0.004 A 
ATOM     32  C   UNK d   1      18.452  61.629  -9.610  0.00  0.00     0.014 A 
BRANCH  29  33
ATOM     33  O   UNK d   1      16.015  64.636 -11.067  0.00  0.00    -0.356 OA
ATOM     34  C   UNK d   1      14.825  64.590 -11.775  0.00  0.00     0.210 C 
ENDBRANCH  29  33
ENDBRANCH   8  27
TORSDOF 7
ENDMDL
