MODEL 1
REMARK VINA RESULT:    -7.821      0.000      0.000
REMARK INTER + INTRA:         -10.057
REMARK INTER:                 -10.107
REMARK INTRA:                   0.050
REMARK UNBOUND:                 0.050
REMARK  5 active torsions:
REMARK  status: ('A' for Active; 'I' for Inactive)
REMARK    1  A    between atoms: C_5  and  C_8 
REMARK    2  A    between atoms: N_9  and  C_24 
REMARK    3  A    between atoms: C_15  and  C_17 
REMARK    4  A    between atoms: C_24  and  C_25 
REMARK    5  A    between atoms: C_25  and  N_26 
ROOT
ATOM      1  C   UNK d   1      21.861  63.676 -10.160  0.00  0.00     0.161 C 
ATOM      2  N   UNK d   1      22.542  63.115 -11.246  0.00  0.00    -0.331 N 
ATOM      3  C   UNK d   1      21.645  63.382 -12.390  0.00  0.00     0.295 C 
ATOM      4  O   UNK d   1      21.980  63.565 -13.593  0.00  0.00    -0.264 OA
ATOM      5  C   UNK d   1      20.300  63.382 -11.805  0.00  0.00     0.250 C 
ATOM      6  O   UNK d   1      19.189  63.556 -12.392  0.00  0.00    -0.282 OA
ATOM      7  C   UNK d   1      20.491  63.126 -10.365  0.00  0.00     0.062 C 
ATOM      8  C   UNK d   1      19.667  62.522  -9.539  0.00  0.00     0.130 C 
ATOM      9  O   UNK d   1      20.033  62.298  -8.217  0.00  0.00    -0.190 OA
ENDROOT
BRANCH   2  10
ATOM     10  C   UNK d   1      23.802  62.437 -11.509  0.00  0.00     0.155 C 
BRANCH  10  11
ATOM     11  C   UNK d   1      24.910  63.354 -11.959  0.00  0.00     0.255 C 
BRANCH  11  12
ATOM     12  N   UNK d   1      25.496  62.984 -13.205  0.00  0.00    -0.066 N 
ATOM     13  C   UNK d   1      26.884  63.403 -13.251  0.00  0.00     0.261 C 
ATOM     14  C   UNK d   1      27.479  62.958 -14.560  0.00  0.00     0.195 C 
ATOM     15  O   UNK d   1      26.872  63.741 -15.556  0.00  0.00    -0.388 OA
ATOM     16  C   UNK d   1      25.533  63.428 -15.576  0.00  0.00     0.195 C 
ATOM     17  C   UNK d   1      24.834  63.750 -14.280  0.00  0.00     0.261 C 
ATOM     18  H   UNK d   1      25.404  61.980 -13.418  0.00  0.00     0.280 HD
ENDBRANCH  11  12
ENDBRANCH  10  11
ENDBRANCH   2  10
BRANCH   1  19
ATOM     19  C   UNK d   1      22.331  63.887  -8.845  0.00  0.00    -0.030 A 
ATOM     20  C   UNK d   1      23.343  63.035  -8.378  0.00  0.00     0.011 A 
ATOM     21  C   UNK d   1      23.864  63.140  -7.120  0.00  0.00     0.019 A 
ATOM     22  C   UNK d   1      23.408  64.104  -6.248  0.00  0.00     0.011 A 
ATOM     23 Br   UNK d   1      24.119  64.279  -4.478  0.00  0.00    -0.051 Br
ATOM     24  C   UNK d   1      22.416  64.941  -6.700  0.00  0.00     0.019 A 
ATOM     25  C   UNK d   1      21.887  64.829  -7.986  0.00  0.00     0.011 A 
ENDBRANCH   1  19
BRANCH   8  26
ATOM     26  C   UNK d   1      18.343  62.066  -9.933  0.00  0.00     0.001 A 
ATOM     27  C   UNK d   1      17.955  60.772 -10.089  0.00  0.00     0.015 A 
ATOM     28  C   UNK d   1      16.643  60.469 -10.425  0.00  0.00     0.007 A 
ATOM     29  C   UNK d   1      15.718  61.472 -10.606  0.00  0.00    -0.062 A 
ATOM     30  C   UNK d   1      16.071  62.793 -10.457  0.00  0.00     0.007 A 
ATOM     31  C   UNK d   1      14.298  61.184 -10.968  0.00  0.00     0.048 C 
ATOM     32  C   UNK d   1      17.388  63.072 -10.120  0.00  0.00     0.015 A 
ENDBRANCH   8  26
TORSDOF 5
ENDMDL
