MODEL 1
REMARK VINA RESULT:    -8.178      0.000      0.000
REMARK INTER + INTRA:          -9.696
REMARK INTER:                 -10.568
REMARK INTRA:                   0.871
REMARK UNBOUND:                 0.871
REMARK  5 active torsions:
REMARK  status: ('A' for Active; 'I' for Inactive)
REMARK    1  A    between atoms: C_5  and  C_8 
REMARK    2  A    between atoms: N_9  and  C_24 
REMARK    3  A    between atoms: C_15  and  C_17 
REMARK    4  A    between atoms: C_24  and  C_25 
REMARK    5  A    between atoms: C_25  and  N_26 
ROOT
ATOM      1  C   UNK d   1      21.960  63.942 -10.125  0.00  0.00     0.161 C 
ATOM      2  N   UNK d   1      22.677  63.274 -11.149  0.00  0.00    -0.331 N 
ATOM      3  C   UNK d   1      21.788  63.374 -12.302  0.00  0.00     0.295 C 
ATOM      4  O   UNK d   1      22.141  63.396 -13.513  0.00  0.00    -0.264 OA
ATOM      5  C   UNK d   1      20.433  63.439 -11.756  0.00  0.00     0.250 C 
ATOM      6  O   UNK d   1      19.344  63.525 -12.379  0.00  0.00    -0.282 OA
ATOM      7  C   UNK d   1      20.587  63.381 -10.301  0.00  0.00     0.062 C 
ATOM      8  C   UNK d   1      19.730  62.904  -9.416  0.00  0.00     0.130 C 
ATOM      9  O   UNK d   1      20.062  62.865  -8.071  0.00  0.00    -0.190 OA
ENDROOT
BRANCH   2  10
ATOM     10  C   UNK d   1      23.999  62.646 -11.221  0.00  0.00     0.155 C 
BRANCH  10  11
ATOM     11  C   UNK d   1      24.565  62.550 -12.604  0.00  0.00     0.255 C 
BRANCH  11  12
ATOM     12  N   UNK d   1      24.915  63.839 -13.157  0.00  0.00    -0.066 N 
ATOM     13  C   UNK d   1      24.737  63.905 -14.580  0.00  0.00     0.261 C 
ATOM     14  C   UNK d   1      25.728  63.089 -15.357  0.00  0.00     0.195 C 
ATOM     15  O   UNK d   1      27.045  63.373 -14.990  0.00  0.00    -0.388 OA
ATOM     16  C   UNK d   1      27.148  63.057 -13.627  0.00  0.00     0.195 C 
ATOM     17  C   UNK d   1      26.320  64.078 -12.877  0.00  0.00     0.261 C 
ATOM     18  H   UNK d   1      24.382  64.618 -12.724  0.00  0.00     0.280 HD
ENDBRANCH  11  12
ENDBRANCH  10  11
ENDBRANCH   2  10
BRANCH   1  19
ATOM     19  C   UNK d   1      22.436  64.054  -8.799  0.00  0.00    -0.030 A 
ATOM     20  C   UNK d   1      22.041  65.043  -7.944  0.00  0.00     0.011 A 
ATOM     21  C   UNK d   1      22.533  65.098  -6.631  0.00  0.00     0.019 A 
ATOM     22  C   UNK d   1      23.427  64.165  -6.158  0.00  0.00     0.011 A 
ATOM     23 Br   UNK d   1      24.125  64.197  -4.389  0.00  0.00    -0.051 Br
ATOM     24  C   UNK d   1      23.826  63.173  -7.013  0.00  0.00     0.019 A 
ATOM     25  C   UNK d   1      23.333  63.134  -8.297  0.00  0.00     0.011 A 
ENDBRANCH   1  19
BRANCH   8  26
ATOM     26  C   UNK d   1      18.407  62.404  -9.764  0.00  0.00     0.001 A 
ATOM     27  C   UNK d   1      17.421  63.393  -9.876  0.00  0.00     0.016 A 
ATOM     28  C   UNK d   1      16.127  63.095 -10.236  0.00  0.00     0.024 A 
ATOM     29  C   UNK d   1      15.806  61.767 -10.494  0.00  0.00     0.034 A 
ATOM     30  C   UNK d   1      16.781  60.800 -10.383  0.00  0.00     0.024 A 
ATOM     31 Cl   UNK d   1      14.158  61.400 -10.951  0.00  0.00    -0.084 Cl
ATOM     32  C   UNK d   1      18.075  61.110 -10.021  0.00  0.00     0.016 A 
ENDBRANCH   8  26
TORSDOF 5
ENDMDL
