/Users/jonathanwahrer/Desktop/Msc/3_Semester/Drug_Design_Praktikum/waehrer_HTS_screening/HTS_experiment/out/docking_results/vina_output/3sx0/0351_docked.pdbqt
 OpenBabel03192221403D

 32 35  0  0  1  0  0  0  0  0999 V2000
   21.9600   63.9420  -10.1250 C   0  0  1  0  0  3  0  0  0  0  0  0
   22.6770   63.2740  -11.1490 N   0  0  0  0  0  0  0  0  0  0  0  0
   21.7880   63.3740  -12.3020 C   0  0  0  0  0  0  0  0  0  0  0  0
   22.1410   63.3960  -13.5130 O   0  0  0  0  0  0  0  0  0  0  0  0
   20.4330   63.4390  -11.7560 C   0  0  0  0  0  0  0  0  0  0  0  0
   19.3440   63.5250  -12.3790 O   0  0  0  0  0  0  0  0  0  0  0  0
   20.5870   63.3810  -10.3010 C   0  0  0  0  0  0  0  0  0  0  0  0
   19.7300   62.9040   -9.4160 C   0  0  0  0  0  0  0  0  0  0  0  0
   20.0620   62.8650   -8.0710 O   0  0  0  0  0  1  0  0  0  0  0  0
   23.9990   62.6460  -11.2210 C   0  0  0  0  0  2  0  0  0  0  0  0
   24.5650   62.5500  -12.6040 C   0  0  0  0  0  2  0  0  0  0  0  0
   24.9150   63.8390  -13.1570 N   0  0  0  0  0  4  0  0  0  0  0  0
   24.7370   63.9050  -14.5800 C   0  0  0  0  0  2  0  0  0  0  0  0
   25.7280   63.0890  -15.3570 C   0  0  0  0  0  2  0  0  0  0  0  0
   27.0450   63.3730  -14.9900 O   0  0  0  0  0  0  0  0  0  0  0  0
   27.1480   63.0570  -13.6270 C   0  0  0  0  0  2  0  0  0  0  0  0
   26.3200   64.0780  -12.8770 C   0  0  0  0  0  2  0  0  0  0  0  0
   24.3820   64.6180  -12.7240 H   0  0  0  0  0  0  0  0  0  0  0  0
   22.4360   64.0540   -8.7990 C   0  0  0  0  0  0  0  0  0  0  0  0
   22.0410   65.0430   -7.9440 C   0  0  0  0  0  3  0  0  0  0  0  0
   22.5330   65.0980   -6.6310 C   0  0  0  0  0  3  0  0  0  0  0  0
   23.4270   64.1650   -6.1580 C   0  0  0  0  0  0  0  0  0  0  0  0
   24.1250   64.1970   -4.3890 Br  0  0  0  0  0  0  0  0  0  0  0  0
   23.8260   63.1730   -7.0130 C   0  0  0  0  0  3  0  0  0  0  0  0
   23.3330   63.1340   -8.2970 C   0  0  0  0  0  3  0  0  0  0  0  0
   18.4070   62.4040   -9.7640 C   0  0  0  0  0  0  0  0  0  0  0  0
   17.4210   63.3930   -9.8760 C   0  0  0  0  0  3  0  0  0  0  0  0
   16.1270   63.0950  -10.2360 C   0  0  0  0  0  3  0  0  0  0  0  0
   15.8060   61.7670  -10.4940 C   0  0  0  0  0  0  0  0  0  0  0  0
   16.7810   60.8000  -10.3830 C   0  0  0  0  0  3  0  0  0  0  0  0
   14.1580   61.4000  -10.9510 Cl  0  0  0  0  0  0  0  0  0  0  0  0
   18.0750   61.1100  -10.0210 C   0  0  0  0  0  3  0  0  0  0  0  0
  1 19  1  1  0  0  0
  2  1  1  0  0  0  0
  3  5  1  0  0  0  0
  3  2  1  0  0  0  0
  4  3  2  0  0  0  0
  5  7  1  0  0  0  0
  6  5  2  0  0  0  0
  7  1  1  0  0  0  0
  7  8  2  0  0  0  0
  8  9  1  0  0  0  0
 10  2  1  0  0  0  0
 11 10  1  0  0  0  0
 12 17  1  0  0  0  0
 12 18  1  0  0  0  0
 12 11  1  0  0  0  0
 13 12  1  0  0  0  0
 14 15  1  0  0  0  0
 14 13  1  0  0  0  0
 15 16  1  0  0  0  0
 16 17  1  0  0  0  0
 19 25  2  0  0  0  0
 19 20  1  0  0  0  0
 20 21  2  0  0  0  0
 21 22  1  0  0  0  0
 22 23  1  0  0  0  0
 24 22  2  0  0  0  0
 25 24  1  0  0  0  0
 26  8  1  0  0  0  0
 27 26  1  0  0  0  0
 28 27  2  0  0  0  0
 29 30  2  0  0  0  0
 29 28  1  0  0  0  0
 30 32  1  0  0  0  0
 31 29  1  0  0  0  0
 32 26  2  0  0  0  0
M  END
>  <Pose>
1

>  <Score>
-8.178

$$$$
