MODEL 1
REMARK VINA RESULT:    -8.445      0.000      0.000
REMARK INTER + INTRA:         -10.575
REMARK INTER:                 -11.407
REMARK INTRA:                   0.832
REMARK UNBOUND:                 0.832
REMARK  6 active torsions:
REMARK  status: ('A' for Active; 'I' for Inactive)
REMARK    1  A    between atoms: C_5  and  C_8 
REMARK    2  A    between atoms: N_9  and  C_23 
REMARK    3  A    between atoms: C_15  and  C_17 
REMARK    4  A    between atoms: C_23  and  C_24 
REMARK    5  A    between atoms: C_24  and  C_25 
REMARK    6  A    between atoms: C_25  and  N_26 
ROOT
ATOM      1  C   UNK d   1      21.851  64.069 -10.153  0.00  0.00     0.161 C 
ATOM      2  N   UNK d   1      22.737  63.542 -11.141  0.00  0.00    -0.332 N 
ATOM      3  C   UNK d   1      21.896  63.191 -12.270  0.00  0.00     0.295 C 
ATOM      4  O   UNK d   1      22.310  63.041 -13.449  0.00  0.00    -0.264 OA
ATOM      5  C   UNK d   1      20.536  63.051 -11.785  0.00  0.00     0.250 C 
ATOM      6  O   UNK d   1      19.501  62.748 -12.454  0.00  0.00    -0.282 OA
ATOM      7  C   UNK d   1      20.580  63.327 -10.364  0.00  0.00     0.062 C 
ATOM      8  C   UNK d   1      19.679  62.953  -9.473  0.00  0.00     0.130 C 
ATOM      9  O   UNK d   1      19.955  63.295  -8.127  0.00  0.00    -0.190 OA
ENDROOT
BRANCH   2  10
ATOM     10  C   UNK d   1      24.194  63.407 -11.180  0.00  0.00     0.129 C 
BRANCH  10  11
ATOM     11  C   UNK d   1      24.869  64.137 -12.291  0.00  0.00     0.048 C 
BRANCH  11  12
ATOM     12  C   UNK d   1      26.100  63.399 -12.792  0.00  0.00     0.236 C 
BRANCH  12  13
ATOM     13  N   UNK d   1      26.473  63.839 -14.116  0.00  0.00    -0.067 N 
ATOM     14  C   UNK d   1      27.495  63.007 -14.711  0.00  0.00     0.261 C 
ATOM     15  C   UNK d   1      27.481  63.302 -16.213  0.00  0.00     0.195 C 
ATOM     16  O   UNK d   1      26.373  62.669 -16.775  0.00  0.00    -0.388 OA
ATOM     17  C   UNK d   1      25.252  62.770 -15.952  0.00  0.00     0.195 C 
ATOM     18  C   UNK d   1      25.360  63.950 -15.008  0.00  0.00     0.261 C 
ATOM     19  H   UNK d   1      26.888  64.795 -14.005  0.00  0.00     0.280 HD
ENDBRANCH  12  13
ENDBRANCH  11  12
ENDBRANCH  10  11
ENDBRANCH   2  10
BRANCH   1  20
ATOM     20  C   UNK d   1      22.289  64.088  -8.771  0.00  0.00    -0.030 A 
ATOM     21  C   UNK d   1      21.892  64.940  -7.796  0.00  0.00     0.011 A 
ATOM     22  C   UNK d   1      22.361  64.851  -6.499  0.00  0.00     0.019 A 
ATOM     23  C   UNK d   1      23.267  63.882  -6.126  0.00  0.00     0.011 A 
ATOM     24 Br   UNK d   1      23.928  63.741  -4.340  0.00  0.00    -0.051 Br
ATOM     25  C   UNK d   1      23.693  62.999  -7.094  0.00  0.00     0.019 A 
ATOM     26  C   UNK d   1      23.213  63.105  -8.378  0.00  0.00     0.011 A 
ENDBRANCH   1  20
BRANCH   8  27
ATOM     27  C   UNK d   1      18.457  62.240  -9.790  0.00  0.00     0.004 A 
ATOM     28  C   UNK d   1      17.366  63.030 -10.173  0.00  0.00     0.033 A 
ATOM     29  C   UNK d   1      16.155  62.482 -10.543  0.00  0.00     0.117 A 
ATOM     30  N   UNK d   1      16.003  61.145 -10.540  0.00  0.00    -0.273 NA
ATOM     31  C   UNK d   1      17.038  60.360 -10.175  0.00  0.00     0.117 A 
ATOM     32  C   UNK d   1      18.266  60.902  -9.800  0.00  0.00     0.033 A 
ENDBRANCH   8  27
TORSDOF 6
ENDMDL
