/Users/jonathanwahrer/Desktop/Msc/3_Semester/Drug_Design_Praktikum/waehrer_HTS_screening/HTS_experiment/out/docking_results/vina_output/3sx0/0362_docked.pdbqt
 OpenBabel03192221423D

 36 40  0  0  1  0  0  0  0  0999 V2000
   21.5840   63.7650   -9.6120 C   0  0  2  0  0  3  0  0  0  0  0  0
   22.0300   63.4050   -8.3310 N   0  0  0  0  0  0  0  0  0  0  0  0
   20.8660   63.6650   -7.5020 C   0  0  0  0  0  0  0  0  0  0  0  0
   20.8340   63.9480   -6.2560 O   0  0  0  0  0  0  0  0  0  0  0  0
   19.6850   63.5460   -8.3500 C   0  0  0  0  0  0  0  0  0  0  0  0
   18.4490   63.6870   -8.0810 O   0  0  0  0  0  0  0  0  0  0  0  0
   20.2060   63.2130   -9.6750 C   0  0  0  0  0  0  0  0  0  0  0  0
   19.5860   62.6150  -10.6740 C   0  0  0  0  0  0  0  0  0  0  0  0
   20.2380   62.4320  -11.8860 O   0  0  0  0  0  1  0  0  0  0  0  0
   22.3710   63.5990  -10.7940 C   0  0  0  0  0  0  0  0  0  0  0  0
   21.8210   63.5150  -12.0400 C   0  0  0  0  0  3  0  0  0  0  0  0
   22.6270   63.3370  -13.1450 C   0  0  0  0  0  3  0  0  0  0  0  0
   24.0020   63.2380  -13.0420 C   0  0  0  0  0  0  0  0  0  0  0  0
   25.1180   62.9920  -14.5710 Br  0  0  0  0  0  0  0  0  0  0  0  0
   24.5510   63.3250  -11.7770 C   0  0  0  0  0  3  0  0  0  0  0  0
   23.7290   63.5020  -10.6880 C   0  0  0  0  0  3  0  0  0  0  0  0
   18.2210   62.1200  -10.5700 C   0  0  0  0  0  0  0  0  0  0  0  0
   17.0870   62.7440  -10.9300 N   0  0  0  0  0  0  0  0  0  0  0  0
   16.0230   61.9370  -10.7090 C   0  0  0  0  0  0  0  0  0  0  0  0
   16.7890   63.9760  -11.4380 C   0  0  0  0  0  3  0  0  0  0  0  0
   16.5150   60.7950  -10.2030 N   0  0  0  0  0  0  0  0  0  0  0  0
   14.7290   62.3280  -10.9800 C   0  0  0  0  0  3  0  0  0  0  0  0
   17.8400   60.8620  -10.1010 C   0  0  0  0  0  0  0  0  0  0  0  0
   18.8090   59.8510   -9.6000 C   0  0  0  0  0  1  0  0  0  0  0  0
   14.4610   63.5750  -11.4930 C   0  0  0  0  0  3  0  0  0  0  0  0
   15.5320   64.4100  -11.7220 C   0  0  0  0  0  3  0  0  0  0  0  0
   23.2090   62.9320   -7.6820 C   0  0  0  0  0  2  0  0  0  0  0  0
   24.1390   63.7970   -6.9900 C   0  0  0  0  0  2  0  0  0  0  0  0
   23.9750   63.9590   -5.4970 C   0  0  0  0  0  2  0  0  0  0  0  0
   24.1080   62.6810   -4.8050 N   0  0  0  0  0  4  0  0  0  0  0  0
   23.5150   62.6600   -3.5000 C   0  0  0  0  0  2  0  0  0  0  0  0
   24.4180   63.1180   -2.3930 C   0  0  0  0  0  2  0  0  0  0  0  0
   25.5430   63.7660   -2.8300 O   0  0  0  0  0  0  0  0  0  0  0  0
   26.2800   63.0960   -3.7700 C   0  0  0  0  0  2  0  0  0  0  0  0
   25.4720   62.2580   -4.7050 C   0  0  0  0  0  2  0  0  0  0  0  0
   23.5850   61.9800   -5.3870 H   0  0  0  0  0  0  0  0  0  0  0  0
  1 10  1  6  0  0  0
  1  2  1  0  0  0  0
  2 27  1  0  0  0  0
  2  3  1  0  0  0  0
  3  4  2  0  0  0  0
  5  6  2  0  0  0  0
  5  3  1  0  0  0  0
  7  1  1  0  0  0  0
  7  5  1  0  0  0  0
  8 17  1  0  0  0  0
  8  7  2  0  0  0  0
  9  8  1  0  0  0  0
 10 16  1  0  0  0  0
 11 10  2  0  0  0  0
 12 13  2  0  0  0  0
 12 11  1  0  0  0  0
 13 15  1  0  0  0  0
 14 13  1  0  0  0  0
 15 16  2  0  0  0  0
 17 23  2  0  0  0  0
 18 19  1  0  0  0  0
 18 17  1  0  0  0  0
 19 21  2  0  0  0  0
 20 18  1  0  0  0  0
 21 23  1  0  0  0  0
 22 19  1  0  0  0  0
 23 24  1  0  0  0  0
 25 22  2  0  0  0  0
 26 25  1  0  0  0  0
 26 20  2  0  0  0  0
 27 28  1  0  0  0  0
 28 29  1  0  0  0  0
 29 30  1  0  0  0  0
 30 35  1  0  0  0  0
 30 31  1  0  0  0  0
 31 32  1  0  0  0  0
 33 32  1  0  0  0  0
 34 33  1  0  0  0  0
 35 34  1  0  0  0  0
 36 30  1  0  0  0  0
M  END
>  <Pose>
1

>  <Score>
-8.177

$$$$
