MODEL 1
REMARK VINA RESULT:    -8.835      0.000      0.000
REMARK INTER + INTRA:         -10.720
REMARK INTER:                 -10.901
REMARK INTRA:                   0.181
REMARK UNBOUND:                 0.181
REMARK  4 active torsions:
REMARK  status: ('A' for Active; 'I' for Inactive)
REMARK    1  A    between atoms: C_5  and  N_8 
REMARK       I    between atoms: N_8  and  C_9 
REMARK    2  A    between atoms: C_9  and  C_11 
REMARK    3  A    between atoms: C_11  and  N_12 
REMARK    4  A    between atoms: N_18  and  C_19 
ROOT
ATOM      1  N   UNK d   1      21.204  63.837  -8.044  0.00  0.00    -0.205 N 
ATOM      2  N   UNK d   1      20.147  63.622  -8.822  0.00  0.00     0.023 NA
ATOM      3  C   UNK d   1      20.279  63.346 -10.151  0.00  0.00     0.729 A 
ATOM      4  N   UNK d   1      21.506  63.291 -10.691  0.00  0.00    -0.138 N 
ATOM      5  C   UNK d   1      21.424  63.011 -12.107  0.00  0.00     0.172 A 
ATOM      6  C   UNK d   1      19.968  62.876 -12.441  0.00  0.00     0.169 A 
ATOM      7  N   UNK d   1      19.318  63.048 -11.156  0.00  0.00    -0.178 N 
ATOM      8  C   UNK d   1      22.609  63.498  -9.958  0.00  0.00     0.332 A 
ATOM      9  O   UNK d   1      23.754  63.445 -10.465  0.00  0.00    -0.261 OA
ATOM     10  C   UNK d   1      22.418  63.772  -8.618  0.00  0.00     0.333 A 
ATOM     11  O   UNK d   1      23.422  63.974  -7.890  0.00  0.00    -0.260 OA
ENDROOT
BRANCH   1  12
ATOM     12  C   UNK d   1      21.079  64.103  -6.601  0.00  0.00     0.258 C 
BRANCH  12  13
ATOM     13  C   UNK d   1      21.720  65.370  -6.251  0.00  0.00     0.242 C 
ATOM     14  N   UNK d   1      21.511  66.628  -6.827  0.00  0.00    -0.326 N 
ATOM     15  H   UNK d   1      20.810  66.672  -7.621  0.00  0.00     0.169 HD
ATOM     16  O   UNK d   1      22.575  65.257  -5.285  0.00  0.00    -0.271 OA
BRANCH  14  17
ATOM     17  C   UNK d   1      22.146  67.815  -6.451  0.00  0.00     0.034 A 
ATOM     18  C   UNK d   1      21.551  68.991  -6.069  0.00  0.00     0.031 A 
ATOM     19  C   UNK d   1      22.281  70.123  -5.681  0.00  0.00     0.021 A 
ATOM     20  C   UNK d   1      23.651  70.116  -5.660  0.00  0.00     0.011 A 
ATOM     21 Br   UNK d   1      24.661  71.649  -5.129  0.00  0.00    -0.051 Br
ATOM     22  C   UNK d   1      24.272  68.943  -6.040  0.00  0.00     0.021 A 
ATOM     23  C   UNK d   1      23.554  67.843  -6.419  0.00  0.00     0.031 A 
ENDBRANCH  14  17
ENDBRANCH  12  13
ENDBRANCH   1  12
BRANCH   7  24
ATOM     24  C   UNK d   1      17.919  62.924 -10.984  0.00  0.00     0.051 A 
ATOM     25  C   UNK d   1      17.288  61.744 -10.692  0.00  0.00     0.030 A 
ATOM     26  C   UNK d   1      15.916  61.653 -10.545  0.00  0.00     0.002 A 
ATOM     27  C   UNK d   1      15.137  62.785 -10.694  0.00  0.00     0.000 A 
ATOM     28  C   UNK d   1      15.743  63.967 -10.983  0.00  0.00     0.002 A 
ATOM     29  C   UNK d   1      17.112  64.049 -11.128  0.00  0.00     0.030 A 
ENDBRANCH   7  24
TORSDOF 4
ENDMDL
