/Users/jonathanwahrer/Desktop/Msc/3_Semester/Drug_Design_Praktikum/waehrer_HTS_screening/HTS_experiment/out/docking_results/vina_output/3sx0/0381_docked.pdbqt
 OpenBabel03192221423D

 29 32  0  0  0  0  0  0  0  0999 V2000
   21.2040   63.8370   -8.0440 N   0  0  0  0  0  0  0  0  0  0  0  0
   20.1470   63.6220   -8.8220 N   0  0  0  0  0  0  0  0  0  0  0  0
   20.2790   63.3460  -10.1510 C   0  0  0  0  0  0  0  0  0  0  0  0
   21.5060   63.2910  -10.6910 N   0  0  0  0  0  0  0  0  0  0  0  0
   21.4240   63.0110  -12.1070 C   0  0  0  0  0  3  0  0  0  0  0  0
   19.9680   62.8760  -12.4410 C   0  0  0  0  0  3  0  0  0  0  0  0
   19.3180   63.0480  -11.1560 N   0  0  0  0  0  0  0  0  0  0  0  0
   22.6090   63.4980   -9.9580 C   0  0  0  0  0  0  0  0  0  0  0  0
   23.7540   63.4450  -10.4650 O   0  0  0  0  0  0  0  0  0  0  0  0
   22.4180   63.7720   -8.6180 C   0  0  0  0  0  0  0  0  0  0  0  0
   23.4220   63.9740   -7.8900 O   0  0  0  0  0  0  0  0  0  0  0  0
   21.0790   64.1030   -6.6010 C   0  0  0  0  0  2  0  0  0  0  0  0
   21.7200   65.3700   -6.2510 C   0  0  0  0  0  0  0  0  0  0  0  0
   21.5110   66.6280   -6.8270 N   0  0  0  0  0  0  0  0  0  0  0  0
   20.8100   66.6720   -7.6210 H   0  0  0  0  0  0  0  0  0  0  0  0
   22.5750   65.2570   -5.2850 O   0  0  0  0  0  0  0  0  0  0  0  0
   22.1460   67.8150   -6.4510 C   0  0  0  0  0  0  0  0  0  0  0  0
   21.5510   68.9910   -6.0690 C   0  0  0  0  0  3  0  0  0  0  0  0
   22.2810   70.1230   -5.6810 C   0  0  0  0  0  3  0  0  0  0  0  0
   23.6510   70.1160   -5.6600 C   0  0  0  0  0  0  0  0  0  0  0  0
   24.6610   71.6490   -5.1290 Br  0  0  0  0  0  0  0  0  0  0  0  0
   24.2720   68.9430   -6.0400 C   0  0  0  0  0  3  0  0  0  0  0  0
   23.5540   67.8430   -6.4190 C   0  0  0  0  0  3  0  0  0  0  0  0
   17.9190   62.9240  -10.9840 C   0  0  0  0  0  0  0  0  0  0  0  0
   17.2880   61.7440  -10.6920 C   0  0  0  0  0  3  0  0  0  0  0  0
   15.9160   61.6530  -10.5450 C   0  0  0  0  0  3  0  0  0  0  0  0
   15.1370   62.7850  -10.6940 C   0  0  0  0  0  3  0  0  0  0  0  0
   15.7430   63.9670  -10.9830 C   0  0  0  0  0  3  0  0  0  0  0  0
   17.1120   64.0490  -11.1280 C   0  0  0  0  0  3  0  0  0  0  0  0
  1 12  1  0  0  0  0
  2  1  1  0  0  0  0
  3  2  2  0  0  0  0
  4  3  1  0  0  0  0
  4  8  1  0  0  0  0
  5  4  1  0  0  0  0
  6  5  2  0  0  0  0
  6  7  1  0  0  0  0
  7 24  1  0  0  0  0
  7  3  1  0  0  0  0
  8 10  1  0  0  0  0
  9  8  2  0  0  0  0
 10  1  1  0  0  0  0
 10 11  2  0  0  0  0
 12 13  1  0  0  0  0
 13 16  2  0  0  0  0
 14 17  1  0  0  0  0
 14 13  1  0  0  0  0
 15 14  1  0  0  0  0
 17 23  2  0  0  0  0
 17 18  1  0  0  0  0
 18 19  2  0  0  0  0
 19 20  1  0  0  0  0
 20 21  1  0  0  0  0
 22 20  2  0  0  0  0
 23 22  1  0  0  0  0
 24 25  1  0  0  0  0
 25 26  2  0  0  0  0
 27 26  1  0  0  0  0
 28 27  2  0  0  0  0
 29 24  2  0  0  0  0
 29 28  1  0  0  0  0
M  END
>  <Pose>
1

>  <Score>
-8.835

$$$$
