MODEL 1
REMARK VINA RESULT:    -8.307      0.000      0.000
REMARK INTER + INTRA:         -10.651
REMARK INTER:                 -10.007
REMARK INTRA:                  -0.644
REMARK UNBOUND:                -0.644
REMARK  4 active torsions:
REMARK  status: ('A' for Active; 'I' for Inactive)
REMARK    1  A    between atoms: C_5  and  N_8 
REMARK       I    between atoms: N_8  and  C_9 
REMARK    2  A    between atoms: C_9  and  C_11 
REMARK    3  A    between atoms: C_18  and  N_23 
REMARK    4  A    between atoms: C_20  and  N_22 
ROOT
ATOM      1  C   UNK d   1      20.764  64.296  -8.999  0.00  0.00     0.127 C 
ATOM      2  C   UNK d   1      21.215  64.337 -10.429  0.00  0.00     0.122 C 
ATOM      3  C   UNK d   1      22.384  63.499 -10.725  0.00  0.00     0.224 C 
ATOM      4  O   UNK d   1      22.479  63.007 -11.882  0.00  0.00    -0.273 OA
ATOM      5  N   UNK d   1      23.362  63.262  -9.729  0.00  0.00    -0.310 N 
ATOM      6  C   UNK d   1      23.073  63.538  -8.375  0.00  0.00     0.160 A 
ATOM      7  N   UNK d   1      24.039  63.313  -7.430  0.00  0.00    -0.044 NA
ATOM      8  C   UNK d   1      23.839  63.565  -6.135  0.00  0.00     0.728 A 
ATOM      9  N   UNK d   1      22.645  64.052  -5.774  0.00  0.00    -0.045 NA
ATOM     10  C   UNK d   1      21.647  64.292  -6.674  0.00  0.00     0.151 A 
ATOM     11  C   UNK d   1      21.829  64.041  -8.020  0.00  0.00     0.048 A 
ATOM     12  H   UNK d   1      24.321  62.877  -9.969  0.00  0.00     0.170 HD
ENDROOT
BRANCH   1  13
ATOM     13  C   UNK d   1      19.668  63.210  -8.951  0.00  0.00     0.231 C 
ATOM     14  N   UNK d   1      18.512  63.416  -9.559  0.00  0.00    -0.327 N 
ATOM     15  H   UNK d   1      18.013  62.277  -9.003  0.00  0.00     0.169 HD
ATOM     16  O   UNK d   1      20.095  62.196  -8.268  0.00  0.00    -0.272 OA
BRANCH  14  17
ATOM     17  C   UNK d   1      17.312  63.629 -10.189  0.00  0.00     0.034 A 
ATOM     18  C   UNK d   1      16.591  62.460 -10.593  0.00  0.00     0.031 A 
ATOM     19  C   UNK d   1      15.369  62.544 -11.154  0.00  0.00     0.021 A 
ATOM     20  C   UNK d   1      14.756  63.753 -11.368  0.00  0.00     0.011 A 
ATOM     21 Br   UNK d   1      13.012  63.853 -12.163  0.00  0.00    -0.051 Br
ATOM     22  C   UNK d   1      15.418  64.903 -10.995  0.00  0.00     0.021 A 
ATOM     23  C   UNK d   1      16.662  64.821 -10.421  0.00  0.00     0.031 A 
ENDBRANCH  14  17
ENDBRANCH   1  13
BRANCH  10  24
ATOM     24  N   UNK d   1      20.390  64.799  -6.238  0.00  0.00    -0.383 N 
ATOM     25  H   UNK d   1      19.583  64.909  -6.859  0.00  0.00     0.157 HD
ATOM     26  H   UNK d   1      20.287  65.081  -5.230  0.00  0.00     0.157 HD
ENDBRANCH  10  24
BRANCH   8  27
ATOM     27  N   UNK d   1      24.873  63.317  -5.156  0.00  0.00    -0.210 N 
ATOM     28  C   UNK d   1      24.593  63.681  -3.811  0.00  0.00     0.167 C 
ATOM     29  C   UNK d   1      25.473  63.015  -2.793  0.00  0.00     0.188 C 
ATOM     30  O   UNK d   1      26.343  62.092  -3.365  0.00  0.00    -0.388 OA
ATOM     31  C   UNK d   1      27.048  62.635  -4.430  0.00  0.00     0.188 C 
ATOM     32  C   UNK d   1      26.111  62.715  -5.608  0.00  0.00     0.167 C 
ENDBRANCH   8  27
TORSDOF 4
ENDMDL
