MODEL 1
REMARK VINA RESULT:    -8.070      0.000      0.000
REMARK INTER + INTRA:         -11.337
REMARK INTER:                 -10.193
REMARK INTRA:                  -1.144
REMARK UNBOUND:                -1.144
REMARK  5 active torsions:
REMARK  status: ('A' for Active; 'I' for Inactive)
REMARK    1  A    between atoms: C_5  and  N_8 
REMARK    2  A    between atoms: C_9  and  C_11 
REMARK    3  A    between atoms: C_18  and  N_23 
REMARK    4  A    between atoms: C_20  and  O_22 
REMARK    5  A    between atoms: C_26  and  C_29 
REMARK       I    between atoms: C_29  and  N_31 
ROOT
ATOM      1  C   UNK d   1      16.627  62.620 -10.342  0.00  0.00     0.113 C 
ATOM      2  C   UNK d   1      17.132  61.210 -10.588  0.00  0.00     0.121 C 
ATOM      3  C   UNK d   1      15.959  60.287 -10.522  0.00  0.00     0.224 C 
ATOM      4  O   UNK d   1      16.000  59.274  -9.847  0.00  0.00    -0.273 OA
ATOM      5  N   UNK d   1      14.832  60.652 -11.273  0.00  0.00    -0.310 N 
ATOM      6  C   UNK d   1      14.629  61.995 -11.667  0.00  0.00     0.160 A 
ATOM      7  N   UNK d   1      13.604  62.343 -12.471  0.00  0.00    -0.044 NA
ATOM      8  C   UNK d   1      13.390  63.563 -12.965  0.00  0.00     0.729 A 
ATOM      9  N   UNK d   1      14.306  64.498 -12.603  0.00  0.00    -0.038 NA
ATOM     10  C   UNK d   1      15.362  64.220 -11.795  0.00  0.00     0.192 A 
ATOM     11  C   UNK d   1      15.576  62.975 -11.287  0.00  0.00     0.054 A 
ATOM     12  H   UNK d   1      14.098  59.959 -11.578  0.00  0.00     0.170 HD
ENDROOT
BRANCH   1  13
ATOM     13  C   UNK d   1      17.698  63.602 -10.026  0.00  0.00     0.165 C 
ATOM     14  N   UNK d   1      18.952  63.481 -10.502  0.00  0.00    -0.338 N 
ATOM     15  H   UNK d   1      19.275  64.682  -9.985  0.00  0.00     0.168 HD
ATOM     16  O   UNK d   1      17.217  64.542  -9.257  0.00  0.00    -0.176 OA
BRANCH  14  17
ATOM     17  C   UNK d   1      20.231  63.357 -10.986  0.00  0.00     0.033 A 
ATOM     18  C   UNK d   1      21.250  63.732 -10.052  0.00  0.00     0.031 A 
ATOM     19  C   UNK d   1      22.535  63.702 -10.480  0.00  0.00     0.021 A 
ATOM     20  C   UNK d   1      22.903  63.331 -11.762  0.00  0.00     0.011 A 
ATOM     21 Br   UNK d   1      24.731  63.326 -12.252  0.00  0.00    -0.051 Br
ATOM     22  C   UNK d   1      21.943  62.972 -12.664  0.00  0.00     0.021 A 
ATOM     23  C   UNK d   1      20.629  62.994 -12.251  0.00  0.00     0.031 A 
ENDBRANCH  14  17
ENDBRANCH   1  13
BRANCH  10  24
ATOM     24  O   UNK d   1      16.256  65.239 -11.475  0.00  0.00    -0.344 OA
ATOM     25  H   UNK d   1      15.961  66.206 -11.358  0.00  0.00     0.219 HD
ENDBRANCH  10  24
BRANCH   8  26
ATOM     26  N   UNK d   1      12.278  63.913 -13.765  0.00  0.00    -0.214 N 
ATOM     27  C   UNK d   1      11.324  64.959 -13.500  0.00  0.00     0.142 C 
ATOM     28  C   UNK d   1      10.966  65.627 -14.824  0.00  0.00     0.034 C 
ATOM     29  C   UNK d   1      12.093  65.567 -15.813  0.00  0.00     0.081 C 
ATOM     30  C   UNK d   1      12.476  64.163 -16.122  0.00  0.00     0.034 C 
ATOM     31  C   UNK d   1      12.043  63.177 -15.012  0.00  0.00     0.142 C 
BRANCH  29  32
ATOM     32  C   UNK d   1      13.243  66.403 -15.396  0.00  0.00     0.219 C 
ATOM     33  O   UNK d   1      13.005  67.569 -15.018  0.00  0.00    -0.273 OA
ATOM     34  N   UNK d   1      14.584  65.959 -15.406  0.00  0.00    -0.370 N 
ATOM     35  H   UNK d   1      14.853  64.985 -15.175  0.00  0.00     0.159 HD
ATOM     36  H   UNK d   1      15.332  66.638 -15.658  0.00  0.00     0.159 HD
ENDBRANCH  29  32
ENDBRANCH   8  26
TORSDOF 5
ENDMDL
