MODEL 1
REMARK VINA RESULT:    -4.548      0.000      0.000
REMARK INTER + INTRA:          -6.487
REMARK INTER:                  -5.345
REMARK INTRA:                  -1.142
REMARK UNBOUND:                -1.142
REMARK  3 active torsions:
REMARK  status: ('A' for Active; 'I' for Inactive)
REMARK    1  A    between atoms: C_5  and  N_8 
REMARK    2  A    between atoms: C_11  and  C_18 
REMARK    3  A    between atoms: C_12  and  N_13 
REMARK       I    between atoms: C_18  and  N_20 
ROOT
ATOM      1  N   UNK d   1      11.881  65.250 -13.688  0.00  0.00    -0.216 N 
ATOM      2  N   UNK d   1      10.788  65.776 -13.193  0.00  0.00    -0.177 NA
ATOM      3  C   UNK d   1      10.225  66.673 -14.026  0.00  0.00     0.160 A 
ATOM      4  C   UNK d   1      11.029  66.713 -15.132  0.00  0.00     0.097 A 
ATOM      5  C   UNK d   1      12.053  65.819 -14.900  0.00  0.00     0.153 A 
ENDROOT
BRANCH   4   6
ATOM      6  C   UNK d   1      10.807  67.551 -16.304  0.00  0.00     0.259 C 
ATOM      7  O   UNK d   1      10.175  67.030 -17.254  0.00  0.00    -0.267 OA
ATOM      8  N   UNK d   1      11.262  68.884 -16.406  0.00  0.00    -0.338 N 
ATOM      9  C   UNK d   1      10.989  69.627 -17.612  0.00  0.00     0.146 C 
ATOM     10  C   UNK d   1      11.999  69.592 -15.384  0.00  0.00     0.228 C 
ATOM     11  C   UNK d   1      10.038  70.734 -17.268  0.00  0.00     0.142 C 
ATOM     12  N   UNK d   1      10.058  71.056 -15.846  0.00  0.00    -0.358 N 
ATOM     13  C   UNK d   1      11.171  70.763 -15.010  0.00  0.00     0.235 C 
ATOM     14  H   UNK d   1       9.196  71.528 -15.439  0.00  0.00     0.162 HD
ATOM     15  O   UNK d   1      11.409  71.484 -14.010  0.00  0.00    -0.272 OA
ENDBRANCH   4   6
BRANCH   5  16
ATOM     16  N   UNK d   1      13.147  65.524 -15.797  0.00  0.00    -0.317 N 
ATOM     17  C   UNK d   1      14.278  66.193 -15.962  0.00  0.00     0.098 A 
ATOM     18  C   UNK d   1      15.063  65.586 -16.916  0.00  0.00     0.019 A 
ATOM     19  C   UNK d   1      14.344  64.493 -17.336  0.00  0.00     0.019 A 
ATOM     20  C   UNK d   1      13.161  64.472 -16.631  0.00  0.00     0.098 A 
ENDBRANCH   5  16
BRANCH   1  21
ATOM     21  C   UNK d   1      12.701  64.271 -13.045  0.00  0.00     0.060 A 
ATOM     22  C   UNK d   1      13.612  64.610 -12.062  0.00  0.00     0.033 A 
ATOM     23  C   UNK d   1      14.414  63.684 -11.426  0.00  0.00     0.021 A 
ATOM     24  C   UNK d   1      14.323  62.351 -11.769  0.00  0.00     0.011 A 
ATOM     25 Br   UNK d   1      15.424  61.049 -10.903  0.00  0.00    -0.051 Br
ATOM     26  C   UNK d   1      13.418  61.994 -12.752  0.00  0.00     0.021 A 
ATOM     27  C   UNK d   1      12.622  62.931 -13.378  0.00  0.00     0.033 A 
ENDBRANCH   1  21
TORSDOF 3
ENDMDL
