/Users/jonathanwahrer/Desktop/Msc/3_Semester/Drug_Design_Praktikum/waehrer_HTS_screening/HTS_experiment/out/docking_results/vina_output/3sx0/0393_docked.pdbqt
 OpenBabel03192221433D

 27 30  0  0  0  0  0  0  0  0999 V2000
   11.8810   65.2500  -13.6880 N   0  0  0  0  0  0  0  0  0  0  0  0
   10.7880   65.7760  -13.1930 N   0  0  0  0  0  0  0  0  0  0  0  0
   10.2250   66.6730  -14.0260 C   0  0  0  0  0  3  0  0  0  0  0  0
   11.0290   66.7130  -15.1320 C   0  0  0  0  0  0  0  0  0  0  0  0
   12.0530   65.8190  -14.9000 C   0  0  0  0  0  0  0  0  0  0  0  0
   10.8070   67.5510  -16.3040 C   0  0  0  0  0  0  0  0  0  0  0  0
   10.1750   67.0300  -17.2540 O   0  0  0  0  0  0  0  0  0  0  0  0
   11.2620   68.8840  -16.4060 N   0  0  0  0  0  0  0  0  0  0  0  0
   10.9890   69.6270  -17.6120 C   0  0  0  0  0  2  0  0  0  0  0  0
   11.9990   69.5920  -15.3840 C   0  0  0  0  0  2  0  0  0  0  0  0
   10.0380   70.7340  -17.2680 C   0  0  0  0  0  2  0  0  0  0  0  0
   10.0580   71.0560  -15.8460 N   0  0  0  0  0  0  0  0  0  0  0  0
   11.1710   70.7630  -15.0100 C   0  0  0  0  0  0  0  0  0  0  0  0
    9.1960   71.5280  -15.4390 H   0  0  0  0  0  0  0  0  0  0  0  0
   11.4090   71.4840  -14.0100 O   0  0  0  0  0  0  0  0  0  0  0  0
   13.1470   65.5240  -15.7970 N   0  0  0  0  0  0  0  0  0  0  0  0
   14.2780   66.1930  -15.9620 C   0  0  0  0  0  3  0  0  0  0  0  0
   15.0630   65.5860  -16.9160 C   0  0  0  0  0  3  0  0  0  0  0  0
   14.3440   64.4930  -17.3360 C   0  0  0  0  0  3  0  0  0  0  0  0
   13.1610   64.4720  -16.6310 C   0  0  0  0  0  3  0  0  0  0  0  0
   12.7010   64.2710  -13.0450 C   0  0  0  0  0  0  0  0  0  0  0  0
   13.6120   64.6100  -12.0620 C   0  0  0  0  0  3  0  0  0  0  0  0
   14.4140   63.6840  -11.4260 C   0  0  0  0  0  3  0  0  0  0  0  0
   14.3230   62.3510  -11.7690 C   0  0  0  0  0  0  0  0  0  0  0  0
   15.4240   61.0490  -10.9030 Br  0  0  0  0  0  0  0  0  0  0  0  0
   13.4180   61.9940  -12.7520 C   0  0  0  0  0  3  0  0  0  0  0  0
   12.6220   62.9310  -13.3780 C   0  0  0  0  0  3  0  0  0  0  0  0
  1  2  1  0  0  0  0
  1 21  1  0  0  0  0
  3  2  2  0  0  0  0
  4  5  2  0  0  0  0
  4  3  1  0  0  0  0
  5  1  1  0  0  0  0
  6  4  1  0  0  0  0
  7  6  2  0  0  0  0
  8  6  1  0  0  0  0
  8 10  1  0  0  0  0
  9 11  1  0  0  0  0
  9  8  1  0  0  0  0
 10 13  1  0  0  0  0
 11 12  1  0  0  0  0
 12 14  1  0  0  0  0
 12 13  1  0  0  0  0
 13 15  2  0  0  0  0
 16  5  1  0  0  0  0
 17 16  1  0  0  0  0
 18 17  2  0  0  0  0
 19 18  1  0  0  0  0
 19 20  2  0  0  0  0
 20 16  1  0  0  0  0
 21 22  1  0  0  0  0
 22 23  2  0  0  0  0
 24 23  1  0  0  0  0
 24 25  1  0  0  0  0
 26 24  2  0  0  0  0
 27 21  2  0  0  0  0
 27 26  1  0  0  0  0
M  END
>  <Pose>
1

>  <Score>
-4.548

$$$$
