/Users/jonathanwahrer/Desktop/Msc/3_Semester/Drug_Design_Praktikum/waehrer_HTS_screening/HTS_experiment/out/docking_results/vina_output/3sx0/0395_docked.pdbqt
 OpenBabel03192221433D

 28 31  0  0  1  0  0  0  0  0999 V2000
   19.7640   63.1380  -11.0670 N   0  0  0  0  0  0  0  0  0  0  0  0
   20.5700   62.8400  -12.0720 N   0  0  0  0  0  0  0  0  0  0  0  0
   21.8350   63.0630  -11.7590 N   0  0  0  0  0  0  0  0  0  0  0  0
   21.8910   63.5330  -10.4840 C   0  0  0  0  0  0  0  0  0  0  0  0
   20.5690   63.5690  -10.0790 C   0  0  0  0  0  0  0  0  0  0  0  0
   20.3260   64.0030   -8.8370 N   0  0  0  0  0  0  0  0  0  0  0  0
   21.3310   64.3830   -8.0300 C   0  0  0  0  0  3  0  0  0  0  0  0
   22.6260   64.3520   -8.4190 N   0  0  0  0  0  0  0  0  0  0  0  0
   22.9150   63.9250   -9.6540 C   0  0  0  0  0  0  0  0  0  0  0  0
   24.1110   63.8950  -10.0170 O   0  0  0  0  0  0  0  0  0  0  0  0
   23.6420   64.7840   -7.4770 C   0  0  0  0  0  2  0  0  0  0  0  0
   23.2370   64.4180   -6.0720 C   0  0  0  0  0  0  0  0  0  0  0  0
   22.1390   64.8140   -5.5960 O   0  0  0  0  0  0  0  0  0  0  0  0
   24.0780   63.6220   -5.2590 N   0  0  0  0  0  0  0  0  0  0  0  0
   23.7020   63.2650   -3.9120 C   0  0  0  0  0  2  0  0  0  0  0  0
   25.3450   63.1490   -5.7670 C   0  0  0  0  0  2  0  0  0  0  0  0
   24.9270   63.4790   -3.0400 C   0  0  2  0  0  3  0  0  0  0  0  0
   26.0360   62.8010   -3.4760 O   0  0  0  0  0  0  0  0  0  0  0  0
   24.5700   62.9160   -1.6600 C   0  0  0  0  0  1  0  0  0  0  0  0
   25.9090   62.2180   -4.7130 C   0  0  2  0  0  3  0  0  0  0  0  0
   27.1790   61.5980   -5.2160 C   0  0  0  0  0  1  0  0  0  0  0  0
   18.3390   63.0360  -11.0160 C   0  0  0  0  0  0  0  0  0  0  0  0
   17.5530   64.1280  -11.3180 C   0  0  0  0  0  3  0  0  0  0  0  0
   16.1700   64.0360  -11.2710 C   0  0  0  0  0  3  0  0  0  0  0  0
   15.5270   62.8660  -10.9270 C   0  0  0  0  0  0  0  0  0  0  0  0
   13.6150   62.7640  -10.8710 Br  0  0  0  0  0  0  0  0  0  0  0  0
   16.3130   61.7730  -10.6260 C   0  0  0  0  0  3  0  0  0  0  0  0
   17.6880   61.8680  -10.6730 C   0  0  0  0  0  3  0  0  0  0  0  0
  1 22  1  0  0  0  0
  1  5  1  0  0  0  0
  2  3  2  0  0  0  0
  2  1  1  0  0  0  0
  3  4  1  0  0  0  0
  4  5  2  0  0  0  0
  4  9  1  0  0  0  0
  5  6  1  0  0  0  0
  6  7  2  0  0  0  0
  8  7  1  0  0  0  0
  8 11  1  0  0  0  0
  9  8  1  0  0  0  0
 10  9  2  0  0  0  0
 11 12  1  0  0  0  0
 12 13  2  0  0  0  0
 12 14  1  0  0  0  0
 14 15  1  0  0  0  0
 15 17  1  0  0  0  0
 16 14  1  0  0  0  0
 16 20  1  0  0  0  0
 17 19  1  1  0  0  0
 18 17  1  0  0  0  0
 20 21  1  6  0  0  0
 20 18  1  0  0  0  0
 22 28  1  0  0  0  0
 23 24  1  0  0  0  0
 23 22  2  0  0  0  0
 24 25  2  0  0  0  0
 25 26  1  0  0  0  0
 25 27  1  0  0  0  0
 28 27  2  0  0  0  0
M  END
>  <Pose>
1

>  <Score>
-9.545

$$$$
