MODEL 1
REMARK VINA RESULT:    -6.979      0.000      0.000
REMARK INTER + INTRA:          -8.752
REMARK INTER:                  -8.203
REMARK INTRA:                  -0.549
REMARK UNBOUND:                -0.549
REMARK  3 active torsions:
REMARK  status: ('A' for Active; 'I' for Inactive)
REMARK    1  A    between atoms: C_5  and  N_8 
REMARK    2  A    between atoms: C_11  and  N_15 
REMARK    3  A    between atoms: N_18  and  C_21 
ROOT
ATOM      1  N   UNK d   1      16.202  63.361 -10.806  0.00  0.00    -0.251 N 
ATOM      2  C   UNK d   1      15.332  64.465 -11.029  0.00  0.00     0.262 C 
ATOM      3  O   UNK d   1      15.650  65.666 -10.896  0.00  0.00    -0.270 OA
ATOM      4  C   UNK d   1      13.993  64.015 -11.438  0.00  0.00     0.289 C 
ATOM      5  C   UNK d   1      13.947  62.600 -10.874  0.00  0.00     0.146 C 
ATOM      6  C   UNK d   1      15.383  62.182 -10.934  0.00  0.00     0.233 C 
ATOM      7  O   UNK d   1      15.699  60.986 -11.074  0.00  0.00    -0.273 OA
ENDROOT
BRANCH   4   8
ATOM      8  N   UNK d   1      13.759  63.995 -12.864  0.00  0.00    -0.055 N 
ATOM      9  C   UNK d   1      12.356  63.905 -13.191  0.00  0.00     0.255 C 
ATOM     10  C   UNK d   1      11.706  65.230 -13.520  0.00  0.00     0.150 C 
ATOM     11  N   UNK d   1      12.569  66.054 -14.327  0.00  0.00    -0.378 N 
ATOM     12  C   UNK d   1      13.732  65.371 -14.844  0.00  0.00     0.150 C 
ATOM     13  C   UNK d   1      14.513  64.957 -13.583  0.00  0.00     0.255 C 
ATOM     14  H   UNK d   1      14.147  63.038 -13.166  0.00  0.00     0.281 HD
BRANCH  11  15
ATOM     15  C   UNK d   1      12.337  67.408 -14.589  0.00  0.00     0.030 A 
ATOM     16  C   UNK d   1      11.537  68.243 -13.836  0.00  0.00     0.032 A 
ATOM     17  C   UNK d   1      11.321  69.574 -14.154  0.00  0.00     0.042 A 
ATOM     18  C   UNK d   1      11.913  70.119 -15.262  0.00  0.00     0.107 A 
ATOM     19  C   UNK d   1      12.723  69.329 -16.052  0.00  0.00     0.042 A 
ATOM     20  O   UNK d   1      11.738  71.451 -15.638  0.00  0.00    -0.192 OA
ATOM     21  C   UNK d   1      12.923  68.003 -15.713  0.00  0.00     0.032 A 
ENDBRANCH  11  15
ENDBRANCH   4   8
BRANCH   1  22
ATOM     22  C   UNK d   1      17.602  63.361 -10.519  0.00  0.00     0.045 A 
ATOM     23  C   UNK d   1      18.078  63.057  -9.276  0.00  0.00     0.031 A 
ATOM     24  C   UNK d   1      19.449  63.060  -8.999  0.00  0.00     0.021 A 
ATOM     25  C   UNK d   1      20.370  63.366  -9.963  0.00  0.00     0.011 A 
ATOM     26 Br   UNK d   1      22.249  63.371  -9.594  0.00  0.00    -0.051 Br
ATOM     27  C   UNK d   1      19.895  63.671 -11.218  0.00  0.00     0.021 A 
ATOM     28  C   UNK d   1      18.517  63.666 -11.485  0.00  0.00     0.031 A 
ENDBRANCH   1  22
TORSDOF 3
ENDMDL
