MODEL 1
REMARK VINA RESULT:   -10.414      0.000      0.000
REMARK INTER + INTRA:         -11.070
REMARK INTER:                 -12.849
REMARK INTRA:                   1.778
REMARK UNBOUND:                 1.778
REMARK  4 active torsions:
REMARK  status: ('A' for Active; 'I' for Inactive)
REMARK    1  A    between atoms: C_5  and  N_8 
REMARK    2  A    between atoms: C_11  and  N_15 
REMARK    3  A    between atoms: C_18  and  N_21 
REMARK    4  A    between atoms: C_18  and  C_27 
REMARK       I    between atoms: C_27  and  N_29 
ROOT
ATOM      1  N   UNK d   1      20.565  63.396 -10.199  0.00  0.00    -0.399 N 
ATOM      2  C   UNK d   1      19.745  63.366 -11.342  0.00  0.00     0.120 C 
ATOM      3  C   UNK d   1      18.944  62.057 -11.336  0.00  0.00     0.060 C 
ATOM      4  C   UNK d   1      17.945  62.033 -10.200  0.00  0.00     0.112 C 
ATOM      5  C   UNK d   1      18.563  62.600  -8.986  0.00  0.00     0.060 C 
ATOM      6  C   UNK d   1      20.065  62.671  -9.094  0.00  0.00     0.120 C 
ENDROOT
BRANCH   1   7
ATOM      7  C   UNK d   1      21.313  64.553  -9.916  0.00  0.00     0.181 C 
ATOM      8  C   UNK d   1      22.585  64.176  -9.248  0.00  0.00     0.254 C 
ATOM      9  N   UNK d   1      22.517  64.633  -7.893  0.00  0.00    -0.251 N 
ATOM     10  O   UNK d   1      23.530  63.564  -9.804  0.00  0.00    -0.270 OA
ATOM     11  C   UNK d   1      21.617  65.734  -7.917  0.00  0.00     0.233 C 
ATOM     12  C   UNK d   1      20.616  65.532  -8.998  0.00  0.00     0.138 C 
ATOM     13  O   UNK d   1      21.678  66.735  -7.119  0.00  0.00    -0.273 OA
BRANCH   9  14
ATOM     14  C   UNK d   1      23.213  64.087  -6.769  0.00  0.00     0.045 A 
ATOM     15  C   UNK d   1      22.806  64.394  -5.498  0.00  0.00     0.031 A 
ATOM     16  C   UNK d   1      23.475  63.868  -4.386  0.00  0.00     0.021 A 
ATOM     17  C   UNK d   1      24.558  63.031  -4.520  0.00  0.00     0.011 A 
ATOM     18 Br   UNK d   1      25.479  62.308  -3.008  0.00  0.00    -0.051 Br
ATOM     19  C   UNK d   1      24.967  62.722  -5.799  0.00  0.00     0.021 A 
ATOM     20  C   UNK d   1      24.297  63.247  -6.893  0.00  0.00     0.031 A 
ENDBRANCH   9  14
ENDBRANCH   1   7
BRANCH   4  21
ATOM     21  N   UNK d   1      16.754  62.628 -10.644  0.00  0.00    -0.396 N 
ATOM     22  C   UNK d   1      16.763  63.988 -10.986  0.00  0.00     0.118 C 
ATOM     23  C   UNK d   1      15.665  64.665 -10.146  0.00  0.00     0.019 C 
ATOM     24  C   UNK d   1      14.357  64.077 -10.632  0.00  0.00     0.003 C 
ATOM     25  C   UNK d   1      14.525  62.817 -11.415  0.00  0.00     0.019 C 
ATOM     26  C   UNK d   1      15.601  61.890 -10.829  0.00  0.00     0.118 C 
ENDBRANCH   4  21
BRANCH   4  27
ATOM     27  C   UNK d   1      17.663  60.575  -9.949  0.00  0.00     0.243 C 
ATOM     28  O   UNK d   1      18.506  59.868  -9.319  0.00  0.00    -0.271 OA
ATOM     29  N   UNK d   1      16.479  59.935 -10.388  0.00  0.00    -0.368 N 
ATOM     30  H   UNK d   1      16.538  59.165 -11.065  0.00  0.00     0.159 HD
ATOM     31  H   UNK d   1      15.550  60.231 -10.034  0.00  0.00     0.159 HD
ENDBRANCH   4  27
TORSDOF 4
ENDMDL
