MODEL 1
REMARK VINA RESULT:    -9.431      0.000      0.000
REMARK INTER + INTRA:         -12.581
REMARK INTER:                 -11.637
REMARK INTRA:                  -0.945
REMARK UNBOUND:                -0.945
REMARK  4 active torsions:
REMARK  status: ('A' for Active; 'I' for Inactive)
REMARK    1  A    between atoms: C_5  and  N_8 
REMARK    2  A    between atoms: N_15  and  C_16 
REMARK    3  A    between atoms: C_16  and  C_17 
REMARK       I    between atoms: C_17  and  N_19 
REMARK    4  A    between atoms: N_19  and  C_20 
ROOT
ATOM      1  N   UNK d   1      19.649  63.139 -10.759  0.00  0.00    -0.241 N 
ATOM      2  C   UNK d   1      20.343  63.675  -9.741  0.00  0.00     0.286 A 
ATOM      3  O   UNK d   1      19.825  64.005  -8.631  0.00  0.00    -0.265 OA
ATOM      4  C   UNK d   1      21.691  63.816 -10.075  0.00  0.00     0.155 A 
ATOM      5  C   UNK d   1      21.798  63.353 -11.317  0.00  0.00     0.152 A 
ATOM      6  N   UNK d   1      23.101  63.497 -11.616  0.00  0.00    -0.279 N 
ATOM      7  N   UNK d   1      23.752  64.026 -10.594  0.00  0.00    -0.239 N 
ATOM      8  N   UNK d   1      22.885  64.228  -9.631  0.00  0.00    -0.261 N 
ATOM      9  C   UNK d   1      20.553  62.937 -11.744  0.00  0.00     0.286 A 
ATOM     10  O   UNK d   1      20.262  62.445 -12.856  0.00  0.00    -0.265 OA
ATOM     11  H   UNK d   1      23.481  63.208 -12.553  0.00  0.00     0.189 HD
ATOM     12  H   UNK d   1      24.779  64.225 -10.612  0.00  0.00     0.208 HD
ENDROOT
BRANCH   8  13
ATOM     13  C   UNK d   1      23.141  64.787  -8.328  0.00  0.00     0.254 C 
BRANCH  13  14
ATOM     14  C   UNK d   1      23.698  63.765  -7.380  0.00  0.00     0.242 C 
ATOM     15  O   UNK d   1      23.719  62.595  -7.833  0.00  0.00    -0.271 OA
ATOM     16  N   UNK d   1      24.154  64.094  -6.101  0.00  0.00    -0.325 N 
ATOM     17  H   UNK d   1      24.071  65.138  -5.857  0.00  0.00     0.169 HD
BRANCH  16  18
ATOM     18  C   UNK d   1      24.689  63.226  -5.142  0.00  0.00     0.040 A 
ATOM     19  C   UNK d   1      23.951  63.042  -3.961  0.00  0.00    -0.035 A 
ATOM     20  C   UNK d   1      24.437  62.200  -2.994  0.00  0.00     0.009 A 
ATOM     21  C   UNK d   1      22.666  63.734  -3.741  0.00  0.00     0.050 C 
ATOM     22  C   UNK d   1      25.628  61.517  -3.125  0.00  0.00     0.001 A 
ATOM     23  C   UNK d   1      26.350  61.692  -4.268  0.00  0.00     0.002 A 
ATOM     24  C   UNK d   1      25.871  62.536  -5.247  0.00  0.00     0.030 A 
ENDBRANCH  16  18
ENDBRANCH  13  14
ENDBRANCH   8  13
BRANCH   1  25
ATOM     25  C   UNK d   1      18.255  62.846 -10.797  0.00  0.00     0.046 A 
ATOM     26  C   UNK d   1      17.337  63.830 -11.122  0.00  0.00     0.031 A 
ATOM     27  C   UNK d   1      15.981  63.568 -11.164  0.00  0.00     0.021 A 
ATOM     28  C   UNK d   1      15.487  62.312 -10.882  0.00  0.00     0.011 A 
ATOM     29 Br   UNK d   1      13.603  61.952 -10.942  0.00  0.00    -0.051 Br
ATOM     30  C   UNK d   1      16.391  61.326 -10.558  0.00  0.00     0.021 A 
ATOM     31  C   UNK d   1      17.740  61.596 -10.518  0.00  0.00     0.031 A 
ENDBRANCH   1  25
TORSDOF 4
ENDMDL
