MODEL 1
REMARK VINA RESULT:    -7.929      0.000      0.000
REMARK INTER + INTRA:         -12.019
REMARK INTER:                 -11.174
REMARK INTRA:                  -0.845
REMARK UNBOUND:                -0.845
REMARK  7 active torsions:
REMARK  status: ('A' for Active; 'I' for Inactive)
REMARK    1  A    between atoms: C_5  and  N_8 
REMARK    2  A    between atoms: N_15  and  C_16 
REMARK    3  A    between atoms: C_16  and  C_17 
REMARK       I    between atoms: C_17  and  N_19 
REMARK    4  A    between atoms: N_19  and  C_20 
REMARK    5  A    between atoms: C_23  and  C_26 
REMARK    6  A    between atoms: C_26  and  O_28 
REMARK    7  A    between atoms: O_28  and  C_29 
ROOT
ATOM      1  N   UNK d   1      13.504  64.127 -12.991  0.00  0.00    -0.241 N 
ATOM      2  C   UNK d   1      14.496  64.400 -12.106  0.00  0.00     0.286 A 
ATOM      3  O   UNK d   1      15.002  65.542 -11.876  0.00  0.00    -0.265 OA
ATOM      4  C   UNK d   1      14.889  63.231 -11.476  0.00  0.00     0.155 A 
ATOM      5  C   UNK d   1      14.124  62.272 -11.993  0.00  0.00     0.152 A 
ATOM      6  N   UNK d   1      14.490  61.115 -11.391  0.00  0.00    -0.279 N 
ATOM      7  N   UNK d   1      15.461  61.404 -10.529  0.00  0.00    -0.239 N 
ATOM      8  N   UNK d   1      15.733  62.694 -10.555  0.00  0.00    -0.261 N 
ATOM      9  C   UNK d   1      13.269  62.809 -12.925  0.00  0.00     0.286 A 
ATOM     10  O   UNK d   1      12.414  62.200 -13.605  0.00  0.00    -0.265 OA
ATOM     11  H   UNK d   1      14.077  60.179 -11.578  0.00  0.00     0.189 HD
ATOM     12  H   UNK d   1      15.933  60.707  -9.927  0.00  0.00     0.208 HD
ENDROOT
BRANCH   8  13
ATOM     13  C   UNK d   1      16.715  63.446  -9.783  0.00  0.00     0.254 C 
BRANCH  13  14
ATOM     14  C   UNK d   1      18.101  63.046 -10.227  0.00  0.00     0.242 C 
ATOM     15  O   UNK d   1      18.196  61.816 -10.462  0.00  0.00    -0.271 OA
ATOM     16  N   UNK d   1      19.102  64.010 -10.336  0.00  0.00    -0.326 N 
ATOM     17  H   UNK d   1      18.810  65.008 -10.087  0.00  0.00     0.169 HD
BRANCH  16  18
ATOM     18  C   UNK d   1      20.447  63.809 -10.734  0.00  0.00     0.034 A 
ATOM     19  C   UNK d   1      21.552  64.098  -9.970  0.00  0.00     0.030 A 
ATOM     20  C   UNK d   1      22.853  63.870 -10.437  0.00  0.00     0.020 A 
ATOM     21  C   UNK d   1      23.083  63.345 -11.686  0.00  0.00     0.039 A 
ATOM     22  C   UNK d   1      21.986  63.051 -12.459  0.00  0.00     0.020 A 
ATOM     23  C   UNK d   1      20.704  63.277 -11.996  0.00  0.00     0.030 A 
BRANCH  21  24
ATOM     24  C   UNK d   1      24.455  63.124 -12.131  0.00  0.00     0.293 C 
ATOM     25  O   UNK d   1      25.268  62.623 -11.315  0.00  0.00    -0.259 OA
BRANCH  24  26
ATOM     26  O   UNK d   1      24.920  63.427 -13.380  0.00  0.00    -0.318 OA
BRANCH  26  27
ATOM     27  C   UNK d   1      26.220  63.829 -13.705  0.00  0.00     0.174 C 
ATOM     28  C   UNK d   1      26.432  63.466 -15.181  0.00  0.00     0.034 C 
ENDBRANCH  26  27
ENDBRANCH  24  26
ENDBRANCH  21  24
ENDBRANCH  16  18
ENDBRANCH  13  14
ENDBRANCH   8  13
BRANCH   1  29
ATOM     29  C   UNK d   1      12.878  65.116 -13.805  0.00  0.00     0.046 A 
ATOM     30  C   UNK d   1      13.588  65.695 -14.846  0.00  0.00     0.031 A 
ATOM     31  C   UNK d   1      13.022  66.642 -15.642  0.00  0.00     0.021 A 
ATOM     32  C   UNK d   1      11.724  67.067 -15.454  0.00  0.00     0.011 A 
ATOM     33 Br   UNK d   1      10.894  68.387 -16.543  0.00  0.00    -0.051 Br
ATOM     34  C   UNK d   1      11.030  66.484 -14.417  0.00  0.00     0.021 A 
ATOM     35  C   UNK d   1      11.586  65.530 -13.607  0.00  0.00     0.031 A 
ENDBRANCH   1  29
TORSDOF 7
ENDMDL
