MODEL 1
REMARK VINA RESULT:    -8.460      0.000      0.000
REMARK INTER + INTRA:         -12.135
REMARK INTER:                 -11.427
REMARK INTRA:                  -0.708
REMARK UNBOUND:                -0.708
REMARK  6 active torsions:
REMARK  status: ('A' for Active; 'I' for Inactive)
REMARK    1  A    between atoms: C_5  and  N_8 
REMARK    2  A    between atoms: N_15  and  C_16 
REMARK    3  A    between atoms: C_16  and  C_17 
REMARK       I    between atoms: C_17  and  N_19 
REMARK    4  A    between atoms: N_19  and  C_20 
REMARK    5  A    between atoms: C_23  and  O_26 
REMARK    6  A    between atoms: O_26  and  C_27 
ROOT
ATOM      1  N   UNK d   1      13.616  64.001 -12.774  0.00  0.00    -0.241 N 
ATOM      2  C   UNK d   1      14.662  64.268 -11.943  0.00  0.00     0.286 A 
ATOM      3  O   UNK d   1      15.129  65.418 -11.759  0.00  0.00    -0.265 OA
ATOM      4  C   UNK d   1      15.124  63.115 -11.347  0.00  0.00     0.155 A 
ATOM      5  C   UNK d   1      14.361  62.136 -11.812  0.00  0.00     0.152 A 
ATOM      6  N   UNK d   1      14.791  60.994 -11.246  0.00  0.00    -0.279 N 
ATOM      7  N   UNK d   1      15.806  61.289 -10.447  0.00  0.00    -0.239 N 
ATOM      8  N   UNK d   1      16.038  62.587 -10.486  0.00  0.00    -0.261 N 
ATOM      9  C   UNK d   1      13.440  62.675 -12.682  0.00  0.00     0.286 A 
ATOM     10  O   UNK d   1      12.541  62.044 -13.322  0.00  0.00    -0.265 OA
ATOM     11  H   UNK d   1      14.419  60.038 -11.383  0.00  0.00     0.189 HD
ATOM     12  H   UNK d   1      16.343  60.579  -9.868  0.00  0.00     0.208 HD
ENDROOT
BRANCH   8  13
ATOM     13  C   UNK d   1      17.048  63.328  -9.788  0.00  0.00     0.254 C 
BRANCH  13  14
ATOM     14  C   UNK d   1      18.455  62.940 -10.178  0.00  0.00     0.242 C 
ATOM     15  O   UNK d   1      18.660  61.715 -10.312  0.00  0.00    -0.271 OA
ATOM     16  N   UNK d   1      19.452  63.892 -10.379  0.00  0.00    -0.326 N 
ATOM     17  H   UNK d   1      19.147  64.917 -10.225  0.00  0.00     0.169 HD
BRANCH  16  18
ATOM     18  C   UNK d   1      20.798  63.729 -10.749  0.00  0.00     0.034 A 
ATOM     19  C   UNK d   1      21.120  63.244 -12.017  0.00  0.00     0.032 A 
ATOM     20  C   UNK d   1      22.417  63.053 -12.413  0.00  0.00     0.039 A 
ATOM     21  C   UNK d   1      23.469  63.343 -11.542  0.00  0.00     0.068 A 
ATOM     22  C   UNK d   1      23.119  63.820 -10.303  0.00  0.00     0.039 A 
ATOM     23  C   UNK d   1      21.819  64.015  -9.900  0.00  0.00     0.032 A 
BRANCH  21  24
ATOM     24  O   UNK d   1      24.756  63.132 -11.980  0.00  0.00    -0.352 OA
BRANCH  24  25
ATOM     25  C   UNK d   1      25.295  63.518 -13.202  0.00  0.00     0.171 C 
ATOM     26  C   UNK d   1      26.782  63.434 -13.274  0.00  0.00     0.034 C 
ENDBRANCH  24  25
ENDBRANCH  21  24
ENDBRANCH  16  18
ENDBRANCH  13  14
ENDBRANCH   8  13
BRANCH   1  27
ATOM     27  C   UNK d   1      12.875  64.922 -13.570  0.00  0.00     0.046 A 
ATOM     28  C   UNK d   1      11.511  65.099 -13.464  0.00  0.00     0.031 A 
ATOM     29  C   UNK d   1      10.825  66.003 -14.261  0.00  0.00     0.021 A 
ATOM     30  C   UNK d   1      11.477  66.772 -15.202  0.00  0.00     0.011 A 
ATOM     31 Br   UNK d   1      10.553  68.019 -16.313  0.00  0.00    -0.051 Br
ATOM     32  C   UNK d   1      12.851  66.592 -15.305  0.00  0.00     0.021 A 
ATOM     33  C   UNK d   1      13.532  65.692 -14.512  0.00  0.00     0.031 A 
ENDBRANCH   1  27
TORSDOF 6
ENDMDL
