MODEL 1
REMARK VINA RESULT:   -10.246      0.000      0.000
REMARK INTER + INTRA:         -12.609
REMARK INTER:                 -12.043
REMARK INTRA:                  -0.566
REMARK UNBOUND:                -0.566
REMARK  3 active torsions:
REMARK  status: ('A' for Active; 'I' for Inactive)
REMARK    1  A    between atoms: C_5  and  N_8 
REMARK    2  A    between atoms: N_15  and  C_16 
REMARK    3  A    between atoms: C_19  and  N_22 
ROOT
ATOM      1  N   UNK d   1      19.788  63.039 -10.401  0.00  0.00    -0.241 N 
ATOM      2  C   UNK d   1      20.472  63.158  -9.242  0.00  0.00     0.286 A 
ATOM      3  O   UNK d   1      20.016  63.052  -8.058  0.00  0.00    -0.265 OA
ATOM      4  C   UNK d   1      21.807  63.424  -9.483  0.00  0.00     0.160 A 
ATOM      5  C   UNK d   1      21.917  63.464 -10.813  0.00  0.00     0.152 A 
ATOM      6  N   UNK d   1      23.225  63.724 -11.053  0.00  0.00    -0.278 N 
ATOM      7  N   UNK d   1      23.852  63.832  -9.894  0.00  0.00    -0.234 N 
ATOM      8  N   UNK d   1      22.998  63.650  -8.901  0.00  0.00    -0.234 N 
ATOM      9  C   UNK d   1      20.685  63.230 -11.384  0.00  0.00     0.286 A 
ATOM     10  O   UNK d   1      20.390  63.188 -12.605  0.00  0.00    -0.265 OA
ATOM     11  H   UNK d   1      23.645  63.820 -12.014  0.00  0.00     0.189 HD
ATOM     12  H   UNK d   1      24.874  64.031  -9.735  0.00  0.00     0.209 HD
ENDROOT
BRANCH   8  13
ATOM     13  C   UNK d   1      23.290  63.688  -7.498  0.00  0.00     0.058 A 
ATOM     14  C   UNK d   1      24.293  62.909  -6.959  0.00  0.00     0.034 A 
ATOM     15  C   UNK d   1      24.600  62.925  -5.604  0.00  0.00     0.038 A 
ATOM     16  C   UNK d   1      23.893  63.739  -4.746  0.00  0.00     0.103 A 
ATOM     17  C   UNK d   1      22.891  64.519  -5.282  0.00  0.00     0.038 A 
ATOM     18  C   UNK d   1      22.587  64.501  -6.634  0.00  0.00     0.034 A 
BRANCH  16  19
ATOM     19  N   UNK d   1      24.185  63.777  -3.352  0.00  0.00    -0.116 N 
ATOM     20  O   UNK d   1      25.089  64.493  -2.882  0.00  0.00    -0.532 OA
ATOM     21  O   UNK d   1      23.457  63.009  -2.500  0.00  0.00    -0.532 OA
ENDBRANCH  16  19
ENDBRANCH   8  13
BRANCH   1  22
ATOM     22  C   UNK d   1      18.387  62.766 -10.529  0.00  0.00     0.046 A 
ATOM     23  C   UNK d   1      17.868  61.492 -10.422  0.00  0.00     0.031 A 
ATOM     24  C   UNK d   1      16.502  61.259 -10.552  0.00  0.00     0.021 A 
ATOM     25  C   UNK d   1      15.623  62.295 -10.791  0.00  0.00     0.011 A 
ATOM     26 Br   UNK d   1      13.740  61.994 -10.973  0.00  0.00    -0.051 Br
ATOM     27  C   UNK d   1      16.138  63.570 -10.899  0.00  0.00     0.021 A 
ATOM     28  C   UNK d   1      17.496  63.792 -10.769  0.00  0.00     0.031 A 
ENDBRANCH   1  22
TORSDOF 3
ENDMDL
