MODEL 1
REMARK VINA RESULT:    -9.440      0.000      0.000
REMARK INTER + INTRA:         -12.994
REMARK INTER:                 -12.199
REMARK INTRA:                  -0.795
REMARK UNBOUND:                -0.795
REMARK  5 active torsions:
REMARK  status: ('A' for Active; 'I' for Inactive)
REMARK    1  A    between atoms: C_5  and  N_8 
REMARK    2  A    between atoms: C_14  and  C_18 
REMARK    3  A    between atoms: C_18  and  O_20 
REMARK    4  A    between atoms: O_20  and  C_21 
REMARK    5  A    between atoms: C_21  and  C_22 
ROOT
ATOM      1  N   UNK d   1      19.610  63.274 -10.071  0.00  0.00    -0.247 N 
ATOM      2  C   UNK d   1      20.199  63.654  -8.812  0.00  0.00     0.255 C 
ATOM      3  O   UNK d   1      19.773  63.340  -7.664  0.00  0.00    -0.270 OA
ATOM      4  C   UNK d   1      21.390  64.476  -9.125  0.00  0.00     0.210 C 
ATOM      5  N   UNK d   1      22.489  64.319  -8.193  0.00  0.00    -0.222 NA
ATOM      6  N   UNK d   1      23.573  64.425  -9.119  0.00  0.00    -0.314 N 
ATOM      7  C   UNK d   1      23.230  63.708 -10.304  0.00  0.00     0.132 C 
ATOM      8  C   UNK d   1      21.902  63.723 -10.332  0.00  0.00     0.073 C 
ATOM      9  C   UNK d   1      20.682  63.319 -11.020  0.00  0.00     0.266 C 
ATOM     10  O   UNK d   1      20.673  63.069 -12.257  0.00  0.00    -0.267 OA
ATOM     11  H   UNK d   1      22.473  63.296  -7.921  0.00  0.00     0.147 HD
ATOM     12  H   UNK d   1      24.465  64.935  -8.965  0.00  0.00     0.181 HD
ENDROOT
BRANCH   7  13
ATOM     13  C   UNK d   1      24.124  63.095 -11.281  0.00  0.00     0.312 C 
ATOM     14  O   UNK d   1      24.982  62.244 -10.947  0.00  0.00    -0.258 OA
BRANCH  13  15
ATOM     15  O   UNK d   1      24.077  63.416 -12.629  0.00  0.00    -0.312 OA
BRANCH  15  16
ATOM     16  C   UNK d   1      25.254  63.717 -13.367  0.00  0.00     0.217 C 
BRANCH  16  17
ATOM     17  C   UNK d   1      24.987  63.509 -14.829  0.00  0.00    -0.034 A 
ATOM     18  C   UNK d   1      23.777  63.913 -15.389  0.00  0.00     0.009 A 
ATOM     19  C   UNK d   1      23.496  63.747 -16.718  0.00  0.00     0.001 A 
ATOM     20  C   UNK d   1      24.450  63.153 -17.540  0.00  0.00     0.000 A 
ATOM     21  C   UNK d   1      25.645  62.754 -16.982  0.00  0.00     0.001 A 
ATOM     22  C   UNK d   1      25.922  62.930 -15.625  0.00  0.00     0.009 A 
ENDBRANCH  16  17
ENDBRANCH  15  16
ENDBRANCH  13  15
ENDBRANCH   7  13
BRANCH   1  23
ATOM     23  C   UNK d   1      18.270  62.922 -10.344  0.00  0.00     0.045 A 
ATOM     24  C   UNK d   1      17.338  63.909 -10.690  0.00  0.00     0.031 A 
ATOM     25  C   UNK d   1      16.033  63.658 -10.967  0.00  0.00     0.021 A 
ATOM     26  C   UNK d   1      15.584  62.363 -10.909  0.00  0.00     0.011 A 
ATOM     27 Br   UNK d   1      13.736  61.979 -11.300  0.00  0.00    -0.051 Br
ATOM     28  C   UNK d   1      16.472  61.360 -10.572  0.00  0.00     0.021 A 
ATOM     29  C   UNK d   1      17.797  61.639 -10.293  0.00  0.00     0.031 A 
ENDBRANCH   1  23
TORSDOF 5
ENDMDL
