MODEL 1
REMARK VINA RESULT:    -4.265      0.000      0.000
REMARK INTER + INTRA:          -4.901
REMARK INTER:                  -4.514
REMARK INTRA:                  -0.387
REMARK UNBOUND:                -0.387
REMARK  1 active torsions:
REMARK  status: ('A' for Active; 'I' for Inactive)
REMARK    1  A    between atoms: C_5  and  N_8 
ROOT
ATOM      1  N   UNK d   1      20.467  63.035 -10.893  0.00  0.00    -0.231 N 
ATOM      2  C   UNK d   1      21.187  62.625 -12.070  0.00  0.00     0.357 A 
ATOM      3  O   UNK d   1      20.547  62.301 -13.108  0.00  0.00    -0.244 OA
ATOM      4  N   UNK d   1      22.594  62.610 -11.990  0.00  0.00    -0.169 NA
ATOM      5  C   UNK d   1      23.258  62.931 -10.959  0.00  0.00     0.202 A 
ATOM      6  C   UNK d   1      22.692  63.377  -9.661  0.00  0.00     0.140 A 
ATOM      7  C   UNK d   1      23.233  62.494  -8.590  0.00  0.00     0.269 C 
ATOM      8  N   UNK d   1      23.350  63.050  -7.292  0.00  0.00    -0.043 N 
ATOM      9  C   UNK d   1      22.717  64.294  -7.094  0.00  0.00     0.140 A 
ATOM     10  C   UNK d   1      22.633  65.222  -8.140  0.00  0.00    -0.021 A 
ATOM     11  C   UNK d   1      22.016  66.422  -7.929  0.00  0.00     0.016 A 
ATOM     12  C   UNK d   1      21.456  66.792  -6.727  0.00  0.00    -0.061 A 
ATOM     13  C   UNK d   1      21.541  65.875  -5.700  0.00  0.00     0.009 A 
ATOM     14  C   UNK d   1      22.162  64.647  -5.883  0.00  0.00     0.038 A 
ATOM     15  C   UNK d   1      20.793  68.104  -6.537  0.00  0.00     0.048 C 
ATOM     16  C   UNK d   1      23.249  64.783  -9.419  0.00  0.00     0.070 C 
ATOM     17  C   UNK d   1      24.748  63.107  -6.832  0.00  0.00     0.276 C 
ATOM     18  C   UNK d   1      21.216  63.395  -9.737  0.00  0.00     0.251 A 
ATOM     19  O   UNK d   1      20.518  63.746  -8.729  0.00  0.00    -0.271 OA
ATOM     20  O   UNK d   1      24.666  62.871 -11.019  0.00  0.00    -0.173 OA
ATOM     21  H   UNK d   1      22.888  62.374  -6.613  0.00  0.00     0.286 HD
ENDROOT
BRANCH   1  22
ATOM     22  C   UNK d   1      19.048  63.077 -10.897  0.00  0.00     0.047 A 
ATOM     23  C   UNK d   1      18.368  61.954 -10.484  0.00  0.00     0.031 A 
ATOM     24  C   UNK d   1      16.979  61.906 -10.458  0.00  0.00     0.021 A 
ATOM     25  C   UNK d   1      16.261  63.002 -10.851  0.00  0.00     0.011 A 
ATOM     26 Br   UNK d   1      14.355  62.927 -10.811  0.00  0.00    -0.051 Br
ATOM     27  C   UNK d   1      16.920  64.146 -11.271  0.00  0.00     0.021 A 
ATOM     28  C   UNK d   1      18.305  64.169 -11.288  0.00  0.00     0.031 A 
ENDBRANCH   1  22
TORSDOF 1
ENDMDL
