/Users/jonathanwahrer/Desktop/Msc/3_Semester/Drug_Design_Praktikum/waehrer_HTS_screening/HTS_experiment/out/docking_results/vina_output/3sx0/0436_docked.pdbqt
 OpenBabel03192221463D

 29 32  0  0  0  0  0  0  0  0999 V2000
   20.8040   63.3430   -9.9140 N   0  0  0  0  0  0  0  0  0  0  0  0
   21.6340   63.6990  -11.0480 C   0  0  0  0  0  2  0  0  0  0  0  0
   23.0410   64.0790  -10.6520 C   0  0  0  0  0  2  0  0  0  0  0  0
   23.5100   63.0400   -9.6230 C   0  0  0  0  0  2  0  0  0  0  0  0
   22.7360   63.3130   -8.4400 N   0  0  0  0  0  0  0  0  0  0  0  0
   21.3880   63.4590   -8.6220 C   0  0  0  0  0  0  0  0  0  0  0  0
   20.8230   63.7080   -7.4300 N   0  0  0  0  0  0  0  0  0  0  0  0
   21.8290   63.7130   -6.5190 C   0  0  0  0  0  0  0  0  0  0  0  0
   23.0390   63.4640   -7.1470 C   0  0  0  0  0  0  0  0  0  0  0  0
   24.2140   63.4210   -6.4230 C   0  0  0  0  0  0  0  0  0  0  0  0
   25.3070   63.1880   -7.0390 O   0  0  0  0  0  0  0  0  0  0  0  0
   24.1760   63.6220   -5.0930 N   0  0  0  0  0  0  0  0  0  0  0  0
   22.9890   63.8620   -4.5090 C   0  0  0  0  0  0  0  0  0  0  0  0
   22.9990   64.0450   -3.2620 O   0  0  0  0  0  0  0  0  0  0  0  0
   21.8430   63.9080   -5.1890 N   0  0  0  0  0  0  0  0  0  0  0  0
   20.5760   64.1710   -4.5230 C   0  0  0  0  0  1  0  0  0  0  0  0
   19.4790   62.9080  -10.1390 C   0  0  0  0  0  0  0  0  0  0  0  0
   18.4680   63.7200  -10.6020 C   0  0  0  0  0  3  0  0  0  0  0  0
   17.1890   63.1960  -10.7950 C   0  0  0  0  0  3  0  0  0  0  0  0
   16.9120   61.8710  -10.5310 C   0  0  0  0  0  0  0  0  0  0  0  0
   15.1950   61.1320  -10.7810 Br  0  0  0  0  0  0  0  0  0  0  0  0
   17.9210   61.0510  -10.0670 C   0  0  0  0  0  3  0  0  0  0  0  0
   19.1650   61.5920   -9.8870 C   0  0  0  0  0  3  0  0  0  0  0  0
   25.4060   63.5770   -4.3220 C   0  0  0  0  0  2  0  0  0  0  0  0
   25.7500   62.1420   -4.0550 C   0  0  0  0  0  0  0  0  0  0  0  0
   25.2020   61.5200   -3.1150 O   0  0  0  0  0  0  0  0  0  0  0  0
   26.6940   61.4520   -4.8490 N   0  0  0  0  0  0  0  0  0  0  0  0
   26.5910   60.4420   -5.0980 H   0  0  0  0  0  0  0  0  0  0  0  0
   27.5470   61.9340   -5.2250 H   0  0  0  0  0  0  0  0  0  0  0  0
  1  6  1  0  0  0  0
  2  3  1  0  0  0  0
  2  1  1  0  0  0  0
  3  4  1  0  0  0  0
  4  5  1  0  0  0  0
  5  9  1  0  0  0  0
  6  5  1  0  0  0  0
  6  7  2  0  0  0  0
  7  8  1  0  0  0  0
  8 15  1  0  0  0  0
  9  8  2  0  0  0  0
  9 10  1  0  0  0  0
 10 12  1  0  0  0  0
 11 10  2  0  0  0  0
 12 13  1  0  0  0  0
 12 24  1  0  0  0  0
 13 14  2  0  0  0  0
 15 16  1  0  0  0  0
 15 13  1  0  0  0  0
 17  1  1  0  0  0  0
 17 23  1  0  0  0  0
 18 17  2  0  0  0  0
 19 18  1  0  0  0  0
 19 20  2  0  0  0  0
 20 22  1  0  0  0  0
 21 20  1  0  0  0  0
 22 23  2  0  0  0  0
 24 25  1  0  0  0  0
 25 26  2  0  0  0  0
 27 25  1  0  0  0  0
 28 27  1  0  0  0  0
 29 27  1  0  0  0  0
M  END
>  <Pose>
1

>  <Score>
-6.201

$$$$
