MODEL 1
REMARK VINA RESULT:    -6.201      0.000      0.000
REMARK INTER + INTRA:          -7.990
REMARK INTER:                  -7.288
REMARK INTRA:                  -0.702
REMARK UNBOUND:                -0.702
REMARK  3 active torsions:
REMARK  status: ('A' for Active; 'I' for Inactive)
REMARK    1  A    between atoms: C_5  and  N_8 
REMARK    2  A    between atoms: N_19  and  C_24 
REMARK    3  A    between atoms: C_24  and  C_25 
REMARK       I    between atoms: C_25  and  N_27 
ROOT
ATOM      1  N   UNK d   1      20.804  63.343  -9.914  0.00  0.00    -0.181 N 
ATOM      2  C   UNK d   1      21.634  63.699 -11.048  0.00  0.00     0.149 C 
ATOM      3  C   UNK d   1      23.041  64.079 -10.652  0.00  0.00     0.042 C 
ATOM      4  C   UNK d   1      23.510  63.040  -9.623  0.00  0.00     0.150 C 
ATOM      5  N   UNK d   1      22.736  63.313  -8.440  0.00  0.00    -0.172 N 
ATOM      6  C   UNK d   1      21.388  63.459  -8.622  0.00  0.00     0.712 A 
ATOM      7  N   UNK d   1      20.823  63.708  -7.430  0.00  0.00    -0.043 NA
ATOM      8  C   UNK d   1      21.829  63.713  -6.519  0.00  0.00     0.185 A 
ATOM      9  C   UNK d   1      23.039  63.464  -7.147  0.00  0.00     0.166 A 
ATOM     10  C   UNK d   1      24.214  63.421  -6.423  0.00  0.00     0.283 A 
ATOM     11  O   UNK d   1      25.307  63.188  -7.039  0.00  0.00    -0.265 OA
ATOM     12  N   UNK d   1      24.176  63.622  -5.093  0.00  0.00    -0.255 N 
ATOM     13  C   UNK d   1      22.989  63.862  -4.509  0.00  0.00     0.333 A 
ATOM     14  O   UNK d   1      22.999  64.045  -3.262  0.00  0.00    -0.246 OA
ATOM     15  N   UNK d   1      21.843  63.908  -5.189  0.00  0.00    -0.285 N 
ATOM     16  C   UNK d   1      20.576  64.171  -4.523  0.00  0.00     0.163 C 
ENDROOT
BRANCH   1  17
ATOM     17  C   UNK d   1      19.479  62.908 -10.139  0.00  0.00     0.051 A 
ATOM     18  C   UNK d   1      18.468  63.720 -10.602  0.00  0.00     0.031 A 
ATOM     19  C   UNK d   1      17.189  63.196 -10.795  0.00  0.00     0.021 A 
ATOM     20  C   UNK d   1      16.912  61.871 -10.531  0.00  0.00     0.011 A 
ATOM     21 Br   UNK d   1      15.195  61.132 -10.781  0.00  0.00    -0.051 Br
ATOM     22  C   UNK d   1      17.921  61.051 -10.067  0.00  0.00     0.021 A 
ATOM     23  C   UNK d   1      19.165  61.592  -9.887  0.00  0.00     0.031 A 
ENDBRANCH   1  17
BRANCH  12  24
ATOM     24  C   UNK d   1      25.406  63.577  -4.322  0.00  0.00     0.239 C 
BRANCH  24  25
ATOM     25  C   UNK d   1      25.750  62.142  -4.055  0.00  0.00     0.233 C 
ATOM     26  O   UNK d   1      25.202  61.520  -3.115  0.00  0.00    -0.272 OA
ATOM     27  N   UNK d   1      26.694  61.452  -4.849  0.00  0.00    -0.369 N 
ATOM     28  H   UNK d   1      26.591  60.442  -5.098  0.00  0.00     0.159 HD
ATOM     29  H   UNK d   1      27.547  61.934  -5.225  0.00  0.00     0.159 HD
ENDBRANCH  24  25
ENDBRANCH  12  24
TORSDOF 3
ENDMDL
