/Users/jonathanwahrer/Desktop/Msc/3_Semester/Drug_Design_Praktikum/waehrer_HTS_screening/HTS_experiment/out/docking_results/vina_output/3sx0/0439_docked.pdbqt
 OpenBabel03192221473D

 28 32  0  0  1  0  0  0  0  0999 V2000
   17.2420   62.7810  -10.6680 N   0  0  0  0  0  0  0  0  0  0  0  0
   16.5670   61.6470  -10.5170 N   0  0  0  0  0  0  0  0  0  0  0  0
   15.2610   61.8360  -10.7830 C   0  0  0  0  0  0  0  0  0  0  0  0
   14.3070   60.9160  -10.7310 C   0  0  0  0  0  1  0  0  0  0  0  0
   15.0720   63.1590  -11.1270 C   0  0  0  0  0  0  0  0  0  0  0  0
   16.3400   63.7130  -11.0410 C   0  0  0  0  0  0  0  0  0  0  0  0
   16.5930   64.9170  -11.2790 O   0  0  0  0  0  0  0  0  0  0  0  0
   16.9880   60.7400  -10.2320 H   0  0  0  0  0  0  0  0  0  0  0  0
   13.9370   63.7780  -11.4650 C   0  0  0  0  0  2  0  0  0  0  0  0
   13.9320   64.5530  -12.6580 N   0  0  0  0  0  0  0  0  0  0  0  0
   14.6670   65.2650  -12.7740 H   0  0  0  0  0  0  0  0  0  0  0  0
   12.9470   64.3690  -13.6850 C   0  0  1  0  0  0  0  0  0  0  0  0
   13.4320   64.9120  -14.9910 C   0  0  0  0  0  2  0  0  0  0  0  0
   12.4470   64.6190  -16.0230 N   0  0  1  0  0  0  0  0  0  0  0  0
   12.3000   63.1700  -16.0970 C   0  0  0  0  0  2  0  0  0  0  0  0
   11.1980   65.2470  -15.6760 C   0  0  0  0  0  2  0  0  0  0  0  0
   11.7680   62.6240  -14.8730 N   0  0  2  0  0  0  0  0  0  0  0  0
   10.5190   63.3020  -14.5390 C   0  0  0  0  0  2  0  0  0  0  0  0
   12.6960   62.8620  -13.7990 C   0  0  0  0  0  2  0  0  0  0  0  0
   10.7010   64.7310  -14.4210 N   0  0  1  0  0  0  0  0  0  0  0  0
   11.6300   65.0340  -13.3590 C   0  0  0  0  0  2  0  0  0  0  0  0
   18.6350   62.9990  -10.4810 C   0  0  0  0  0  0  0  0  0  0  0  0
   19.4710   63.1120  -11.5720 C   0  0  0  0  0  3  0  0  0  0  0  0
   20.8400   63.3250  -11.4250 C   0  0  0  0  0  3  0  0  0  0  0  0
   21.3860   63.4270  -10.1800 C   0  0  0  0  0  0  0  0  0  0  0  0
   23.2690   63.7210   -9.9200 Br  0  0  0  0  0  0  0  0  0  0  0  0
   20.5710   63.3180   -9.0650 C   0  0  0  0  0  3  0  0  0  0  0  0
   19.2220   63.1070   -9.2380 C   0  0  0  0  0  3  0  0  0  0  0  0
  1  2  1  0  0  0  0
  1 22  1  0  0  0  0
  2  8  1  0  0  0  0
  3  4  1  0  0  0  0
  3  2  1  0  0  0  0
  5  6  1  0  0  0  0
  5  3  2  0  0  0  0
  6  1  1  0  0  0  0
  7  6  2  0  0  0  0
  9  5  1  0  0  0  0
 10  9  1  0  0  0  0
 11 10  1  0  0  0  0
 12 21  1  0  0  0  0
 12 10  1  1  0  0  0
 13 12  1  0  0  0  0
 14 15  1  1  0  0  0
 14 16  1  0  0  0  0
 14 13  1  0  0  0  0
 17 15  1  6  0  0  0
 17 18  1  0  0  0  0
 17 19  1  0  0  0  0
 18 20  1  0  0  0  0
 19 12  1  0  0  0  0
 20 16  1  6  0  0  0
 20 21  1  0  0  0  0
 22 28  1  0  0  0  0
 23 24  1  0  0  0  0
 23 22  2  0  0  0  0
 24 25  2  0  0  0  0
 25 26  1  0  0  0  0
 25 27  1  0  0  0  0
 28 27  2  0  0  0  0
M  END
>  <Pose>
1

>  <Score>
-7.600

$$$$
