MODEL 1
REMARK VINA RESULT:    -6.583      0.000      0.000
REMARK INTER + INTRA:          -7.462
REMARK INTER:                  -7.353
REMARK INTRA:                  -0.109
REMARK UNBOUND:                -0.109
REMARK  2 active torsions:
REMARK  status: ('A' for Active; 'I' for Inactive)
REMARK    1  A    between atoms: C_7  and  C_8 
REMARK    2  A    between atoms: C_8  and  N_9 
ROOT
ATOM      1  C   UNK d   1      21.020  64.749  -9.509  0.00  0.00     0.284 C 
ENDROOT
BRANCH   1   2
ATOM      2  C   UNK d   1      22.049  64.494  -8.501  0.00  0.00    -0.012 A 
ATOM      3  C   UNK d   1      23.181  63.763  -8.898  0.00  0.00     0.021 A 
ATOM      4 Br   UNK d   1      23.510  63.242 -10.710  0.00  0.00    -0.050 Br
ATOM      5  C   UNK d   1      24.070  63.412  -7.899  0.00  0.00     0.059 A 
ATOM      6  C   UNK d   1      23.843  63.775  -6.587  0.00  0.00     0.106 A 
ATOM      7  C   UNK d   1      22.747  64.489  -6.163  0.00  0.00     0.105 A 
ATOM      8  O   UNK d   1      24.644  63.499  -5.437  0.00  0.00    -0.323 OA
ATOM      9  C   UNK d   1      21.871  64.832  -7.157  0.00  0.00     0.050 A 
ATOM     10  O   UNK d   1      22.908  64.620  -4.794  0.00  0.00    -0.323 OA
ATOM     11  C   UNK d   1      23.693  63.486  -4.331  0.00  0.00     0.352 C 
ENDBRANCH   1   2
BRANCH   1  12
ATOM     12  N   UNK d   1      20.052  63.775  -9.797  0.00  0.00     0.016 N 
ATOM     13  C   UNK d   1      20.138  63.730 -11.301  0.00  0.00     0.517 C 
ATOM     14  N   UNK d   1      19.080  63.058 -11.929  0.00  0.00     0.171 N 
ATOM     15  C   UNK d   1      17.848  63.698 -11.504  0.00  0.00     0.551 C 
ATOM     16  C   UNK d   1      19.177  61.658 -11.502  0.00  0.00     0.551 C 
ATOM     17  N   UNK d   1      17.719  63.476 -10.085  0.00  0.00     0.171 N 
ATOM     18  C   UNK d   1      18.720  64.185  -9.355  0.00  0.00     0.517 C 
ATOM     19  C   UNK d   1      17.785  62.061  -9.702  0.00  0.00     0.551 C 
ATOM     20  N   UNK d   1      19.111  61.586 -10.062  0.00  0.00     0.171 N 
ATOM     21  C   UNK d   1      20.167  62.400  -9.424  0.00  0.00     0.517 C 
ENDBRANCH   1  12
TORSDOF 2
ENDMDL
