MODEL 1
REMARK VINA RESULT:    -7.541      0.000      0.000
REMARK INTER + INTRA:          -9.521
REMARK INTER:                  -9.745
REMARK INTRA:                   0.224
REMARK UNBOUND:                 0.224
REMARK  5 active torsions:
REMARK  status: ('A' for Active; 'I' for Inactive)
REMARK    1  A    between atoms: C_7  and  C_8 
REMARK    2  A    between atoms: C_8  and  N_9 
REMARK    3  A    between atoms: N_12  and  C_15 
REMARK    4  A    between atoms: C_15  and  C_16 
REMARK       I    between atoms: C_16  and  N_18 
REMARK    5  A    between atoms: N_18  and  C_19 
ROOT
ATOM      1  N   UNK d   1      21.129  63.902  -9.947  0.00  0.00     0.095 N 
ATOM      2  C   UNK d   1      21.155  63.232 -11.273  0.00  0.00     0.292 C 
ATOM      3  C   UNK d   1      19.704  62.808 -11.475  0.00  0.00     0.147 C 
ATOM      4  N   UNK d   1      18.904  62.921 -10.312  0.00  0.00    -0.401 N 
ATOM      5  C   UNK d   1      19.515  62.335  -9.147  0.00  0.00     0.147 C 
ATOM      6  C   UNK d   1      20.946  62.772  -9.033  0.00  0.00     0.292 C 
ENDROOT
BRANCH   1   7
ATOM      7  C   UNK d   1      22.405  64.548  -9.710  0.00  0.00     0.312 C 
BRANCH   7   8
ATOM      8  C   UNK d   1      22.785  64.437  -8.280  0.00  0.00    -0.010 A 
ATOM      9  C   UNK d   1      22.248  65.295  -7.322  0.00  0.00     0.021 A 
ATOM     10 Br   UNK d   1      21.030  66.632  -7.935  0.00  0.00    -0.050 Br
ATOM     11  C   UNK d   1      22.565  65.200  -5.986  0.00  0.00     0.059 A 
ATOM     12  C   UNK d   1      23.438  64.244  -5.530  0.00  0.00     0.103 A 
ATOM     13  C   UNK d   1      23.983  63.387  -6.444  0.00  0.00     0.102 A 
ATOM     14  O   UNK d   1      23.783  64.116  -4.191  0.00  0.00    -0.346 OA
ATOM     15  C   UNK d   1      23.659  63.485  -7.796  0.00  0.00     0.050 A 
ATOM     16  O   UNK d   1      24.867  62.414  -6.004  0.00  0.00    -0.346 OA
ATOM     17  C   UNK d   1      25.445  62.411  -4.724  0.00  0.00     0.202 C 
ATOM     18  C   UNK d   1      24.536  63.031  -3.712  0.00  0.00     0.202 C 
ENDBRANCH   7   8
ENDBRANCH   1   7
BRANCH   4  19
ATOM     19  C   UNK d   1      18.204  64.131 -10.100  0.00  0.00     0.219 C 
BRANCH  19  20
ATOM     20  C   UNK d   1      16.756  64.056 -10.146  0.00  0.00     0.235 C 
ATOM     21  O   UNK d   1      16.047  64.958  -9.650  0.00  0.00    -0.272 OA
ATOM     22  N   UNK d   1      16.102  62.960 -10.754  0.00  0.00    -0.355 N 
ATOM     23  H   UNK d   1      16.633  62.157 -11.199  0.00  0.00     0.162 HD
BRANCH  22  24
ATOM     24  C   UNK d   1      14.650  62.851 -10.818  0.00  0.00     0.084 A 
ATOM     25  C   UNK d   1      14.006  62.039 -11.863  0.00  0.00     0.027 A 
ATOM     26  C   UNK d   1      14.012  63.529 -12.028  0.00  0.00     0.027 A 
ENDBRANCH  22  24
ENDBRANCH  19  20
ENDBRANCH   4  19
TORSDOF 5
ENDMDL
