/Users/jonathanwahrer/Desktop/Msc/3_Semester/Drug_Design_Praktikum/waehrer_HTS_screening/HTS_experiment/out/docking_results/vina_output/3sx0/0455_docked.pdbqt
 OpenBabel03192221483D

 26 29  0  0  0  0  0  0  0  0999 V2000
   21.1290   63.9020   -9.9470 N   0  0  0  0  0  0  0  0  0  0  0  0
   21.1550   63.2320  -11.2730 C   0  0  0  0  0  2  0  0  0  0  0  0
   19.7040   62.8080  -11.4750 C   0  0  0  0  0  2  0  0  0  0  0  0
   18.9040   62.9210  -10.3120 N   0  0  0  0  0  0  0  0  0  0  0  0
   19.5150   62.3350   -9.1470 C   0  0  0  0  0  2  0  0  0  0  0  0
   20.9460   62.7720   -9.0330 C   0  0  0  0  0  2  0  0  0  0  0  0
   22.4050   64.5480   -9.7100 C   0  0  0  0  0  2  0  0  0  0  0  0
   22.7850   64.4370   -8.2800 C   0  0  0  0  0  0  0  0  0  0  0  0
   22.2480   65.2950   -7.3220 C   0  0  0  0  0  0  0  0  0  0  0  0
   21.0300   66.6320   -7.9350 Br  0  0  0  0  0  0  0  0  0  0  0  0
   22.5650   65.2000   -5.9860 C   0  0  0  0  0  3  0  0  0  0  0  0
   23.4380   64.2440   -5.5300 C   0  0  0  0  0  0  0  0  0  0  0  0
   23.9830   63.3870   -6.4440 C   0  0  0  0  0  0  0  0  0  0  0  0
   23.7830   64.1160   -4.1910 O   0  0  0  0  0  0  0  0  0  0  0  0
   23.6590   63.4850   -7.7960 C   0  0  0  0  0  3  0  0  0  0  0  0
   24.8670   62.4140   -6.0040 O   0  0  0  0  0  0  0  0  0  0  0  0
   25.4450   62.4110   -4.7240 C   0  0  0  0  0  2  0  0  0  0  0  0
   24.5360   63.0310   -3.7120 C   0  0  0  0  0  2  0  0  0  0  0  0
   18.2040   64.1310  -10.1000 C   0  0  0  0  0  2  0  0  0  0  0  0
   16.7560   64.0560  -10.1460 C   0  0  0  0  0  0  0  0  0  0  0  0
   16.0470   64.9580   -9.6500 O   0  0  0  0  0  0  0  0  0  0  0  0
   16.1020   62.9600  -10.7540 N   0  0  0  0  0  0  0  0  0  0  0  0
   16.6330   62.1570  -11.1990 H   0  0  0  0  0  0  0  0  0  0  0  0
   14.6500   62.8510  -10.8180 C   0  0  0  0  0  3  0  0  0  0  0  0
   14.0060   62.0390  -11.8630 C   0  0  0  0  0  2  0  0  0  0  0  0
   14.0120   63.5290  -12.0280 C   0  0  0  0  0  2  0  0  0  0  0  0
  1  7  1  0  0  0  0
  1  6  1  0  0  0  0
  2  1  1  0  0  0  0
  3  2  1  0  0  0  0
  3  4  1  0  0  0  0
  4 19  1  0  0  0  0
  4  5  1  0  0  0  0
  5  6  1  0  0  0  0
  7  8  1  0  0  0  0
  8 15  2  0  0  0  0
  8  9  1  0  0  0  0
  9 11  2  0  0  0  0
 10  9  1  0  0  0  0
 11 12  1  0  0  0  0
 12 14  1  0  0  0  0
 13 16  1  0  0  0  0
 13 12  2  0  0  0  0
 14 18  1  0  0  0  0
 15 13  1  0  0  0  0
 16 17  1  0  0  0  0
 17 18  1  0  0  0  0
 20 19  1  0  0  0  0
 20 21  2  0  0  0  0
 22 20  1  0  0  0  0
 23 22  1  0  0  0  0
 24 22  1  0  0  0  0
 25 24  1  0  0  0  0
 26 25  1  0  0  0  0
 26 24  1  0  0  0  0
M  END
>  <Pose>
1

>  <Score>
-7.541

$$$$
