MODEL 1
REMARK VINA RESULT:    -9.239      0.000      0.000
REMARK INTER + INTRA:         -12.542
REMARK INTER:                 -11.939
REMARK INTRA:                  -0.603
REMARK UNBOUND:                -0.603
REMARK  5 active torsions:
REMARK  status: ('A' for Active; 'I' for Inactive)
REMARK    1  A    between atoms: C_7  and  C_8 
REMARK    2  A    between atoms: N_9  and  N_10 
REMARK    3  A    between atoms: N_10  and  C_11 
REMARK    4  A    between atoms: C_13  and  N_19 
REMARK    5  A    between atoms: C_15  and  O_17 
ROOT
ATOM      1  C   UNK d   1      22.310  64.002  -8.051  0.00  0.00     0.762 A 
ATOM      2  N   UNK d   1      23.081  63.408  -7.126  0.00  0.00     0.132 NA
ATOM      3  C   UNK d   1      23.504  64.047  -6.001  0.00  0.00     0.744 A 
ATOM      4  N   UNK d   1      23.106  65.311  -5.866  0.00  0.00    -0.017 NA
ATOM      5  C   UNK d   1      22.343  65.956  -6.745  0.00  0.00     0.302 A 
ATOM      6  N   UNK d   1      21.945  65.268  -7.857  0.00  0.00    -0.016 NA
ENDROOT
BRANCH   1   7
ATOM      7  N   UNK d   1      21.976  63.226  -9.183  0.00  0.00    -0.105 N 
ATOM      8  H   UNK d   1      22.732  62.693  -9.665  0.00  0.00     0.208 HD
BRANCH   7   9
ATOM      9  N   UNK d   1      20.690  63.144  -9.678  0.00  0.00    -0.172 NA
ATOM     10  C   UNK d   1      19.616  62.929  -9.045  0.00  0.00     0.152 C 
BRANCH  10  11
ATOM     11  C   UNK d   1      18.333  62.869  -9.714  0.00  0.00     0.003 A 
ATOM     12  C   UNK d   1      17.694  61.674  -9.960  0.00  0.00     0.025 A 
ATOM     13 Br   UNK d   1      18.508  60.057  -9.402  0.00  0.00    -0.050 Br
ATOM     14  C   UNK d   1      16.472  61.650 -10.606  0.00  0.00     0.059 A 
ATOM     15  C   UNK d   1      15.835  62.816 -11.036  0.00  0.00     0.106 A 
ATOM     16  C   UNK d   1      16.474  64.030 -10.792  0.00  0.00     0.105 A 
ATOM     17  O   UNK d   1      14.645  63.090 -11.690  0.00  0.00    -0.323 OA
ATOM     18  C   UNK d   1      17.692  64.029 -10.146  0.00  0.00     0.054 A 
ATOM     19  O   UNK d   1      15.655  65.011 -11.305  0.00  0.00    -0.323 OA
ATOM     20  C   UNK d   1      14.585  64.448 -12.038  0.00  0.00     0.352 C 
ENDBRANCH  10  11
ENDBRANCH   7   9
ENDBRANCH   1   7
BRANCH   3  21
ATOM     21  N   UNK d   1      24.296  63.352  -5.084  0.00  0.00    -0.209 N 
ATOM     22  C   UNK d   1      25.537  62.731  -5.481  0.00  0.00     0.167 C 
ATOM     23  C   UNK d   1      26.394  62.404  -4.276  0.00  0.00     0.188 C 
ATOM     24  O   UNK d   1      26.305  63.270  -3.236  0.00  0.00    -0.388 OA
ATOM     25  C   UNK d   1      25.098  63.815  -2.925  0.00  0.00     0.188 C 
ATOM     26  C   UNK d   1      23.915  63.242  -3.699  0.00  0.00     0.167 C 
ENDBRANCH   3  21
BRANCH   5  27
ATOM     27  O   UNK d   1      21.946  67.271  -6.575  0.00  0.00    -0.323 OA
ATOM     28  C   UNK d   1      22.888  68.275  -6.307  0.00  0.00     0.213 C 
ENDBRANCH   5  27
TORSDOF 5
ENDMDL
