/Users/jonathanwahrer/Desktop/Msc/3_Semester/Drug_Design_Praktikum/waehrer_HTS_screening/HTS_experiment/out/docking_results/vina_output/3sx0/0467_docked.pdbqt
 OpenBabel03192221483D

 28 31  0  0  1  0  0  0  0  0999 V2000
   22.3100   64.0020   -8.0510 C   0  0  0  0  0  0  0  0  0  0  0  0
   23.0810   63.4080   -7.1260 N   0  0  0  0  0  0  0  0  0  0  0  0
   23.5040   64.0470   -6.0010 C   0  0  1  0  0  3  0  0  0  0  0  0
   23.1060   65.3110   -5.8660 N   0  0  0  0  0  0  0  0  0  0  0  0
   22.3430   65.9560   -6.7450 C   0  0  0  0  0  0  0  0  0  0  0  0
   21.9450   65.2680   -7.8570 N   0  0  0  0  0  0  0  0  0  0  0  0
   21.9760   63.2260   -9.1830 N   0  0  0  0  0  0  0  0  0  0  0  0
   22.7320   62.6930   -9.6650 H   0  0  0  0  0  0  0  0  0  0  0  0
   20.6900   63.1440   -9.6780 N   0  0  0  0  0  0  0  0  0  0  0  0
   19.6160   62.9290   -9.0450 C   0  0  0  0  0  3  0  0  0  0  0  0
   18.3330   62.8690   -9.7140 C   0  0  0  0  0  0  0  0  0  0  0  0
   17.6940   61.6740   -9.9600 C   0  0  0  0  0  0  0  0  0  0  0  0
   18.5080   60.0570   -9.4020 Br  0  0  0  0  0  0  0  0  0  0  0  0
   16.4720   61.6500  -10.6060 C   0  0  0  0  0  3  0  0  0  0  0  0
   15.8350   62.8160  -11.0360 C   0  0  0  0  0  0  0  0  0  0  0  0
   16.4740   64.0300  -10.7920 C   0  0  0  0  0  0  0  0  0  0  0  0
   14.6450   63.0900  -11.6900 O   0  0  0  0  0  0  0  0  0  0  0  0
   17.6920   64.0290  -10.1460 C   0  0  0  0  0  3  0  0  0  0  0  0
   15.6550   65.0110  -11.3050 O   0  0  0  0  0  0  0  0  0  0  0  0
   14.5850   64.4480  -12.0380 C   0  0  0  0  0  2  0  0  0  0  0  0
   24.2960   63.3520   -5.0840 N   0  0  0  0  0  0  0  0  0  0  0  0
   25.5370   62.7310   -5.4810 C   0  0  0  0  0  2  0  0  0  0  0  0
   26.3940   62.4040   -4.2760 C   0  0  0  0  0  2  0  0  0  0  0  0
   26.3050   63.2700   -3.2360 O   0  0  0  0  0  0  0  0  0  0  0  0
   25.0980   63.8150   -2.9250 C   0  0  0  0  0  2  0  0  0  0  0  0
   23.9150   63.2420   -3.6990 C   0  0  0  0  0  2  0  0  0  0  0  0
   21.9460   67.2710   -6.5750 O   0  0  0  0  0  0  0  0  0  0  0  0
   22.8880   68.2750   -6.3070 C   0  0  0  0  0  1  0  0  0  0  0  0
  1  6  1  0  0  0  0
  1  2  2  0  0  0  0
  2  3  1  0  0  0  0
  3  4  1  0  0  0  0
  3 21  1  1  0  0  0
  5 27  1  0  0  0  0
  5  4  2  0  0  0  0
  6  5  2  0  0  0  0
  7  1  1  0  0  0  0
  8  7  1  0  0  0  0
  9  7  1  0  0  0  0
  9 10  2  0  0  0  0
 11 10  1  0  0  0  0
 12 11  1  0  0  0  0
 12 13  1  0  0  0  0
 14 12  2  0  0  0  0
 15 16  2  0  0  0  0
 15 14  1  0  0  0  0
 16 18  1  0  0  0  0
 17 15  1  0  0  0  0
 18 11  2  0  0  0  0
 19 16  1  0  0  0  0
 20 17  1  0  0  0  0
 20 19  1  0  0  0  0
 21 26  1  0  0  0  0
 22 21  1  0  0  0  0
 22 23  1  0  0  0  0
 23 24  1  0  0  0  0
 24 25  1  0  0  0  0
 26 25  1  0  0  0  0
 27 28  1  0  0  0  0
M  END
>  <Pose>
1

>  <Score>
-9.239

$$$$
