MODEL 1
REMARK VINA RESULT:    -8.495      0.000      0.000
REMARK INTER + INTRA:          -9.710
REMARK INTER:                  -9.984
REMARK INTRA:                   0.275
REMARK UNBOUND:                 0.275
REMARK  3 active torsions:
REMARK  status: ('A' for Active; 'I' for Inactive)
REMARK    1  A    between atoms: C_11  and  C_13 
REMARK       I    between atoms: C_13  and  N_15 
REMARK    2  A    between atoms: N_18  and  C_21 
REMARK    3  A    between atoms: C_21  and  C_22 
ROOT
ATOM      1  C   UNK d   1      20.856  63.654  -8.381  0.00  0.00     0.277 C 
ATOM      2  O   UNK d   1      19.766  63.092  -8.070  0.00  0.00    -0.265 OA
ATOM      3  N   UNK d   1      21.547  64.406  -7.410  0.00  0.00    -0.343 N 
ATOM      4  C   UNK d   1      20.991  64.512  -6.086  0.00  0.00     0.145 C 
ATOM      5  C   UNK d   1      21.959  64.080  -5.005  0.00  0.00     0.137 C 
ATOM      6  N   UNK d   1      23.275  64.362  -5.442  0.00  0.00    -0.404 N 
ATOM      7  C   UNK d   1      23.350  65.507  -6.262  0.00  0.00     0.137 C 
ATOM      8  C   UNK d   1      22.796  65.093  -7.638  0.00  0.00     0.145 C 
ENDROOT
BRANCH   1   9
ATOM      9  C   UNK d   1      21.345  63.490  -9.756  0.00  0.00     0.147 A 
ATOM     10  C   UNK d   1      20.458  63.224 -10.773  0.00  0.00     0.098 A 
ATOM     11  C   UNK d   1      20.872  63.063 -12.079  0.00  0.00     0.187 A 
ATOM     12  C   UNK d   1      22.219  63.171 -12.372  0.00  0.00     0.048 A 
ATOM     13  O   UNK d   1      20.042  62.817 -13.015  0.00  0.00    -0.287 OA
ATOM     14  C   UNK d   1      23.059  63.438 -11.308  0.00  0.00     0.091 A 
ATOM     15  C   UNK d   1      22.660  63.014 -13.663  0.00  0.00     0.020 A 
ATOM     16  C   UNK d   1      24.409  63.545 -11.608  0.00  0.00     0.057 A 
ATOM     17  O   UNK d   1      22.609  63.582 -10.086  0.00  0.00    -0.304 OA
ATOM     18  C   UNK d   1      24.881  63.392 -12.901  0.00  0.00     0.013 A 
ATOM     19 Br   UNK d   1      26.746  63.547 -13.271  0.00  0.00    -0.051 Br
ATOM     20  C   UNK d   1      24.002  63.126 -13.933  0.00  0.00     0.020 A 
ENDBRANCH   1   9
BRANCH   6  21
ATOM     21  C   UNK d   1      24.095  63.265  -5.768  0.00  0.00     0.181 C 
BRANCH  21  22
ATOM     22  C   UNK d   1      25.189  62.994  -4.840  0.00  0.00     0.108 A 
ATOM     23  N   UNK d   1      26.480  62.848  -5.180  0.00  0.00    -0.106 NA
ATOM     24  O   UNK d   1      27.136  62.621  -4.098  0.00  0.00    -0.106 OA
ATOM     25  N   UNK d   1      26.345  62.609  -3.054  0.00  0.00    -0.108 NA
ATOM     26  C   UNK d   1      25.086  62.844  -3.485  0.00  0.00     0.088 A 
ATOM     27  C   UNK d   1      23.851  62.921  -2.649  0.00  0.00     0.075 C 
ENDBRANCH  21  22
ENDBRANCH   6  21
TORSDOF 3
ENDMDL
