/Users/jonathanwahrer/Desktop/Msc/3_Semester/Drug_Design_Praktikum/waehrer_HTS_screening/HTS_experiment/out/docking_results/vina_output/3sx0/0471_docked.pdbqt
 OpenBabel03192221493D

 27 30  0  0  0  0  0  0  0  0999 V2000
   20.8560   63.6540   -8.3810 C   0  0  0  0  0  0  0  0  0  0  0  0
   19.7660   63.0920   -8.0700 O   0  0  0  0  0  0  0  0  0  0  0  0
   21.5470   64.4060   -7.4100 N   0  0  0  0  0  0  0  0  0  0  0  0
   20.9910   64.5120   -6.0860 C   0  0  0  0  0  2  0  0  0  0  0  0
   21.9590   64.0800   -5.0050 C   0  0  0  0  0  2  0  0  0  0  0  0
   23.2750   64.3620   -5.4420 N   0  0  0  0  0  0  0  0  0  0  0  0
   23.3500   65.5070   -6.2620 C   0  0  0  0  0  2  0  0  0  0  0  0
   22.7960   65.0930   -7.6380 C   0  0  0  0  0  2  0  0  0  0  0  0
   21.3450   63.4900   -9.7560 C   0  0  0  0  0  0  0  0  0  0  0  0
   20.4580   63.2240  -10.7730 C   0  0  0  0  0  3  0  0  0  0  0  0
   20.8720   63.0630  -12.0790 C   0  0  0  0  0  0  0  0  0  0  0  0
   22.2190   63.1710  -12.3720 C   0  0  0  0  0  0  0  0  0  0  0  0
   20.0420   62.8170  -13.0150 O   0  0  0  0  0  0  0  0  0  0  0  0
   23.0590   63.4380  -11.3080 C   0  0  0  0  0  0  0  0  0  0  0  0
   22.6600   63.0140  -13.6630 C   0  0  0  0  0  3  0  0  0  0  0  0
   24.4090   63.5450  -11.6080 C   0  0  0  0  0  3  0  0  0  0  0  0
   22.6090   63.5820  -10.0860 O   0  0  0  0  0  0  0  0  0  0  0  0
   24.8810   63.3920  -12.9010 C   0  0  0  0  0  0  0  0  0  0  0  0
   26.7460   63.5470  -13.2710 Br  0  0  0  0  0  0  0  0  0  0  0  0
   24.0020   63.1260  -13.9330 C   0  0  0  0  0  3  0  0  0  0  0  0
   24.0950   63.2650   -5.7680 C   0  0  0  0  0  2  0  0  0  0  0  0
   25.1890   62.9940   -4.8400 C   0  0  0  0  0  0  0  0  0  0  0  0
   26.4800   62.8480   -5.1800 N   0  0  0  0  0  0  0  0  0  0  0  0
   27.1360   62.6210   -4.0980 O   0  0  0  0  0  0  0  0  0  0  0  0
   26.3450   62.6090   -3.0540 N   0  0  0  0  0  0  0  0  0  0  0  0
   25.0860   62.8440   -3.4850 C   0  0  0  0  0  0  0  0  0  0  0  0
   23.8510   62.9210   -2.6490 C   0  0  0  0  0  1  0  0  0  0  0  0
  1  2  2  0  0  0  0
  1  3  1  0  0  0  0
  3  4  1  0  0  0  0
  4  5  1  0  0  0  0
  6  5  1  0  0  0  0
  7  6  1  0  0  0  0
  8  3  1  0  0  0  0
  8  7  1  0  0  0  0
  9  1  1  0  0  0  0
 10  9  2  0  0  0  0
 11 10  1  0  0  0  0
 12 11  1  0  0  0  0
 12 14  1  0  0  0  0
 13 11  2  0  0  0  0
 14 17  1  0  0  0  0
 15 12  2  0  0  0  0
 16 14  2  0  0  0  0
 17  9  1  0  0  0  0
 18 16  1  0  0  0  0
 19 18  1  0  0  0  0
 20 15  1  0  0  0  0
 20 18  2  0  0  0  0
 21  6  1  0  0  0  0
 21 22  1  0  0  0  0
 22 26  1  0  0  0  0
 23 22  2  0  0  0  0
 23 24  1  0  0  0  0
 24 25  1  0  0  0  0
 26 25  2  0  0  0  0
 26 27  1  0  0  0  0
M  END
>  <Pose>
1

>  <Score>
-8.495

$$$$
