MODEL 1
REMARK VINA RESULT:    -8.488      0.000      0.000
REMARK INTER + INTRA:         -11.416
REMARK INTER:                 -10.969
REMARK INTRA:                  -0.446
REMARK UNBOUND:                -0.446
REMARK  5 active torsions:
REMARK  status: ('A' for Active; 'I' for Inactive)
REMARK    1  A    between atoms: N_10  and  C_13 
REMARK    2  A    between atoms: C_13  and  C_14 
REMARK    3  A    between atoms: C_14  and  C_15 
REMARK    4  A    between atoms: C_15  and  C_16 
REMARK       I    between atoms: C_16  and  N_18 
REMARK    5  A    between atoms: N_21  and  C_24 
ROOT
ATOM      1  C   UNK d   1      20.155  63.559 -10.358  0.00  0.00     0.104 C 
ENDROOT
BRANCH   1   2
ATOM      2  C   UNK d   1      19.606  62.186 -10.090  0.00  0.00     0.029 C 
BRANCH   2   3
ATOM      3  C   UNK d   1      18.367  62.289  -9.280  0.00  0.00     0.136 C 
BRANCH   3   4
ATOM      4  N   UNK d   1      17.182  62.560 -10.065  0.00  0.00    -0.280 N 
ATOM      5  C   UNK d   1      16.305  61.541 -10.522  0.00  0.00     0.261 A 
ATOM      6  C   UNK d   1      15.232  62.168 -11.272  0.00  0.00     0.048 A 
ATOM      7  O   UNK d   1      16.397  60.285 -10.334  0.00  0.00    -0.267 OA
ATOM      8  C   UNK d   1      15.468  63.529 -11.260  0.00  0.00     0.049 A 
ATOM      9  C   UNK d   1      14.129  61.654 -11.924  0.00  0.00     0.019 A 
ATOM     10  C   UNK d   1      14.567  64.344 -11.920  0.00  0.00     0.037 A 
ATOM     11  C   UNK d   1      16.699  63.805 -10.502  0.00  0.00     0.261 A 
ATOM     12  C   UNK d   1      13.468  63.818 -12.569  0.00  0.00     0.011 A 
ATOM     13 Br   UNK d   1      12.266  65.002 -13.458  0.00  0.00    -0.051 Br
ATOM     14  C   UNK d   1      13.225  62.460 -12.585  0.00  0.00     0.020 A 
ATOM     15  O   UNK d   1      17.195  64.947 -10.301  0.00  0.00    -0.267 OA
ENDBRANCH   3   4
ENDBRANCH   2   3
ENDBRANCH   1   2
BRANCH   1  16
ATOM     16  C   UNK d   1      21.583  63.725 -10.004  0.00  0.00     0.219 C 
ATOM     17  O   UNK d   1      22.517  63.705 -10.848  0.00  0.00    -0.273 OA
ATOM     18  N   UNK d   1      21.977  63.925  -8.633  0.00  0.00    -0.349 N 
ATOM     19  C   UNK d   1      23.368  64.090  -8.277  0.00  0.00     0.145 C 
ATOM     20  C   UNK d   1      21.011  63.969  -7.551  0.00  0.00     0.145 C 
ATOM     21  C   UNK d   1      23.606  65.188  -7.295  0.00  0.00     0.144 C 
ATOM     22  N   UNK d   1      22.410  65.876  -6.871  0.00  0.00    -0.362 N 
ATOM     23  C   UNK d   1      21.102  65.281  -6.810  0.00  0.00     0.144 C 
BRANCH  22  24
ATOM     24  C   UNK d   1      22.535  67.248  -6.482  0.00  0.00     0.143 A 
ATOM     25  N   UNK d   1      23.748  67.811  -6.236  0.00  0.00    -0.241 NA
ATOM     26  C   UNK d   1      23.908  69.083  -5.872  0.00  0.00     0.138 A 
ATOM     27  C   UNK d   1      22.784  69.885  -5.734  0.00  0.00     0.135 A 
ATOM     28  N   UNK d   1      21.560  69.355  -5.972  0.00  0.00    -0.268 NA
ATOM     29  C   UNK d   1      21.440  68.068  -6.336  0.00  0.00     0.166 A 
ENDBRANCH  22  24
ENDBRANCH   1  16
TORSDOF 5
ENDMDL
