MODEL 1
REMARK VINA RESULT:    -8.110      0.000      0.000
REMARK INTER + INTRA:         -12.741
REMARK INTER:                 -11.904
REMARK INTRA:                  -0.838
REMARK UNBOUND:                -0.838
REMARK  8 active torsions:
REMARK  status: ('A' for Active; 'I' for Inactive)
REMARK    1  A    between atoms: N_8  and  C_28 
REMARK    2  A    between atoms: C_11  and  N_12 
REMARK       I    between atoms: N_13  and  C_14 
REMARK    3  A    between atoms: C_14  and  C_16 
REMARK    4  A    between atoms: C_16  and  O_17 
REMARK    5  A    between atoms: O_17  and  N_18 
REMARK    6  A    between atoms: C_19  and  C_20 
REMARK    7  A    between atoms: C_23  and  O_26 
REMARK    8  A    between atoms: C_28  and  N_29 
ROOT
ATOM      1 Br   UNK d   1      21.720  65.080  -6.235  0.00  0.00    -0.051 Br
ATOM      2  C   UNK d   1      22.088  64.414  -7.986  0.00  0.00     0.011 A 
ATOM      3  C   UNK d   1      21.075  64.276  -8.947  0.00  0.00     0.035 A 
ATOM      4  C   UNK d   1      21.456  63.798 -10.168  0.00  0.00     0.028 A 
ATOM      5  C   UNK d   1      22.750  63.449 -10.495  0.00  0.00     0.052 A 
ATOM      6  C   UNK d   1      23.740  63.580  -9.548  0.00  0.00     0.032 A 
ATOM      7  C   UNK d   1      23.390  64.075  -8.283  0.00  0.00     0.021 A 
ATOM      8  N   UNK d   1      22.852  62.983 -11.834  0.00  0.00    -0.295 N 
ATOM      9  C   UNK d   1      21.509  63.038 -12.381  0.00  0.00     0.281 A 
ATOM     10  O   UNK d   1      21.194  62.720 -13.547  0.00  0.00    -0.265 OA
ATOM     11  C   UNK d   1      20.657  63.534 -11.323  0.00  0.00     0.157 A 
ENDROOT
BRANCH  11  12
ATOM     12  N   UNK d   1      19.382  63.597 -11.294  0.00  0.00    -0.166 NA
ATOM     13  N   UNK d   1      18.381  63.107 -10.948  0.00  0.00    -0.244 N 
ATOM     14  C   UNK d   1      17.177  62.494 -10.534  0.00  0.00     0.264 C 
ATOM     15  H   UNK d   1      18.790  61.838 -11.338  0.00  0.00     0.192 HD
ATOM     16  O   UNK d   1      16.824  61.337 -10.476  0.00  0.00    -0.269 OA
BRANCH  14  17
ATOM     17  C   UNK d   1      16.173  63.587 -10.104  0.00  0.00     0.308 C 
BRANCH  17  18
ATOM     18  O   UNK d   1      16.259  64.571 -11.158  0.00  0.00    -0.247 OA
BRANCH  18  19
ATOM     19  N   UNK d   1      15.263  64.439 -12.167  0.00  0.00    -0.145 NA
ATOM     20  C   UNK d   1      14.108  63.964 -11.906  0.00  0.00     0.157 C 
BRANCH  20  21
ATOM     21  C   UNK d   1      13.120  63.827 -12.951  0.00  0.00    -0.016 A 
ATOM     22  C   UNK d   1      12.399  64.838 -13.491  0.00  0.00     0.015 A 
ATOM     23  C   UNK d   1      11.424  64.476 -14.455  0.00  0.00     0.037 A 
ATOM     24  C   UNK d   1      11.151  63.250 -14.896  0.00  0.00     0.068 A 
ATOM     25  C   UNK d   1      11.900  62.275 -14.330  0.00  0.00     0.037 A 
ATOM     26  C   UNK d   1      12.856  62.416 -13.398  0.00  0.00     0.015 A 
BRANCH  24  27
ATOM     27  O   UNK d   1      10.161  63.037 -15.862  0.00  0.00    -0.356 OA
ATOM     28  C   UNK d   1       8.803  62.848 -15.481  0.00  0.00     0.210 C 
ENDBRANCH  24  27
ENDBRANCH  20  21
ENDBRANCH  18  19
ENDBRANCH  17  18
ENDBRANCH  14  17
ENDBRANCH  11  12
BRANCH   8  29
ATOM     29  C   UNK d   1      23.990  62.567 -12.638  0.00  0.00     0.253 C 
BRANCH  29  30
ATOM     30  N   UNK d   1      24.535  63.617 -13.347  0.00  0.00    -0.392 N 
ATOM     31  C   UNK d   1      25.904  63.799 -13.080  0.00  0.00     0.145 C 
ATOM     32  C   UNK d   1      26.657  64.027 -14.393  0.00  0.00     0.187 C 
ATOM     33  O   UNK d   1      26.244  62.930 -15.197  0.00  0.00    -0.388 OA
ATOM     34  C   UNK d   1      24.945  63.170 -15.665  0.00  0.00     0.187 C 
ATOM     35  C   UNK d   1      24.058  63.828 -14.654  0.00  0.00     0.145 C 
ENDBRANCH  29  30
ENDBRANCH   8  29
TORSDOF 8
ENDMDL
