MODEL 1
REMARK VINA RESULT:    -7.023      0.000      0.000
REMARK INTER + INTRA:         -10.885
REMARK INTER:                  -9.897
REMARK INTRA:                  -0.988
REMARK UNBOUND:                -0.988
REMARK  7 active torsions:
REMARK  status: ('A' for Active; 'I' for Inactive)
REMARK    1  A    between atoms: N_8  and  C_26 
REMARK    2  A    between atoms: N_12  and  N_13 
REMARK       I    between atoms: N_13  and  C_14 
REMARK    3  A    between atoms: C_14  and  C_16 
REMARK    4  A    between atoms: C_16  and  O_17 
REMARK    5  A    between atoms: O_17  and  C_18 
REMARK    6  A    between atoms: C_19  and  O_24 
REMARK    7  A    between atoms: C_26  and  N_27 
ROOT
ATOM      1 Br   UNK d   1       9.110  60.283 -14.305  0.00  0.00    -0.051 Br
ATOM      2  C   UNK d   1      10.137  61.853 -14.721  0.00  0.00     0.011 A 
ATOM      3  C   UNK d   1      11.190  62.253 -13.931  0.00  0.00     0.035 A 
ATOM      4  C   UNK d   1      11.961  63.381 -14.190  0.00  0.00     0.028 A 
ATOM      5  C   UNK d   1      11.648  64.149 -15.316  0.00  0.00     0.052 A 
ATOM      6  C   UNK d   1      10.592  63.748 -16.109  0.00  0.00     0.032 A 
ATOM      7  C   UNK d   1       9.834  62.614 -15.830  0.00  0.00     0.021 A 
ATOM      8  N   UNK d   1      12.549  65.261 -15.416  0.00  0.00    -0.295 N 
ATOM      9  C   UNK d   1      13.439  65.165 -14.312  0.00  0.00     0.281 A 
ATOM     10  O   UNK d   1      14.370  65.962 -14.062  0.00  0.00    -0.265 OA
ATOM     11  C   UNK d   1      13.095  63.996 -13.526  0.00  0.00     0.157 A 
ATOM     12  N   UNK d   1      13.672  63.579 -12.455  0.00  0.00    -0.166 NA
ENDROOT
BRANCH  12  13
ATOM     13  N   UNK d   1      14.758  64.225 -11.876  0.00  0.00    -0.244 N 
ATOM     14  C   UNK d   1      15.670  63.492 -11.088  0.00  0.00     0.261 C 
ATOM     15  O   UNK d   1      15.525  62.236 -10.889  0.00  0.00    -0.269 OA
ATOM     16  H   UNK d   1      14.888  65.235 -12.026  0.00  0.00     0.192 HD
BRANCH  14  17
ATOM     17  C   UNK d   1      16.855  64.100 -10.433  0.00  0.00     0.280 C 
BRANCH  17  18
ATOM     18  O   UNK d   1      17.818  63.092 -10.127  0.00  0.00    -0.339 OA
BRANCH  18  19
ATOM     19  C   UNK d   1      19.047  63.095 -10.765  0.00  0.00     0.102 A 
ATOM     20  C   UNK d   1      20.174  63.521 -10.095  0.00  0.00     0.101 A 
ATOM     21  C   UNK d   1      21.405  63.521 -10.743  0.00  0.00     0.039 A 
ATOM     22  C   UNK d   1      21.508  63.098 -12.054  0.00  0.00     0.003 A 
ATOM     23  C   UNK d   1      20.385  62.680 -12.704  0.00  0.00     0.003 A 
ATOM     24  C   UNK d   1      19.159  62.680 -12.058  0.00  0.00     0.039 A 
BRANCH  20  25
ATOM     25  O   UNK d   1      20.106  63.947  -8.793  0.00  0.00    -0.353 OA
ATOM     26  C   UNK d   1      21.193  63.763  -7.923  0.00  0.00     0.210 C 
ENDBRANCH  20  25
ENDBRANCH  18  19
ENDBRANCH  17  18
ENDBRANCH  14  17
ENDBRANCH  12  13
BRANCH   8  27
ATOM     27  C   UNK d   1      12.517  66.264 -16.467  0.00  0.00     0.253 C 
BRANCH  27  28
ATOM     28  N   UNK d   1      12.269  67.588 -16.023  0.00  0.00    -0.393 N 
ATOM     29  C   UNK d   1      13.053  68.606 -16.633  0.00  0.00     0.148 C 
ATOM     30  C   UNK d   1      12.768  69.986 -16.033  0.00  0.00     0.291 C 
ATOM     31  N   UNK d   1      12.022  69.768 -14.827  0.00  0.00     0.087 N 
ATOM     32  C   UNK d   1      10.719  69.227 -15.063  0.00  0.00     0.291 C 
ATOM     33  C   UNK d   1      12.050  70.876 -13.916  0.00  0.00     0.310 C 
ATOM     34  C   UNK d   1      10.888  67.928 -15.830  0.00  0.00     0.148 C 
ENDBRANCH  27  28
ENDBRANCH   8  27
TORSDOF 7
ENDMDL
