/Users/jonathanwahrer/Desktop/Msc/3_Semester/Drug_Design_Praktikum/waehrer_HTS_screening/HTS_experiment/out/docking_results/vina_output/3sx0/0500_docked.pdbqt
 OpenBabel03192221513D

 32 35  0  0  1  0  0  0  0  0999 V2000
   14.1980   63.7520  -10.7020 Br  0  0  0  0  0  0  0  0  0  0  0  0
   13.6430   64.2780  -12.4690 C   0  0  0  0  0  0  0  0  0  0  0  0
   12.5480   63.7610  -13.0990 C   0  0  0  0  0  3  0  0  0  0  0  0
   12.2040   64.1400  -14.3710 C   0  0  0  0  0  0  0  0  0  0  0  0
   13.0020   65.0620  -14.9870 C   0  0  0  0  0  0  0  0  0  0  0  0
   14.1280   65.6110  -14.3610 C   0  0  0  0  0  3  0  0  0  0  0  0
   14.4660   65.2210  -13.0820 C   0  0  0  0  0  3  0  0  0  0  0  0
   12.5560   65.3300  -16.3020 N   0  0  0  0  0  0  0  0  0  0  0  0
   11.4300   64.5420  -16.5290 C   0  0  0  0  0  0  0  0  0  0  0  0
   10.7960   64.5250  -17.6160 O   0  0  0  0  0  0  0  0  0  0  0  0
   11.1190   63.7440  -15.2860 C   0  0  2  0  0  0  0  0  0  0  0  0
    9.7700   64.1430  -14.9150 C   0  0  0  0  0  0  0  0  0  0  0  0
    8.7480   63.2450  -14.9790 C   0  0  0  0  0  0  0  0  0  0  0  0
    7.6240   63.9080  -14.5870 N   0  0  0  0  0  0  0  0  0  0  0  0
    7.9290   65.1460  -14.2970 N   0  0  0  0  0  0  0  0  0  0  0  0
    9.2510   65.3720  -14.4770 C   0  0  0  0  0  0  0  0  0  0  0  0
    8.9290   61.9100  -15.3910 O   0  0  0  0  0  0  0  0  0  0  0  0
   10.2120   61.5360  -15.7400 C   0  0  0  0  0  0  0  0  0  0  0  0
   11.2270   62.3530  -15.7010 C   0  0  0  0  0  0  0  0  0  0  0  0
   12.5500   61.8620  -16.0980 C   0  0  0  0  0  0  0  0  0  0  0  0
   13.5880   61.4740  -16.3900 N   0  0  0  0  0  0  0  0  0  0  0  0
   13.1700   66.2740  -17.2570 C   0  0  0  0  0  1  0  0  0  0  0  0
    7.2680   65.9060  -13.9620 H   0  0  0  0  0  0  0  0  0  0  0  0
   10.4010   60.1650  -16.1640 N   0  0  0  0  0  0  0  0  0  0  0  0
    9.6670   59.4390  -16.0950 H   0  0  0  0  0  0  0  0  0  0  0  0
   11.3200   59.9080  -16.5570 H   0  0  0  0  0  0  0  0  0  0  0  0
    9.9380   66.6640  -14.2210 C   0  0  0  0  0  2  0  0  0  0  0  0
    9.7780   67.5970  -15.3580 C   0  0  0  0  0  0  0  0  0  0  0  0
    8.9630   67.4580  -16.3060 O   0  0  0  0  0  0  0  0  0  0  0  0
   10.5870   68.7110  -15.3780 O   0  0  0  0  0  0  0  0  0  0  0  0
   11.8590   68.8250  -14.7980 C   0  0  0  0  0  2  0  0  0  0  0  0
   11.8220   69.8450  -13.6850 C   0  0  0  0  0  1  0  0  0  0  0  0
  2  1  1  0  0  0  0
  3  2  2  0  0  0  0
  4  3  1  0  0  0  0
  5  4  2  0  0  0  0
  5  6  1  0  0  0  0
  6  7  2  0  0  0  0
  7  2  1  0  0  0  0
  8  5  1  0  0  0  0
  9  8  1  0  0  0  0
 10  9  2  0  0  0  0
 11  9  1  6  0  0  0
 11 12  1  0  0  0  0
 11  4  1  0  0  0  0
 12 16  2  0  0  0  0
 13 12  1  0  0  0  0
 13 14  2  0  0  0  0
 14 15  1  0  0  0  0
 15 23  1  0  0  0  0
 16 15  1  0  0  0  0
 16 27  1  0  0  0  0
 17 13  1  0  0  0  0
 18 19  2  0  0  0  0
 18 17  1  0  0  0  0
 19 11  1  0  0  0  0
 20 19  1  0  0  0  0
 21 20  3  0  0  0  0
 22  8  1  0  0  0  0
 24 25  1  0  0  0  0
 24 18  1  0  0  0  0
 26 24  1  0  0  0  0
 28 27  1  0  0  0  0
 29 28  2  0  0  0  0
 30 28  1  0  0  0  0
 30 31  1  0  0  0  0
 31 32  1  0  0  0  0
M  END
>  <Pose>
1

>  <Score>
-5.038

$$$$
