/Users/jonathanwahrer/Desktop/Msc/3_Semester/Drug_Design_Praktikum/waehrer_HTS_screening/HTS_experiment/out/docking_results/vina_output/3sx0/0502_docked.pdbqt
 OpenBabel03192221513D

 27 30  0  0  1  0  0  0  0  0999 V2000
   14.3680   62.5020  -10.8810 Br  0  0  0  0  0  0  0  0  0  0  0  0
   13.6560   63.2340  -12.5160 C   0  0  0  0  0  0  0  0  0  0  0  0
   12.8570   62.4840  -13.3370 C   0  0  0  0  0  3  0  0  0  0  0  0
   12.3590   63.0300  -14.5010 C   0  0  0  0  0  0  0  0  0  0  0  0
   12.6920   64.3260  -14.7890 C   0  0  0  0  0  0  0  0  0  0  0  0
   13.5140   65.0970  -13.9430 C   0  0  0  0  0  3  0  0  0  0  0  0
   14.0000   64.5380  -12.7910 C   0  0  0  0  0  3  0  0  0  0  0  0
   12.1050   64.7450  -16.0170 N   0  0  0  0  0  0  0  0  0  0  0  0
   11.3680   63.6710  -16.5310 C   0  0  0  0  0  0  0  0  0  0  0  0
   10.7100   63.6890  -17.6160 O   0  0  0  0  0  0  0  0  0  0  0  0
   11.4900   62.5070  -15.5840 C   0  0  2  0  0  0  0  0  0  0  0  0
   10.1330   62.2120  -15.1380 C   0  0  0  0  0  0  0  0  0  0  0  0
    9.5400   61.0220  -15.4230 C   0  0  0  0  0  0  0  0  0  0  0  0
    8.2920   61.0650  -14.8690 N   0  0  0  0  0  0  0  0  0  0  0  0
    8.1030   62.2200  -14.2650 N   0  0  0  0  0  0  0  0  0  0  0  0
    9.2040   62.9550  -14.4040 C   0  0  0  0  0  0  0  0  0  0  0  0
    9.4900   64.3350  -13.9010 C   0  0  0  0  0  1  0  0  0  0  0  0
   10.1780   60.0130  -16.1530 O   0  0  0  0  0  0  0  0  0  0  0  0
   11.4710   60.2980  -16.5770 C   0  0  0  0  0  0  0  0  0  0  0  0
   12.0940   61.4220  -16.3350 C   0  0  0  0  0  0  0  0  0  0  0  0
   13.4640   61.5510  -16.8620 C   0  0  0  0  0  0  0  0  0  0  0  0
   14.5510   61.6750  -17.2710 N   0  0  0  0  0  0  0  0  0  0  0  0
   12.2410   66.0680  -16.6460 C   0  0  0  0  0  1  0  0  0  0  0  0
    7.2500   62.5560  -13.7480 H   0  0  0  0  0  0  0  0  0  0  0  0
   12.1860   59.2860  -17.3410 N   0  0  0  0  0  0  0  0  0  0  0  0
   12.9630   59.6520  -17.9260 H   0  0  0  0  0  0  0  0  0  0  0  0
   11.9540   58.2950  -17.3150 H   0  0  0  0  0  0  0  0  0  0  0  0
  2  1  1  0  0  0  0
  3  2  2  0  0  0  0
  4  3  1  0  0  0  0
  5  4  2  0  0  0  0
  5  6  1  0  0  0  0
  6  7  2  0  0  0  0
  7  2  1  0  0  0  0
  8  5  1  0  0  0  0
  9  8  1  0  0  0  0
 10  9  2  0  0  0  0
 11  9  1  6  0  0  0
 11 12  1  0  0  0  0
 11  4  1  0  0  0  0
 12 16  2  0  0  0  0
 13 12  1  0  0  0  0
 13 14  2  0  0  0  0
 14 15  1  0  0  0  0
 15 24  1  0  0  0  0
 16 15  1  0  0  0  0
 16 17  1  0  0  0  0
 18 13  1  0  0  0  0
 19 20  2  0  0  0  0
 19 18  1  0  0  0  0
 20 11  1  0  0  0  0
 21 20  1  0  0  0  0
 22 21  3  0  0  0  0
 23  8  1  0  0  0  0
 25 27  1  0  0  0  0
 25 19  1  0  0  0  0
 26 25  1  0  0  0  0
M  END
>  <Pose>
1

>  <Score>
-5.041

$$$$
