MODEL 1
REMARK VINA RESULT:    -5.041      0.000      0.000
REMARK INTER + INTRA:          -5.188
REMARK INTER:                  -5.188
REMARK INTRA:                   0.000
REMARK UNBOUND:                 0.000
REMARK  1 active torsions:
REMARK  status: ('A' for Active; 'I' for Inactive)
REMARK    1  A    between atoms: C_19  and  N_23 
ROOT
ATOM      1 Br   UNK d   1      14.368  62.502 -10.881  0.00  0.00    -0.051 Br
ATOM      2  C   UNK d   1      13.656  63.234 -12.516  0.00  0.00     0.011 A 
ATOM      3  C   UNK d   1      12.857  62.484 -13.337  0.00  0.00     0.030 A 
ATOM      4  C   UNK d   1      12.359  63.030 -14.501  0.00  0.00    -0.002 A 
ATOM      5  C   UNK d   1      12.692  64.326 -14.789  0.00  0.00     0.045 A 
ATOM      6  C   UNK d   1      13.514  65.097 -13.943  0.00  0.00     0.031 A 
ATOM      7  C   UNK d   1      14.000  64.538 -12.791  0.00  0.00     0.021 A 
ATOM      8  N   UNK d   1      12.105  64.745 -16.017  0.00  0.00    -0.320 N 
ATOM      9  C   UNK d   1      11.368  63.671 -16.531  0.00  0.00     0.247 A 
ATOM     10  O   UNK d   1      10.710  63.689 -17.616  0.00  0.00    -0.271 OA
ATOM     11  C   UNK d   1      11.490  62.507 -15.584  0.00  0.00     0.145 A 
ATOM     12  C   UNK d   1      10.133  62.212 -15.138  0.00  0.00     0.049 A 
ATOM     13  C   UNK d   1       9.540  61.022 -15.423  0.00  0.00     0.200 A 
ATOM     14  N   UNK d   1       8.292  61.065 -14.869  0.00  0.00    -0.148 NA
ATOM     15  N   UNK d   1       8.103  62.220 -14.265  0.00  0.00    -0.280 N 
ATOM     16  C   UNK d   1       9.204  62.955 -14.404  0.00  0.00     0.036 A 
ATOM     17  C   UNK d   1       9.490  64.335 -13.901  0.00  0.00     0.070 C 
ATOM     18  O   UNK d   1      10.178  60.013 -16.153  0.00  0.00    -0.272 OA
ATOM     19  C   UNK d   1      11.471  60.298 -16.577  0.00  0.00     0.162 A 
ATOM     20  C   UNK d   1      12.094  61.422 -16.335  0.00  0.00     0.100 A 
ATOM     21  C   UNK d   1      13.464  61.551 -16.862  0.00  0.00     0.101 C 
ATOM     22  N   UNK d   1      14.551  61.675 -17.271  0.00  0.00    -0.191 NA
ATOM     23  C   UNK d   1      12.241  66.068 -16.646  0.00  0.00     0.159 C 
ATOM     24  H   UNK d   1       7.250  62.556 -13.748  0.00  0.00     0.189 HD
ENDROOT
BRANCH  19  25
ATOM     25  N   UNK d   1      12.186  59.286 -17.341  0.00  0.00    -0.379 N 
ATOM     26  H   UNK d   1      12.963  59.652 -17.926  0.00  0.00     0.158 HD
ATOM     27  H   UNK d   1      11.954  58.295 -17.315  0.00  0.00     0.158 HD
ENDBRANCH  19  25
TORSDOF 1
ENDMDL
