MODEL 1
REMARK VINA RESULT:    -6.126      0.000      0.000
REMARK INTER + INTRA:          -6.305
REMARK INTER:                  -6.305
REMARK INTRA:                   0.000
REMARK UNBOUND:                 0.000
REMARK  1 active torsions:
REMARK  status: ('A' for Active; 'I' for Inactive)
REMARK    1  A    between atoms: C_15  and  N_19 
ROOT
ATOM      1 Br   UNK d   1      15.407  64.698 -10.915  0.00  0.00    -0.051 Br
ATOM      2  C   UNK d   1      14.243  64.317 -12.367  0.00  0.00     0.011 A 
ATOM      3  C   UNK d   1      13.962  65.224 -13.360  0.00  0.00     0.030 A 
ATOM      4  C   UNK d   1      13.095  64.867 -14.393  0.00  0.00    -0.002 A 
ATOM      5  C   UNK d   1      12.502  63.652 -14.477  0.00  0.00     0.045 A 
ATOM      6  C   UNK d   1      12.789  62.730 -13.467  0.00  0.00     0.031 A 
ATOM      7  C   UNK d   1      13.642  63.065 -12.439  0.00  0.00     0.021 A 
ATOM      8  N   UNK d   1      11.672  63.541 -15.617  0.00  0.00    -0.320 N 
ATOM      9  C   UNK d   1      11.736  64.765 -16.309  0.00  0.00     0.247 A 
ATOM     10  O   UNK d   1      11.128  65.048 -17.378  0.00  0.00    -0.271 OA
ATOM     11  C   UNK d   1      12.648  65.681 -15.569  0.00  0.00     0.146 A 
ATOM     12  C   UNK d   1      11.908  66.878 -15.095  0.00  0.00     0.071 A 
ATOM     13  C   UNK d   1      12.300  68.076 -15.340  0.00  0.00     0.060 A 
ATOM     14  N   UNK d   1      13.503  68.369 -16.103  0.00  0.00    -0.342 N 
ATOM     15  C   UNK d   1      14.217  67.239 -16.559  0.00  0.00     0.118 A 
ATOM     16  C   UNK d   1      13.837  66.014 -16.323  0.00  0.00     0.093 A 
ATOM     17  C   UNK d   1      14.675  64.948 -16.858  0.00  0.00     0.101 C 
ATOM     18  N   UNK d   1      15.328  64.087 -17.276  0.00  0.00    -0.191 NA
ATOM     19  C   UNK d   1      11.331  69.033 -14.722  0.00  0.00     0.106 A 
ATOM     20  O   UNK d   1      10.373  68.246 -14.117  0.00  0.00    -0.301 OA
ATOM     21  C   UNK d   1      10.643  66.923 -14.292  0.00  0.00     0.294 A 
ATOM     22  O   UNK d   1      10.008  65.900 -13.893  0.00  0.00    -0.259 OA
ATOM     23  C   UNK d   1      10.770  69.960 -15.784  0.00  0.00     0.053 C 
ATOM     24  C   UNK d   1      12.009  69.861 -13.646  0.00  0.00     0.053 C 
ATOM     25  C   UNK d   1      10.871  62.380 -16.037  0.00  0.00     0.159 C 
ATOM     26  H   UNK d   1      13.773  69.354 -16.270  0.00  0.00     0.167 HD
ENDROOT
BRANCH  15  27
ATOM     27  N   UNK d   1      15.429  67.472 -17.328  0.00  0.00    -0.384 N 
ATOM     28  H   UNK d   1      15.445  68.317 -17.935  0.00  0.00     0.157 HD
ATOM     29  H   UNK d   1      16.232  66.830 -17.276  0.00  0.00     0.157 HD
ENDBRANCH  15  27
TORSDOF 1
ENDMDL
