/Users/jonathanwahrer/Desktop/Msc/3_Semester/Drug_Design_Praktikum/waehrer_HTS_screening/HTS_experiment/out/docking_results/vina_output/3sx0/0513_docked.pdbqt
 OpenBabel03192221513D

 33 36  0  0  0  0  0  0  0  0999 V2000
   22.3450   63.4210  -11.1120 N   0  0  0  0  0  0  0  0  0  0  0  0
   20.9420   63.1940  -11.1270 C   0  0  0  0  0  0  0  0  0  0  0  0
   20.4000   63.0700  -12.2370 O   0  0  0  0  0  0  0  0  0  0  0  0
   22.7950   63.5380  -10.1790 H   0  0  0  0  0  0  0  0  0  0  0  0
   23.1220   63.4960  -12.2530 N   0  0  0  0  0  0  0  0  0  0  0  0
   22.6590   63.6290  -13.1930 H   0  0  0  0  0  0  0  0  0  0  0  0
   24.5210   63.4100  -12.2630 C   0  0  0  0  0  3  0  0  0  0  0  0
   25.2720   63.3570  -13.3410 C   0  0  0  0  0  0  0  0  0  0  0  0
   24.8700   63.3740  -14.7520 C   0  0  0  0  0  0  0  0  0  0  0  0
   26.7400   63.2650  -13.3690 C   0  0  0  0  0  0  0  0  0  0  0  0
   23.6410   63.4500  -15.3710 C   0  0  0  0  0  3  0  0  0  0  0  0
   25.9740   63.3010  -15.5690 C   0  0  0  0  0  0  0  0  0  0  0  0
   23.4850   63.4560  -16.7570 C   0  0  0  0  0  0  0  0  0  0  0  0
   21.7400   63.5700  -17.5380 Br  0  0  0  0  0  0  0  0  0  0  0  0
   24.6100   63.3820  -17.5370 C   0  0  0  0  0  3  0  0  0  0  0  0
   25.8540   63.3040  -16.9660 C   0  0  0  0  0  3  0  0  0  0  0  0
   27.1210   63.2340  -14.7330 N   0  0  0  0  0  0  0  0  0  0  0  0
   28.1120   63.1700  -15.0630 H   0  0  0  0  0  0  0  0  0  0  0  0
   27.4710   63.2230  -12.3500 O   0  0  0  0  0  0  0  0  0  0  0  0
   20.1230   63.0980   -9.8990 C   0  0  0  0  0  2  0  0  0  0  0  0
   19.0810   62.1890  -10.0250 N   0  0  0  0  0  0  0  0  0  0  0  0
   17.7970   62.3400  -10.3460 C   0  0  0  0  0  0  0  0  0  0  0  0
   17.1660   61.1060  -10.2670 C   0  0  0  0  0  0  0  0  0  0  0  0
   17.1290   63.4530  -10.7130 N   0  0  0  0  0  0  0  0  0  0  0  0
   18.1050   60.2160   -9.8930 N   0  0  0  0  0  0  0  0  0  0  0  0
   15.8230   60.9970  -10.5650 C   0  0  0  0  0  0  0  0  0  0  0  0
   19.2420   60.8560   -9.7490 C   0  0  0  0  0  3  0  0  0  0  0  0
   15.2780   59.8660  -10.4820 O   0  0  0  0  0  0  0  0  0  0  0  0
   15.1840   62.1010  -10.9210 N   0  0  0  0  0  0  0  0  0  0  0  0
   15.8050   63.2910  -10.9970 C   0  0  0  0  0  0  0  0  0  0  0  0
   13.7490   62.0410  -11.2470 C   0  0  0  0  0  1  0  0  0  0  0  0
   15.1630   64.3120  -11.3390 O   0  0  0  0  0  0  0  0  0  0  0  0
   17.7720   64.7290  -10.8390 C   0  0  0  0  0  1  0  0  0  0  0  0
  1  4  1  0  0  0  0
  2  1  1  0  0  0  0
  2 20  1  0  0  0  0
  3  2  2  0  0  0  0
  5  1  1  0  0  0  0
  6  5  1  0  0  0  0
  7  5  1  0  0  0  0
  8  7  2  0  0  0  0
  9  8  1  0  0  0  0
 10  8  1  0  0  0  0
 10 19  2  0  0  0  0
 11  9  1  0  0  0  0
 12  9  2  0  0  0  0
 12 17  1  0  0  0  0
 13 11  2  0  0  0  0
 14 13  1  0  0  0  0
 15 16  2  0  0  0  0
 15 13  1  0  0  0  0
 16 12  1  0  0  0  0
 17 10  1  0  0  0  0
 18 17  1  0  0  0  0
 21 20  1  0  0  0  0
 21 27  1  0  0  0  0
 22 23  2  0  0  0  0
 22 21  1  0  0  0  0
 23 25  1  0  0  0  0
 24 22  1  0  0  0  0
 25 27  2  0  0  0  0
 26 28  2  0  0  0  0
 26 23  1  0  0  0  0
 29 26  1  0  0  0  0
 30 29  1  0  0  0  0
 30 24  1  0  0  0  0
 31 29  1  0  0  0  0
 32 30  2  0  0  0  0
 33 24  1  0  0  0  0
M  END
>  <Pose>
1

>  <Score>
-9.251

$$$$
