MODEL 1
REMARK VINA RESULT:    -9.767      0.000      0.000
REMARK INTER + INTRA:         -12.610
REMARK INTER:                 -12.051
REMARK INTRA:                  -0.559
REMARK UNBOUND:                -0.559
REMARK  4 active torsions:
REMARK  status: ('A' for Active; 'I' for Inactive)
REMARK    1  A    between atoms: N_12  and  N_13 
REMARK       I    between atoms: N_13  and  C_14 
REMARK    2  A    between atoms: C_14  and  C_16 
REMARK    3  A    between atoms: C_16  and  N_17 
REMARK       I    between atoms: N_17  and  C_18 
REMARK    4  A    between atoms: C_18  and  C_20 
ROOT
ATOM      1  N   UNK d   1      20.206  63.186  -9.826  0.00  0.00    -0.245 N 
ATOM      2  C   UNK d   1      21.216  63.280 -10.801  0.00  0.00     0.255 C 
ATOM      3  O   UNK d   1      20.870  63.243 -12.035  0.00  0.00    -0.270 OA
ATOM      4  H   UNK d   1      20.476  63.202  -8.805  0.00  0.00     0.192 HD
ENDROOT
BRANCH   2   5
ATOM      5  C   UNK d   1      22.658  63.427 -10.581  0.00  0.00     0.227 C 
BRANCH   5   6
ATOM      6  N   UNK d   1      23.137  63.098  -9.268  0.00  0.00    -0.348 N 
ATOM      7  C   UNK d   1      22.990  63.995  -8.173  0.00  0.00     0.252 C 
ATOM      8  O   UNK d   1      22.405  65.115  -8.442  0.00  0.00    -0.268 OA
ATOM      9  H   UNK d   1      23.623  62.211  -9.067  0.00  0.00     0.163 HD
BRANCH   7  10
ATOM     10  C   UNK d   1      23.426  63.773  -6.828  0.00  0.00     0.034 A 
ATOM     11  C   UNK d   1      24.530  63.022  -6.454  0.00  0.00     0.056 A 
ATOM     12  C   UNK d   1      24.893  62.858  -5.161  0.00  0.00     0.106 A 
ATOM     13  C   UNK d   1      24.171  63.440  -4.138  0.00  0.00     0.105 A 
ATOM     14  O   UNK d   1      25.964  62.162  -4.486  0.00  0.00    -0.323 OA
ATOM     15  C   UNK d   1      23.078  64.182  -4.457  0.00  0.00     0.041 A 
ATOM     16  O   UNK d   1      24.781  63.107  -2.917  0.00  0.00    -0.323 OA
ATOM     17  C   UNK d   1      22.688  64.366  -5.792  0.00  0.00     0.020 A 
ATOM     18  C   UNK d   1      26.175  63.002  -3.296  0.00  0.00     0.352 C 
ENDBRANCH   7  10
ENDBRANCH   5   6
ENDBRANCH   2   5
BRANCH   1  19
ATOM     19  N   UNK d   1      18.912  63.076 -10.191  0.00  0.00    -0.166 NA
ATOM     20  C   UNK d   1      18.022  62.289 -10.279  0.00  0.00     0.157 A 
ATOM     21  C   UNK d   1      16.631  62.424 -10.730  0.00  0.00     0.028 A 
ATOM     22  C   UNK d   1      18.219  60.868  -9.866  0.00  0.00     0.277 A 
ATOM     23  C   UNK d   1      15.946  63.518 -11.211  0.00  0.00     0.035 A 
ATOM     24  C   UNK d   1      16.052  61.201 -10.604  0.00  0.00     0.048 A 
ATOM     25  C   UNK d   1      14.637  63.430 -11.591  0.00  0.00     0.011 A 
ATOM     26 Br   UNK d   1      13.680  64.926 -12.260  0.00  0.00    -0.051 Br
ATOM     27  C   UNK d   1      14.025  62.188 -11.470  0.00  0.00     0.021 A 
ATOM     28  C   UNK d   1      14.711  61.101 -10.990  0.00  0.00     0.032 A 
ATOM     29  N   UNK d   1      16.953  60.243 -10.092  0.00  0.00    -0.321 N 
ATOM     30  H   UNK d   1      16.768  59.229  -9.901  0.00  0.00     0.169 HD
ATOM     31  O   UNK d   1      19.279  60.411  -9.433  0.00  0.00    -0.266 OA
ENDBRANCH   1  19
TORSDOF 4
ENDMDL
