MODEL 1
REMARK VINA RESULT:    -4.436      0.000      0.000
REMARK INTER + INTRA:          -5.238
REMARK INTER:                  -4.955
REMARK INTRA:                  -0.284
REMARK UNBOUND:                -0.284
REMARK  2 active torsions:
REMARK  status: ('A' for Active; 'I' for Inactive)
REMARK    1  A    between atoms: N_18  and  C_21 
REMARK    2  A    between atoms: C_21  and  C_22 
ROOT
ATOM      1 Br   UNK d   1      14.374  61.299 -10.508  0.00  0.00    -0.051 Br
ATOM      2  C   UNK d   1      14.164  62.743 -11.736  0.00  0.00     0.011 A 
ATOM      3  C   UNK d   1      13.325  62.658 -12.841  0.00  0.00     0.031 A 
ATOM      4  C   UNK d   1      13.179  63.698 -13.718  0.00  0.00     0.019 A 
ATOM      5  C   UNK d   1      13.905  64.852 -13.462  0.00  0.00     0.044 A 
ATOM      6  C   UNK d   1      14.739  64.944 -12.367  0.00  0.00     0.031 A 
ATOM      7  C   UNK d   1      14.878  63.891 -11.493  0.00  0.00     0.021 A 
ATOM      8  N   UNK d   1      13.636  65.835 -14.464  0.00  0.00    -0.324 N 
ATOM      9  C   UNK d   1      12.714  65.298 -15.388  0.00  0.00     0.267 A 
ATOM     10  O   UNK d   1      12.276  65.909 -16.374  0.00  0.00    -0.270 OA
ATOM     11  C   UNK d   1      12.407  63.924 -14.938  0.00  0.00     0.281 A 
ATOM     12  N   UNK d   1      12.689  63.046 -16.033  0.00  0.00     0.118 N 
ATOM     13  C   UNK d   1      11.565  63.245 -16.946  0.00  0.00     0.239 C 
ATOM     14  C   UNK d   1      10.377  63.541 -16.091  0.00  0.00     0.128 C 
ATOM     15  C   UNK d   1      10.931  63.704 -14.718  0.00  0.00     0.147 C 
ATOM     16  C   UNK d   1      10.243  64.868 -14.169  0.00  0.00     0.235 C 
ATOM     17  O   UNK d   1      10.300  65.273 -12.986  0.00  0.00    -0.272 OA
ATOM     18  N   UNK d   1       9.489  65.485 -15.182  0.00  0.00    -0.285 N 
ATOM     19  C   UNK d   1       9.730  64.845 -16.445  0.00  0.00     0.233 C 
ATOM     20  O   UNK d   1       9.473  65.258 -17.603  0.00  0.00    -0.272 OA
ATOM     21  C   UNK d   1      11.343  61.897 -17.616  0.00  0.00     0.038 C 
ATOM     22  C   UNK d   1      12.412  60.976 -17.066  0.00  0.00     0.032 C 
ATOM     23  C   UNK d   1      12.665  61.637 -15.703  0.00  0.00     0.275 C 
ATOM     24  H   UNK d   1      14.072  66.804 -14.490  0.00  0.00     0.169 HD
ENDROOT
BRANCH  18  25
ATOM     25  C   UNK d   1       8.600  66.592 -15.015  0.00  0.00     0.166 C 
BRANCH  25  26
ATOM     26  C   UNK d   1       8.902  67.781 -15.852  0.00  0.00     0.140 C 
ATOM     27  O   UNK d   1       9.946  68.559 -15.367  0.00  0.00    -0.384 OA
ATOM     28  C   UNK d   1       9.889  69.707 -16.146  0.00  0.00     0.168 C 
ATOM     29  C   UNK d   1       8.450  70.019 -16.413  0.00  0.00     0.029 C 
ATOM     30  C   UNK d   1       7.752  68.693 -16.114  0.00  0.00     0.035 C 
ENDBRANCH  25  26
ENDBRANCH  18  25
TORSDOF 2
ENDMDL
