MODEL 1
REMARK VINA RESULT:    -4.503      0.000      0.000
REMARK INTER + INTRA:          -6.187
REMARK INTER:                  -5.424
REMARK INTRA:                  -0.763
REMARK UNBOUND:                -0.763
REMARK  4 active torsions:
REMARK  status: ('A' for Active; 'I' for Inactive)
REMARK    1  A    between atoms: C_19  and  N_26 
REMARK    2  A    between atoms: C_20  and  C_21 
REMARK    3  A    between atoms: C_21  and  O_23 
REMARK    4  A    between atoms: O_23  and  C_24 
ROOT
ATOM      1 Br   UNK d   1      14.710  63.976 -11.176  0.00  0.00    -0.051 Br
ATOM      2  C   UNK d   1      13.624  63.909 -12.742  0.00  0.00     0.011 A 
ATOM      3  C   UNK d   1      13.518  65.061 -13.482  0.00  0.00     0.030 A 
ATOM      4  C   UNK d   1      12.733  65.061 -14.640  0.00  0.00    -0.002 A 
ATOM      5  C   UNK d   1      12.092  63.923 -15.006  0.00  0.00     0.043 A 
ATOM      6  C   UNK d   1      12.187  62.731 -14.262  0.00  0.00     0.031 A 
ATOM      7  C   UNK d   1      12.965  62.761 -13.129  0.00  0.00     0.021 A 
ATOM      8  N   UNK d   1      11.349  64.126 -16.193  0.00  0.00    -0.325 N 
ATOM      9  C   UNK d   1      11.534  65.454 -16.584  0.00  0.00     0.245 A 
ATOM     10  O   UNK d   1      11.021  66.042 -17.613  0.00  0.00    -0.271 OA
ATOM     11  C   UNK d   1      12.447  66.112 -15.603  0.00  0.00     0.141 A 
ATOM     12  C   UNK d   1      13.557  66.618 -16.368  0.00  0.00     0.048 A 
ATOM     13  C   UNK d   1      13.765  67.938 -16.512  0.00  0.00     0.176 A 
ATOM     14  N   UNK d   1      14.890  68.083 -17.287  0.00  0.00    -0.256 N 
ATOM     15  N   UNK d   1      15.340  66.886 -17.597  0.00  0.00    -0.177 NA
ATOM     16  C   UNK d   1      14.571  65.933 -17.068  0.00  0.00     0.063 A 
ATOM     17  C   UNK d   1      14.720  64.453 -17.171  0.00  0.00     0.073 C 
ATOM     18  O   UNK d   1      12.935  68.920 -15.939  0.00  0.00    -0.275 OA
ATOM     19  C   UNK d   1      11.859  68.452 -15.196  0.00  0.00     0.158 A 
ATOM     20  C   UNK d   1      11.608  67.190 -15.024  0.00  0.00     0.095 A 
ATOM     21  H   UNK d   1      10.750  63.426 -16.718  0.00  0.00     0.169 HD
ATOM     22  H   UNK d   1      15.314  68.992 -17.580  0.00  0.00     0.191 HD
ENDROOT
BRANCH  20  23
ATOM     23  C   UNK d   1      10.424  66.794 -14.207  0.00  0.00     0.295 C 
ATOM     24  O   UNK d   1      10.600  66.582 -12.994  0.00  0.00    -0.259 OA
BRANCH  23  25
ATOM     25  O   UNK d   1       9.166  66.656 -14.727  0.00  0.00    -0.318 OA
BRANCH  25  26
ATOM     26  C   UNK d   1       8.381  65.492 -14.634  0.00  0.00     0.174 C 
ATOM     27  C   UNK d   1       7.832  65.201 -16.035  0.00  0.00     0.034 C 
ENDBRANCH  25  26
ENDBRANCH  23  25
ENDBRANCH  20  23
BRANCH  19  28
ATOM     28  N   UNK d   1      10.960  69.399 -14.576  0.00  0.00    -0.379 N 
ATOM     29  H   UNK d   1      10.589  70.158 -15.152  0.00  0.00     0.158 HD
ATOM     30  H   UNK d   1      10.720  69.288 -13.591  0.00  0.00     0.158 HD
ENDBRANCH  19  28
TORSDOF 4
ENDMDL
