MODEL 1
REMARK VINA RESULT:    -6.112      0.000      0.000
REMARK INTER + INTRA:          -6.291
REMARK INTER:                  -6.291
REMARK INTRA:                   0.000
REMARK UNBOUND:                 0.000
REMARK  1 active torsions:
REMARK  status: ('A' for Active; 'I' for Inactive)
REMARK    1  A    between atoms: C_15  and  N_19 
ROOT
ATOM      1 Br   UNK d   1      15.387  64.538 -10.883  0.00  0.00    -0.051 Br
ATOM      2  C   UNK d   1      14.228  64.188 -12.346  0.00  0.00     0.011 A 
ATOM      3  C   UNK d   1      13.973  65.141 -13.338  0.00  0.00     0.030 A 
ATOM      4  C   UNK d   1      13.136  64.880 -14.390  0.00  0.00    -0.002 A 
ATOM      5  C   UNK d   1      12.531  63.660 -14.476  0.00  0.00     0.043 A 
ATOM      6  C   UNK d   1      12.753  62.672 -13.507  0.00  0.00     0.031 A 
ATOM      7  C   UNK d   1      13.599  62.962 -12.463  0.00  0.00     0.021 A 
ATOM      8  N   UNK d   1      11.708  63.585 -15.627  0.00  0.00    -0.325 N 
ATOM      9  C   UNK d   1      11.804  64.819 -16.294  0.00  0.00     0.246 A 
ATOM     10  O   UNK d   1      11.230  65.171 -17.359  0.00  0.00    -0.271 OA
ATOM     11  C   UNK d   1      12.717  65.704 -15.538  0.00  0.00     0.146 A 
ATOM     12  C   UNK d   1      11.969  66.918 -15.077  0.00  0.00     0.071 A 
ATOM     13  C   UNK d   1      12.302  68.156 -15.331  0.00  0.00     0.060 A 
ATOM     14  N   UNK d   1      13.464  68.390 -16.105  0.00  0.00    -0.342 N 
ATOM     15  C   UNK d   1      14.237  67.302 -16.586  0.00  0.00     0.118 A 
ATOM     16  C   UNK d   1      13.905  66.060 -16.333  0.00  0.00     0.093 A 
ATOM     17  C   UNK d   1      14.758  64.994 -16.867  0.00  0.00     0.101 C 
ATOM     18  N   UNK d   1      15.416  64.140 -17.286  0.00  0.00    -0.191 NA
ATOM     19  C   UNK d   1      11.305  69.052 -14.697  0.00  0.00     0.106 A 
ATOM     20  O   UNK d   1      10.365  68.232 -14.053  0.00  0.00    -0.301 OA
ATOM     21  C   UNK d   1      10.739  66.920 -14.265  0.00  0.00     0.294 A 
ATOM     22  O   UNK d   1      10.114  65.896 -13.823  0.00  0.00    -0.259 OA
ATOM     23  C   UNK d   1      10.532  69.840 -15.757  0.00  0.00     0.053 C 
ATOM     24  C   UNK d   1      11.973  70.011 -13.722  0.00  0.00     0.053 C 
ATOM     25  H   UNK d   1      11.130  62.735 -15.918  0.00  0.00     0.169 HD
ATOM     26  H   UNK d   1      13.781  69.366 -16.341  0.00  0.00     0.167 HD
ENDROOT
BRANCH  15  27
ATOM     27  N   UNK d   1      15.426  67.568 -17.379  0.00  0.00    -0.384 N 
ATOM     28  H   UNK d   1      15.570  67.194 -18.331  0.00  0.00     0.157 HD
ATOM     29  H   UNK d   1      16.159  68.163 -16.959  0.00  0.00     0.157 HD
ENDBRANCH  15  27
TORSDOF 1
ENDMDL
