/Users/jonathanwahrer/Desktop/Msc/3_Semester/Drug_Design_Praktikum/waehrer_HTS_screening/HTS_experiment/out/docking_results/vina_output/3sx0/0566_docked.pdbqt
 OpenBabel03192221533D

 30 33  0  0  1  0  0  0  0  0999 V2000
    8.7390   70.0400  -16.1160 Br  0  0  0  0  0  0  0  0  0  0  0  0
   10.4840   69.2700  -16.1750 C   0  0  0  0  0  0  0  0  0  0  0  0
   10.6560   67.9130  -16.0700 C   0  0  0  0  0  3  0  0  0  0  0  0
   11.9380   67.3340  -16.1120 C   0  0  0  0  0  0  0  0  0  0  0  0
   13.0570   68.1040  -16.2590 C   0  0  0  0  0  0  0  0  0  0  0  0
   12.8810   69.4910  -16.3670 C   0  0  0  0  0  3  0  0  0  0  0  0
   11.6190   70.0360  -16.3230 C   0  0  0  0  0  3  0  0  0  0  0  0
   14.2280   67.3010  -16.2740 N   0  0  0  0  0  0  0  0  0  0  0  0
   13.8180   65.9560  -16.1280 C   0  0  0  0  0  0  0  0  0  0  0  0
   14.6530   64.9910  -16.1060 O   0  0  0  0  0  0  0  0  0  0  0  0
   12.3690   65.9220  -16.0200 C   0  0  2  0  0  0  0  0  0  0  0  0
   11.7320   65.0920  -17.0240 N   0  0  0  0  0  0  0  0  0  0  0  0
   11.6610   63.7620  -16.4470 C   0  0  1  0  0  3  0  0  0  0  0  0
   11.2670   64.0580  -15.0290 C   0  0  2  0  0  3  0  0  0  0  0  0
   11.9790   65.3220  -14.6860 C   0  0  1  0  0  3  0  0  0  0  0  0
   13.1390   64.9210  -13.8750 C   0  0  0  0  0  0  0  0  0  0  0  0
   14.1810   65.5950  -13.5840 O   0  0  0  0  0  0  0  0  0  0  0  0
   12.9570   63.5890  -13.4110 N   0  0  0  0  0  0  0  0  0  0  0  0
   11.8170   63.0750  -14.0700 C   0  0  0  0  0  0  0  0  0  0  0  0
   11.2990   61.9310  -13.8920 O   0  0  0  0  0  0  0  0  0  0  0  0
   15.2000   67.6910  -16.3780 H   0  0  0  0  0  0  0  0  0  0  0  0
   12.2250   65.1130  -17.9350 H   0  0  0  0  0  0  0  0  0  0  0  0
   10.6430   62.9560  -17.1910 C   0  0  1  0  0  3  0  0  0  0  0  0
   11.1830   61.5780  -17.4820 C   0  0  0  0  0  1  0  0  0  0  0  0
    9.5310   62.7960  -16.3550 O   0  0  0  0  0  0  0  0  0  0  0  0
    9.5490   61.9110  -15.9080 H   0  0  0  0  0  0  0  0  0  0  0  0
   13.7790   62.8840  -12.4480 C   0  0  0  0  0  2  0  0  0  0  0  0
   13.8980   63.6200  -11.1520 C   0  0  0  0  0  2  0  0  0  0  0  0
   15.3930   63.6880  -10.8170 C   0  0  0  0  0  2  0  0  0  0  0  0
   15.7110   64.9650  -10.0890 C   0  0  0  0  0  1  0  0  0  0  0  0
  2  1  1  0  0  0  0
  2  3  1  0  0  0  0
  4  3  2  0  0  0  0
  4 11  1  0  0  0  0
  5  4  1  0  0  0  0
  6  7  1  0  0  0  0
  6  5  2  0  0  0  0
  7  2  2  0  0  0  0
  8  5  1  0  0  0  0
  8  9  1  0  0  0  0
  9 10  2  0  0  0  0
 11  9  1  6  0  0  0
 11 15  1  0  0  0  0
 12 13  1  0  0  0  0
 12 11  1  0  0  0  0
 13 23  1  6  0  0  0
 13 14  1  0  0  0  0
 14 15  1  0  0  0  0
 14 19  1  1  0  0  0
 15 16  1  1  0  0  0
 16 17  2  0  0  0  0
 16 18  1  0  0  0  0
 18 27  1  0  0  0  0
 19 20  2  0  0  0  0
 19 18  1  0  0  0  0
 21  8  1  0  0  0  0
 22 12  1  0  0  0  0
 23 24  1  1  0  0  0
 23 25  1  0  0  0  0
 25 26  1  0  0  0  0
 27 28  1  0  0  0  0
 28 29  1  0  0  0  0
 29 30  1  0  0  0  0
M  END
>  <Pose>
1

>  <Score>
-5.281

$$$$
