MODEL 1
REMARK VINA RESULT:    -5.281      0.000      0.000
REMARK INTER + INTRA:          -7.193
REMARK INTER:                  -6.670
REMARK INTRA:                  -0.523
REMARK UNBOUND:                -0.523
REMARK  5 active torsions:
REMARK  status: ('A' for Active; 'I' for Inactive)
REMARK    1  A    between atoms: C_13  and  C_25 
REMARK    2  A    between atoms: N_18  and  C_21 
REMARK    3  A    between atoms: C_21  and  C_22 
REMARK    4  A    between atoms: C_22  and  C_23 
REMARK    5  A    between atoms: C_25  and  O_26 
ROOT
ATOM      1 Br   UNK d   1       8.739  70.040 -16.116  0.00  0.00    -0.051 Br
ATOM      2  C   UNK d   1      10.484  69.270 -16.175  0.00  0.00     0.011 A 
ATOM      3  C   UNK d   1      10.656  67.913 -16.070  0.00  0.00     0.031 A 
ATOM      4  C   UNK d   1      11.938  67.334 -16.112  0.00  0.00     0.019 A 
ATOM      5  C   UNK d   1      13.057  68.104 -16.259  0.00  0.00     0.044 A 
ATOM      6  C   UNK d   1      12.881  69.491 -16.367  0.00  0.00     0.031 A 
ATOM      7  C   UNK d   1      11.619  70.036 -16.323  0.00  0.00     0.021 A 
ATOM      8  N   UNK d   1      14.228  67.301 -16.274  0.00  0.00    -0.324 N 
ATOM      9  C   UNK d   1      13.818  65.956 -16.128  0.00  0.00     0.267 A 
ATOM     10  O   UNK d   1      14.653  64.991 -16.106  0.00  0.00    -0.270 OA
ATOM     11  C   UNK d   1      12.369  65.922 -16.020  0.00  0.00     0.279 A 
ATOM     12  N   UNK d   1      11.732  65.092 -17.024  0.00  0.00     0.116 N 
ATOM     13  C   UNK d   1      11.661  63.762 -16.447  0.00  0.00     0.264 C 
ATOM     14  C   UNK d   1      11.267  64.058 -15.029  0.00  0.00     0.130 C 
ATOM     15  C   UNK d   1      11.979  65.322 -14.686  0.00  0.00     0.147 C 
ATOM     16  C   UNK d   1      13.139  64.921 -13.875  0.00  0.00     0.234 C 
ATOM     17  O   UNK d   1      14.181  65.595 -13.584  0.00  0.00    -0.272 OA
ATOM     18  N   UNK d   1      12.957  63.589 -13.411  0.00  0.00    -0.288 N 
ATOM     19  C   UNK d   1      11.817  63.075 -14.070  0.00  0.00     0.233 C 
ATOM     20  O   UNK d   1      11.299  61.931 -13.892  0.00  0.00    -0.272 OA
ATOM     21  H   UNK d   1      15.200  67.691 -16.378  0.00  0.00     0.169 HD
ATOM     22  H   UNK d   1      12.225  65.113 -17.935  0.00  0.00     0.318 HD
ENDROOT
BRANCH  13  23
ATOM     23  C   UNK d   1      10.643  62.956 -17.191  0.00  0.00     0.148 C 
ATOM     24  C   UNK d   1      11.183  61.578 -17.482  0.00  0.00     0.041 C 
BRANCH  23  25
ATOM     25  O   UNK d   1       9.531  62.796 -16.355  0.00  0.00    -0.394 OA
ATOM     26  H   UNK d   1       9.549  61.911 -15.908  0.00  0.00     0.210 HD
ENDBRANCH  23  25
ENDBRANCH  13  23
BRANCH  18  27
ATOM     27  C   UNK d   1      13.779  62.884 -12.448  0.00  0.00     0.135 C 
BRANCH  27  28
ATOM     28  C   UNK d   1      13.898  63.620 -11.152  0.00  0.00     0.020 C 
BRANCH  28  29
ATOM     29  C   UNK d   1      15.393  63.688 -10.817  0.00  0.00    -0.003 C 
ATOM     30  C   UNK d   1      15.711  64.965 -10.089  0.00  0.00     0.005 C 
ENDBRANCH  28  29
ENDBRANCH  27  28
ENDBRANCH  18  27
TORSDOF 5
ENDMDL
