MODEL 1
REMARK VINA RESULT:    -2.162      0.000      0.000
REMARK INTER + INTRA:          -3.623
REMARK INTER:                  -2.731
REMARK INTRA:                  -0.892
REMARK UNBOUND:                -0.892
REMARK  5 active torsions:
REMARK  status: ('A' for Active; 'I' for Inactive)
REMARK    1  A    between atoms: C_13  and  C_29 
REMARK    2  A    between atoms: N_18  and  C_21 
REMARK    3  A    between atoms: C_21  and  C_22 
REMARK    4  A    between atoms: C_22  and  C_23 
REMARK    5  A    between atoms: C_29  and  O_30 
ROOT
ATOM      1 Br   UNK d   1      21.494  64.833  -6.598  0.00  0.00    -0.051 Br
ATOM      2  C   UNK d   1      21.584  64.227  -8.406  0.00  0.00     0.011 A 
ATOM      3  C   UNK d   1      20.595  63.461  -8.982  0.00  0.00     0.031 A 
ATOM      4  C   UNK d   1      20.669  63.013 -10.309  0.00  0.00     0.019 A 
ATOM      5  C   UNK d   1      21.780  63.370 -11.033  0.00  0.00     0.044 A 
ATOM      6  C   UNK d   1      22.780  64.143 -10.460  0.00  0.00     0.031 A 
ATOM      7  C   UNK d   1      22.697  64.576  -9.156  0.00  0.00     0.021 A 
ATOM      8  N   UNK d   1      21.724  62.838 -12.343  0.00  0.00    -0.324 N 
ATOM      9  C   UNK d   1      20.522  62.109 -12.452  0.00  0.00     0.267 A 
ATOM     10  O   UNK d   1      20.185  61.509 -13.512  0.00  0.00    -0.270 OA
ATOM     11  C   UNK d   1      19.807  62.195 -11.162  0.00  0.00     0.279 A 
ATOM     12  N   UNK d   1      19.621  60.857 -10.590  0.00  0.00     0.116 N 
ATOM     13  C   UNK d   1      18.366  60.912  -9.875  0.00  0.00     0.264 C 
ATOM     14  C   UNK d   1      17.532  61.966 -10.488  0.00  0.00     0.130 C 
ATOM     15  C   UNK d   1      18.447  62.719 -11.436  0.00  0.00     0.147 C 
ATOM     16  C   UNK d   1      18.197  64.133 -11.181  0.00  0.00     0.234 C 
ATOM     17  O   UNK d   1      18.834  65.103 -11.662  0.00  0.00    -0.272 OA
ATOM     18  N   UNK d   1      17.084  64.285 -10.274  0.00  0.00    -0.287 N 
ATOM     19  C   UNK d   1      17.037  63.021  -9.580  0.00  0.00     0.233 C 
ATOM     20  O   UNK d   1      16.641  62.867  -8.415  0.00  0.00    -0.272 OA
ATOM     21  H   UNK d   1      22.453  62.966 -13.098  0.00  0.00     0.169 HD
ATOM     22  H   UNK d   1      20.411  60.600  -9.955  0.00  0.00     0.318 HD
ENDROOT
BRANCH  13  23
ATOM     23  C   UNK d   1      17.714  59.549  -9.858  0.00  0.00     0.148 C 
ATOM     24  C   UNK d   1      16.285  59.590 -10.341  0.00  0.00     0.041 C 
BRANCH  23  25
ATOM     25  O   UNK d   1      17.833  58.986  -8.602  0.00  0.00    -0.394 OA
ATOM     26  H   UNK d   1      16.996  59.009  -8.100  0.00  0.00     0.210 HD
ENDBRANCH  23  25
ENDBRANCH  13  23
BRANCH  18  27
ATOM     27  C   UNK d   1      16.201  65.394 -10.102  0.00  0.00     0.139 C 
BRANCH  27  28
ATOM     28  C   UNK d   1      14.737  65.068 -10.040  0.00  0.00     0.059 C 
BRANCH  28  29
ATOM     29  C   UNK d   1      14.234  64.250 -11.156  0.00  0.00    -0.057 A 
ATOM     30  C   UNK d   1      14.104  62.876 -10.990  0.00  0.00     0.007 A 
ATOM     31  C   UNK d   1      13.618  62.116 -12.000  0.00  0.00     0.001 A 
ATOM     32  C   UNK d   1      13.239  62.642 -13.201  0.00  0.00     0.000 A 
ATOM     33  C   UNK d   1      13.371  64.014 -13.356  0.00  0.00     0.001 A 
ATOM     34  C   UNK d   1      13.860  64.801 -12.354  0.00  0.00     0.007 A 
ENDBRANCH  28  29
ENDBRANCH  27  28
ENDBRANCH  18  27
TORSDOF 5
ENDMDL
