MODEL 1
REMARK VINA RESULT:    -5.681      0.000      0.000
REMARK INTER + INTRA:          -7.997
REMARK INTER:                  -7.341
REMARK INTRA:                  -0.656
REMARK UNBOUND:                -0.656
REMARK  5 active torsions:
REMARK  status: ('A' for Active; 'I' for Inactive)
REMARK    1  A    between atoms: C_13  and  C_25 
REMARK    2  A    between atoms: N_18  and  C_21 
REMARK    3  A    between atoms: C_21  and  C_22 
REMARK    4  A    between atoms: C_22  and  O_23 
REMARK    5  A    between atoms: C_25  and  C_26 
REMARK       I    between atoms: C_26  and  N_28 
ROOT
ATOM      1 Br   UNK d   1      15.630  65.112 -10.090  0.00  0.00    -0.051 Br
ATOM      2  C   UNK d   1      14.624  64.054 -11.318  0.00  0.00     0.011 A 
ATOM      3  C   UNK d   1      13.937  64.594 -12.382  0.00  0.00     0.031 A 
ATOM      4  C   UNK d   1      13.204  63.815 -13.276  0.00  0.00     0.019 A 
ATOM      5  C   UNK d   1      13.158  62.455 -13.097  0.00  0.00     0.044 A 
ATOM      6  C   UNK d   1      13.838  61.883 -12.034  0.00  0.00     0.031 A 
ATOM      7  C   UNK d   1      14.567  62.688 -11.152  0.00  0.00     0.021 A 
ATOM      8  N   UNK d   1      12.362  61.851 -14.121  0.00  0.00    -0.324 N 
ATOM      9  C   UNK d   1      11.890  62.877 -14.979  0.00  0.00     0.267 A 
ATOM     10  O   UNK d   1      11.176  62.660 -15.976  0.00  0.00    -0.270 OA
ATOM     11  C   UNK d   1      12.386  64.149 -14.478  0.00  0.00     0.279 A 
ATOM     12  N   UNK d   1      13.226  64.728 -15.526  0.00  0.00     0.114 N 
ATOM     13  C   UNK d   1      12.964  66.137 -15.497  0.00  0.00     0.245 C 
ATOM     14  C   UNK d   1      11.514  66.224 -15.191  0.00  0.00     0.128 C 
ATOM     15  C   UNK d   1      11.335  65.161 -14.133  0.00  0.00     0.147 C 
ATOM     16  C   UNK d   1       9.955  64.720 -14.282  0.00  0.00     0.235 C 
ATOM     17  O   UNK d   1       9.292  64.086 -13.433  0.00  0.00    -0.272 OA
ATOM     18  N   UNK d   1       9.500  65.139 -15.563  0.00  0.00    -0.286 N 
ATOM     19  C   UNK d   1      10.612  65.742 -16.267  0.00  0.00     0.233 C 
ATOM     20  O   UNK d   1      10.677  65.784 -17.506  0.00  0.00    -0.272 OA
ATOM     21  H   UNK d   1      12.176  60.812 -14.198  0.00  0.00     0.169 HD
ATOM     22  H   UNK d   1      12.935  64.367 -16.466  0.00  0.00     0.318 HD
ENDROOT
BRANCH  13  23
ATOM     23  C   UNK d   1      13.405  66.856 -16.725  0.00  0.00     0.139 C 
BRANCH  23  24
ATOM     24  C   UNK d   1      14.819  66.568 -16.991  0.00  0.00     0.217 C 
ATOM     25  O   UNK d   1      15.194  65.371 -17.147  0.00  0.00    -0.274 OA
ATOM     26  N   UNK d   1      15.777  67.620 -17.079  0.00  0.00    -0.370 N 
ATOM     27  H   UNK d   1      16.615  67.518 -17.686  0.00  0.00     0.159 HD
ATOM     28  H   UNK d   1      15.631  68.492 -16.529  0.00  0.00     0.159 HD
ENDBRANCH  23  24
ENDBRANCH  13  23
BRANCH  18  29
ATOM     29  C   UNK d   1       8.157  64.977 -16.038  0.00  0.00     0.161 C 
BRANCH  29  30
ATOM     30  C   UNK d   1       7.904  63.737 -16.830  0.00  0.00     0.187 C 
BRANCH  30  31
ATOM     31  O   UNK d   1       7.784  62.601 -16.047  0.00  0.00    -0.394 OA
ATOM     32  C   UNK d   1       7.812  61.441 -16.817  0.00  0.00     0.201 C 
ENDBRANCH  30  31
ENDBRANCH  29  30
ENDBRANCH  18  29
TORSDOF 5
ENDMDL
