/Users/jonathanwahrer/Desktop/Msc/3_Semester/Drug_Design_Praktikum/waehrer_HTS_screening/HTS_experiment/out/docking_results/vina_output/3sx0/0579_docked.pdbqt
 OpenBabel03192221533D

 32 35  0  0  1  0  0  0  0  0999 V2000
   15.6300   65.1120  -10.0900 Br  0  0  0  0  0  0  0  0  0  0  0  0
   14.6240   64.0540  -11.3180 C   0  0  0  0  0  0  0  0  0  0  0  0
   13.9370   64.5940  -12.3820 C   0  0  0  0  0  3  0  0  0  0  0  0
   13.2040   63.8150  -13.2760 C   0  0  0  0  0  0  0  0  0  0  0  0
   13.1580   62.4550  -13.0970 C   0  0  0  0  0  0  0  0  0  0  0  0
   13.8380   61.8830  -12.0340 C   0  0  0  0  0  3  0  0  0  0  0  0
   14.5670   62.6880  -11.1520 C   0  0  0  0  0  3  0  0  0  0  0  0
   12.3620   61.8510  -14.1210 N   0  0  0  0  0  0  0  0  0  0  0  0
   11.8900   62.8770  -14.9790 C   0  0  0  0  0  0  0  0  0  0  0  0
   11.1760   62.6600  -15.9760 O   0  0  0  0  0  0  0  0  0  0  0  0
   12.3860   64.1490  -14.4780 C   0  0  2  0  0  0  0  0  0  0  0  0
   13.2260   64.7280  -15.5260 N   0  0  0  0  0  0  0  0  0  0  0  0
   12.9640   66.1370  -15.4970 C   0  0  2  0  0  3  0  0  0  0  0  0
   11.5140   66.2240  -15.1910 C   0  0  2  0  0  3  0  0  0  0  0  0
   11.3350   65.1610  -14.1330 C   0  0  1  0  0  3  0  0  0  0  0  0
    9.9550   64.7200  -14.2820 C   0  0  0  0  0  0  0  0  0  0  0  0
    9.2920   64.0860  -13.4330 O   0  0  0  0  0  0  0  0  0  0  0  0
    9.5000   65.1390  -15.5630 N   0  0  0  0  0  0  0  0  0  0  0  0
   10.6120   65.7420  -16.2670 C   0  0  0  0  0  0  0  0  0  0  0  0
   10.6770   65.7840  -17.5060 O   0  0  0  0  0  0  0  0  0  0  0  0
   12.1760   60.8120  -14.1980 H   0  0  0  0  0  0  0  0  0  0  0  0
   12.9350   64.3670  -16.4660 H   0  0  0  0  0  0  0  0  0  0  0  0
   13.4050   66.8560  -16.7250 C   0  0  0  0  0  2  0  0  0  0  0  0
   14.8190   66.5680  -16.9910 C   0  0  0  0  0  0  0  0  0  0  0  0
   15.1940   65.3710  -17.1470 O   0  0  0  0  0  0  0  0  0  0  0  0
   15.7770   67.6200  -17.0790 N   0  0  0  0  0  0  0  0  0  0  0  0
   16.6150   67.5180  -17.6860 H   0  0  0  0  0  0  0  0  0  0  0  0
   15.6310   68.4920  -16.5290 H   0  0  0  0  0  0  0  0  0  0  0  0
    8.1570   64.9770  -16.0380 C   0  0  0  0  0  2  0  0  0  0  0  0
    7.9040   63.7370  -16.8300 C   0  0  0  0  0  2  0  0  0  0  0  0
    7.7840   62.6010  -16.0470 O   0  0  0  0  0  0  0  0  0  0  0  0
    7.8120   61.4410  -16.8170 C   0  0  0  0  0  1  0  0  0  0  0  0
  2  7  1  0  0  0  0
  2  1  1  0  0  0  0
  3  2  2  0  0  0  0
  4  5  2  0  0  0  0
  4  3  1  0  0  0  0
  5  6  1  0  0  0  0
  6  7  2  0  0  0  0
  8  5  1  0  0  0  0
  9  8  1  0  0  0  0
 10  9  2  0  0  0  0
 11  9  1  6  0  0  0
 11 15  1  0  0  0  0
 11  4  1  0  0  0  0
 12 13  1  0  0  0  0
 12 11  1  0  0  0  0
 13 23  1  6  0  0  0
 13 14  1  0  0  0  0
 14 19  1  6  0  0  0
 14 15  1  0  0  0  0
 15 16  1  6  0  0  0
 16 17  2  0  0  0  0
 18 16  1  0  0  0  0
 19 18  1  0  0  0  0
 20 19  2  0  0  0  0
 21  8  1  0  0  0  0
 22 12  1  0  0  0  0
 24 23  1  0  0  0  0
 25 24  2  0  0  0  0
 26 24  1  0  0  0  0
 26 28  1  0  0  0  0
 27 26  1  0  0  0  0
 29 18  1  0  0  0  0
 30 31  1  0  0  0  0
 30 29  1  0  0  0  0
 32 31  1  0  0  0  0
M  END
>  <Pose>
1

>  <Score>
-5.681

$$$$
