MODEL 1
REMARK VINA RESULT:    -8.174      0.000      0.000
REMARK INTER + INTRA:          -8.174
REMARK INTER:                  -8.174
REMARK INTRA:                   0.000
REMARK UNBOUND:                 0.000
REMARK  0 active torsions:
REMARK  status: ('A' for Active; 'I' for Inactive)
ROOT
ATOM      1 Br   UNK d   1      15.272  63.907 -10.720  0.00  0.00    -0.051 Br
ATOM      2  C   UNK d   1      17.166  63.717 -10.805  0.00  0.00     0.012 A 
ATOM      3  C   UNK d   1      17.834  63.371  -9.666  0.00  0.00     0.038 A 
ATOM      4  C   UNK d   1      19.211  63.226  -9.699  0.00  0.00     0.062 A 
ATOM      5  C   UNK d   1      19.910  63.432 -10.882  0.00  0.00     0.078 A 
ATOM      6  C   UNK d   1      19.249  63.782 -12.042  0.00  0.00     0.034 A 
ATOM      7  C   UNK d   1      17.880  63.915 -11.962  0.00  0.00     0.021 A 
ATOM      8  N   UNK d   1      21.310  63.312 -11.035  0.00  0.00    -0.195 N 
ATOM      9  N   UNK d   1      21.856  63.082 -12.235  0.00  0.00    -0.039 NA
ATOM     10  N   UNK d   1      23.145  63.027 -12.037  0.00  0.00    -0.023 NA
ATOM     11  N   UNK d   1      23.425  63.215 -10.758  0.00  0.00    -0.111 NA
ATOM     12  C   UNK d   1      22.243  63.400 -10.103  0.00  0.00     0.182 A 
ATOM     13  C   UNK d   1      22.191  63.643  -8.619  0.00  0.00     0.102 C 
ATOM     14  N   UNK d   1      21.101  62.886  -8.009  0.00  0.00    -0.340 N 
ATOM     15  C   UNK d   1      19.727  62.852  -8.376  0.00  0.00     0.255 C 
ATOM     16  O   UNK d   1      18.890  62.476  -7.509  0.00  0.00    -0.268 OA
ATOM     17  C   UNK d   1      21.840  65.096  -8.448  0.00  0.00     0.076 C 
ATOM     18  C   UNK d   1      22.242  65.555  -7.085  0.00  0.00     0.056 C 
ATOM     19  O   UNK d   1      23.604  65.443  -7.003  0.00  0.00    -0.381 OA
ATOM     20  C   UNK d   1      24.096  64.166  -7.044  0.00  0.00     0.171 C 
ATOM     21  C   UNK d   1      23.485  63.244  -8.009  0.00  0.00     0.066 C 
ATOM     22  C   UNK d   1      21.910  67.046  -6.934  0.00  0.00     0.045 C 
ATOM     23  C   UNK d   1      21.512  64.848  -5.974  0.00  0.00     0.045 C 
ATOM     24  H   UNK d   1      21.348  62.271  -7.176  0.00  0.00     0.164 HD
ENDROOT
TORSDOF 0
ENDMDL
