MODEL 1
REMARK VINA RESULT:    -4.805      0.000      0.000
REMARK INTER + INTRA:          -4.805
REMARK INTER:                  -4.805
REMARK INTRA:                   0.000
REMARK UNBOUND:                 0.000
REMARK  0 active torsions:
REMARK  status: ('A' for Active; 'I' for Inactive)
ROOT
ATOM      1 Br   UNK d   1      24.384  64.666  -6.769  0.00  0.00    -0.051 Br
ATOM      2  C   UNK d   1      23.103  64.137  -8.098  0.00  0.00     0.012 A 
ATOM      3  C   UNK d   1      21.821  63.789  -7.732  0.00  0.00     0.038 A 
ATOM      4  C   UNK d   1      20.904  63.410  -8.691  0.00  0.00     0.061 A 
ATOM      5  C   UNK d   1      21.209  63.358 -10.038  0.00  0.00     0.072 A 
ATOM      6  C   UNK d   1      22.509  63.711 -10.390  0.00  0.00     0.034 A 
ATOM      7  C   UNK d   1      23.430  64.093  -9.437  0.00  0.00     0.021 A 
ATOM      8  N   UNK d   1      20.401  62.996 -11.134  0.00  0.00    -0.218 N 
ATOM      9  N   UNK d   1      20.880  62.737 -12.340  0.00  0.00     0.032 NA
ATOM     10  N   UNK d   1      19.857  62.435 -13.123  0.00  0.00    -0.052 NA
ATOM     11  N   UNK d   1      18.754  62.504 -12.418  0.00  0.00    -0.116 NA
ATOM     12  C   UNK d   1      19.059  62.859 -11.145  0.00  0.00     0.176 A 
ATOM     13  C   UNK d   1      18.006  63.011 -10.139  0.00  0.00     0.100 C 
ATOM     14  N   UNK d   1      18.374  62.771  -8.787  0.00  0.00    -0.340 N 
ATOM     15  C   UNK d   1      19.594  63.074  -8.130  0.00  0.00     0.255 C 
ATOM     16  O   UNK d   1      19.617  63.069  -6.870  0.00  0.00    -0.268 OA
ATOM     17  C   UNK d   1      17.391  64.419 -10.177  0.00  0.00     0.069 C 
ATOM     18  C   UNK d   1      15.929  64.318  -9.821  0.00  0.00     0.275 C 
ATOM     19  N   UNK d   1      15.232  63.826 -10.987  0.00  0.00     0.084 N 
ATOM     20  C   UNK d   1      15.929  62.677 -11.502  0.00  0.00     0.275 C 
ATOM     21  C   UNK d   1      16.872  62.058 -10.501  0.00  0.00     0.069 C 
ATOM     22  C   UNK d   1      15.183  64.912 -11.965  0.00  0.00     0.309 C 
ATOM     23  H   UNK d   1      17.646  62.311  -8.202  0.00  0.00     0.164 HD
ENDROOT
TORSDOF 0
ENDMDL
