MODEL 1
REMARK VINA RESULT:    -4.527      0.000      0.000
REMARK INTER + INTRA:          -4.659
REMARK INTER:                  -4.659
REMARK INTRA:                   0.000
REMARK UNBOUND:                 0.000
REMARK  1 active torsions:
REMARK  status: ('A' for Active; 'I' for Inactive)
REMARK    1  A    between atoms: C_9  and  N_23 
ROOT
ATOM      1 Br   UNK d   1      14.300  62.413 -11.241  0.00  0.00    -0.051 Br
ATOM      2  C   UNK d   1      13.682  63.600 -12.588  0.00  0.00     0.011 A 
ATOM      3  C   UNK d   1      12.584  63.250 -13.325  0.00  0.00     0.031 A 
ATOM      4  C   UNK d   1      12.130  64.125 -14.318  0.00  0.00     0.005 A 
ATOM      5  C   UNK d   1      12.792  65.291 -14.517  0.00  0.00     0.086 A 
ATOM      6  C   UNK d   1      13.923  65.648 -13.754  0.00  0.00     0.039 A 
ATOM      7  C   UNK d   1      14.367  64.786 -12.781  0.00  0.00     0.022 A 
ATOM      8  O   UNK d   1      12.382  66.190 -15.485  0.00  0.00    -0.292 OA
ATOM      9  C   UNK d   1      11.280  65.876 -16.251  0.00  0.00     0.160 A 
ATOM     10  C   UNK d   1      10.590  64.769 -16.116  0.00  0.00     0.100 A 
ATOM     11  C   UNK d   1      10.945  63.763 -15.124  0.00  0.00     0.145 A 
ATOM     12  C   UNK d   1      11.078  62.405 -15.703  0.00  0.00     0.041 A 
ATOM     13  C   UNK d   1      10.123  61.600 -15.148  0.00  0.00     0.160 A 
ATOM     14  N   UNK d   1      10.248  60.350 -15.684  0.00  0.00    -0.156 NA
ATOM     15  N   UNK d   1      11.254  60.409 -16.538  0.00  0.00    -0.280 N 
ATOM     16  C   UNK d   1      11.788  61.636 -16.583  0.00  0.00     0.036 A 
ATOM     17  C   UNK d   1      12.940  62.022 -17.452  0.00  0.00     0.070 C 
ATOM     18  N   UNK d   1       9.333  62.312 -14.220  0.00  0.00    -0.308 N 
ATOM     19  C   UNK d   1       9.811  63.632 -14.183  0.00  0.00     0.247 A 
ATOM     20  O   UNK d   1       9.373  64.580 -13.479  0.00  0.00    -0.271 OA
ATOM     21  C   UNK d   1       9.445  64.512 -16.957  0.00  0.00     0.101 C 
ATOM     22  N   UNK d   1       8.515  64.309 -17.616  0.00  0.00    -0.191 NA
ATOM     23  H   UNK d   1      11.557  59.563 -17.091  0.00  0.00     0.189 HD
ATOM     24  H   UNK d   1       8.520  61.896 -13.655  0.00  0.00     0.170 HD
ENDROOT
BRANCH   9  25
ATOM     25  N   UNK d   1      10.867  66.819 -17.253  0.00  0.00    -0.379 N 
ATOM     26  H   UNK d   1      11.065  66.622 -18.258  0.00  0.00     0.158 HD
ATOM     27  H   UNK d   1      10.369  67.707 -17.015  0.00  0.00     0.158 HD
ENDBRANCH   9  25
TORSDOF 1
ENDMDL
