/Users/jonathanwahrer/Desktop/Msc/3_Semester/Drug_Design_Praktikum/waehrer_HTS_screening/HTS_experiment/out/docking_results/vina_output/3sx0/0592_docked.pdbqt
 OpenBabel03192221533D

 27 30  0  0  1  0  0  0  0  0999 V2000
   14.3000   62.4130  -11.2410 Br  0  0  0  0  0  0  0  0  0  0  0  0
   13.6820   63.6000  -12.5880 C   0  0  0  0  0  0  0  0  0  0  0  0
   12.5840   63.2500  -13.3250 C   0  0  0  0  0  3  0  0  0  0  0  0
   12.1300   64.1250  -14.3180 C   0  0  0  0  0  0  0  0  0  0  0  0
   12.7920   65.2910  -14.5170 C   0  0  0  0  0  0  0  0  0  0  0  0
   13.9230   65.6480  -13.7540 C   0  0  0  0  0  3  0  0  0  0  0  0
   14.3670   64.7860  -12.7810 C   0  0  0  0  0  3  0  0  0  0  0  0
   12.3820   66.1900  -15.4850 O   0  0  0  0  0  0  0  0  0  0  0  0
   11.2800   65.8760  -16.2510 C   0  0  0  0  0  0  0  0  0  0  0  0
   10.5900   64.7690  -16.1160 C   0  0  0  0  0  0  0  0  0  0  0  0
   10.9450   63.7630  -15.1240 C   0  0  1  0  0  0  0  0  0  0  0  0
   11.0780   62.4050  -15.7030 C   0  0  0  0  0  0  0  0  0  0  0  0
   10.1230   61.6000  -15.1480 C   0  0  0  0  0  0  0  0  0  0  0  0
   10.2480   60.3500  -15.6840 N   0  0  0  0  0  0  0  0  0  0  0  0
   11.2540   60.4090  -16.5380 N   0  0  0  0  0  0  0  0  0  0  0  0
   11.7880   61.6360  -16.5830 C   0  0  0  0  0  0  0  0  0  0  0  0
   12.9400   62.0220  -17.4520 C   0  0  0  0  0  1  0  0  0  0  0  0
    9.3330   62.3120  -14.2200 N   0  0  0  0  0  0  0  0  0  0  0  0
    9.8110   63.6320  -14.1830 C   0  0  0  0  0  0  0  0  0  0  0  0
    9.3730   64.5800  -13.4790 O   0  0  0  0  0  0  0  0  0  0  0  0
    9.4450   64.5120  -16.9570 C   0  0  0  0  0  0  0  0  0  0  0  0
    8.5150   64.3090  -17.6160 N   0  0  0  0  0  0  0  0  0  0  0  0
   11.5570   59.5630  -17.0910 H   0  0  0  0  0  0  0  0  0  0  0  0
    8.5200   61.8960  -13.6550 H   0  0  0  0  0  0  0  0  0  0  0  0
   10.8670   66.8190  -17.2530 N   0  0  0  0  0  0  0  0  0  0  0  0
   11.0650   66.6220  -18.2580 H   0  0  0  0  0  0  0  0  0  0  0  0
   10.3690   67.7070  -17.0150 H   0  0  0  0  0  0  0  0  0  0  0  0
  2  1  1  0  0  0  0
  3  2  2  0  0  0  0
  4  3  1  0  0  0  0
  5  4  2  0  0  0  0
  5  6  1  0  0  0  0
  6  7  2  0  0  0  0
  7  2  1  0  0  0  0
  8  5  1  0  0  0  0
  9 10  2  0  0  0  0
  9  8  1  0  0  0  0
 11 10  1  6  0  0  0
 11  4  1  0  0  0  0
 11 19  1  0  0  0  0
 12 13  1  0  0  0  0
 12 11  1  0  0  0  0
 13 18  1  0  0  0  0
 14 13  2  0  0  0  0
 15 14  1  0  0  0  0
 16 15  1  0  0  0  0
 16 12  2  0  0  0  0
 17 16  1  0  0  0  0
 18 19  1  0  0  0  0
 18 24  1  0  0  0  0
 19 20  2  0  0  0  0
 21 10  1  0  0  0  0
 22 21  3  0  0  0  0
 23 15  1  0  0  0  0
 25 27  1  0  0  0  0
 25  9  1  0  0  0  0
 26 25  1  0  0  0  0
M  END
>  <Pose>
1

>  <Score>
-4.527

$$$$
