MODEL 1
REMARK VINA RESULT:    -4.558      0.000      0.000
REMARK INTER + INTRA:          -6.091
REMARK INTER:                  -5.890
REMARK INTRA:                  -0.201
REMARK UNBOUND:                -0.201
REMARK  5 active torsions:
REMARK  status: ('A' for Active; 'I' for Inactive)
REMARK    1  A    between atoms: C_7  and  N_17 
REMARK    2  A    between atoms: C_9  and  C_10 
REMARK       I    between atoms: N_20  and  C_23 
REMARK    3  A    between atoms: C_23  and  C_25 
REMARK    4  A    between atoms: C_25  and  C_26 
REMARK    5  A    between atoms: C_26  and  C_27 
ROOT
ATOM      1 Br   UNK d   1      22.304  62.387 -13.774  0.00  0.00    -0.051 Br
ATOM      2  C   UNK d   1      22.173  63.085 -12.003  0.00  0.00     0.011 A 
ATOM      3  C   UNK d   1      21.058  62.816 -11.214  0.00  0.00     0.035 A 
ATOM      4  C   UNK d   1      20.962  63.322  -9.925  0.00  0.00     0.024 A 
ATOM      5  C   UNK d   1      21.977  64.101  -9.413  0.00  0.00     0.073 A 
ATOM      6  N   UNK d   1      21.887  64.594  -8.152  0.00  0.00    -0.207 NA
ATOM      7  C   UNK d   1      20.822  64.344  -7.369  0.00  0.00     0.327 A 
ATOM      8  N   UNK d   1      19.846  63.586  -7.882  0.00  0.00    -0.206 NA
ATOM      9  C   UNK d   1      19.869  63.066  -9.123  0.00  0.00     0.085 A 
ATOM     10  C   UNK d   1      23.079  64.357 -10.220  0.00  0.00     0.034 A 
ATOM     11  C   UNK d   1      23.195  63.864 -11.502  0.00  0.00     0.021 A 
ENDROOT
BRANCH   7  12
ATOM     12  N   UNK d   1      20.764  64.880  -6.041  0.00  0.00    -0.004 N 
ATOM     13  C   UNK d   1      21.528  66.095  -5.965  0.00  0.00     0.265 C 
ATOM     14  C   UNK d   1      23.005  65.894  -5.941  0.00  0.00     0.154 C 
ATOM     15  N   UNK d   1      23.374  64.519  -5.686  0.00  0.00    -0.349 N 
ATOM     16  C   UNK d   1      22.556  63.791  -4.740  0.00  0.00     0.154 C 
ATOM     17  C   UNK d   1      24.493  63.977  -6.363  0.00  0.00     0.220 C 
ATOM     18  C   UNK d   1      21.093  63.923  -5.030  0.00  0.00     0.265 C 
ATOM     19  O   UNK d   1      25.153  64.669  -7.169  0.00  0.00    -0.273 OA
ATOM     20  H   UNK d   1      19.748  65.173  -5.921  0.00  0.00     0.290 HD
BRANCH  17  21
ATOM     21  C   UNK d   1      24.830  62.556  -6.061  0.00  0.00     0.113 C 
BRANCH  21  22
ATOM     22  C   UNK d   1      26.049  62.452  -5.194  0.00  0.00     0.122 C 
BRANCH  22  23
ATOM     23  C   UNK d   1      25.738  62.404  -3.757  0.00  0.00     0.172 C 
ATOM     24  O   UNK d   1      24.926  61.578  -3.292  0.00  0.00    -0.648 OA
ATOM     25  O   UNK d   1      26.359  63.290  -2.901  0.00  0.00    -0.648 OA
ENDBRANCH  22  23
ENDBRANCH  21  22
ENDBRANCH  17  21
ENDBRANCH   7  12
BRANCH   9  26
ATOM     26  C   UNK d   1      18.756  62.253  -9.585  0.00  0.00     0.015 A 
ATOM     27  C   UNK d   1      17.629  62.851 -10.133  0.00  0.00     0.046 A 
ATOM     28  C   UNK d   1      16.560  62.113 -10.595  0.00  0.00     0.025 A 
ATOM     29 Cl   UNK d   1      17.591  64.613 -10.228  0.00  0.00    -0.083 Cl
ATOM     30  C   UNK d   1      16.567  60.735 -10.530  0.00  0.00     0.002 A 
ATOM     31  C   UNK d   1      17.696  60.138  -9.982  0.00  0.00     0.001 A 
ATOM     32  C   UNK d   1      18.759  60.883  -9.523  0.00  0.00     0.015 A 
ENDBRANCH   9  26
TORSDOF 5
ENDMDL
