MODEL 1
REMARK VINA RESULT:    -5.592      0.000      0.000
REMARK INTER + INTRA:          -8.709
REMARK INTER:                  -7.554
REMARK INTRA:                  -1.155
REMARK UNBOUND:                -1.155
REMARK  6 active torsions:
REMARK  status: ('A' for Active; 'I' for Inactive)
REMARK    1  A    between atoms: C_7  and  N_17 
REMARK    2  A    between atoms: C_9  and  C_10 
REMARK       I    between atoms: N_20  and  C_23 
REMARK    3  A    between atoms: C_23  and  C_25 
REMARK    4  A    between atoms: C_25  and  C_26 
REMARK    5  A    between atoms: C_26  and  C_27 
REMARK    6  A    between atoms: C_27  and  C_28 
ROOT
ATOM      1 Br   UNK d   1      14.298  61.126 -10.761  0.00  0.00    -0.051 Br
ATOM      2  C   UNK d   1      14.113  62.700 -11.829  0.00  0.00     0.011 A 
ATOM      3  C   UNK d   1      13.194  62.784 -12.860  0.00  0.00     0.035 A 
ATOM      4  C   UNK d   1      13.036  63.904 -13.647  0.00  0.00     0.024 A 
ATOM      5  C   UNK d   1      13.824  65.017 -13.419  0.00  0.00     0.073 A 
ATOM      6  N   UNK d   1      13.690  66.127 -14.188  0.00  0.00    -0.207 NA
ATOM      7  C   UNK d   1      12.802  66.204 -15.193  0.00  0.00     0.327 A 
ATOM      8  N   UNK d   1      12.034  65.122 -15.415  0.00  0.00    -0.206 NA
ATOM      9  C   UNK d   1      12.128  63.991 -14.678  0.00  0.00     0.085 A 
ATOM     10  C   UNK d   1      14.741  64.944 -12.395  0.00  0.00     0.034 A 
ATOM     11  C   UNK d   1      14.896  63.811 -11.604  0.00  0.00     0.021 A 
ENDROOT
BRANCH   7  12
ATOM     12  N   UNK d   1      12.690  67.386 -15.978  0.00  0.00    -0.004 N 
ATOM     13  C   UNK d   1      11.521  67.334 -16.828  0.00  0.00     0.265 C 
ATOM     14  C   UNK d   1      11.196  68.725 -17.274  0.00  0.00     0.154 C 
ATOM     15  N   UNK d   1      12.341  69.574 -17.016  0.00  0.00    -0.349 N 
ATOM     16  C   UNK d   1      13.648  69.053 -17.375  0.00  0.00     0.154 C 
ATOM     17  C   UNK d   1      12.137  70.839 -16.441  0.00  0.00     0.219 C 
ATOM     18  C   UNK d   1      13.832  67.636 -16.819  0.00  0.00     0.265 C 
ATOM     19  O   UNK d   1      13.146  71.554 -16.223  0.00  0.00    -0.273 OA
ATOM     20  H   UNK d   1      12.601  68.186 -15.317  0.00  0.00     0.290 HD
BRANCH  17  21
ATOM     21  C   UNK d   1      10.806  71.339 -16.092  0.00  0.00     0.103 C 
BRANCH  21  22
ATOM     22  C   UNK d   1      10.662  71.410 -14.599  0.00  0.00     0.020 C 
BRANCH  22  23
ATOM     23  C   UNK d   1      11.416  70.309 -13.888  0.00  0.00     0.113 C 
BRANCH  23  24
ATOM     24  C   UNK d   1      12.170  70.788 -12.713  0.00  0.00     0.172 C 
ATOM     25  O   UNK d   1      11.799  70.385 -11.585  0.00  0.00    -0.648 OA
ATOM     26  O   UNK d   1      13.244  71.649 -12.879  0.00  0.00    -0.648 OA
ENDBRANCH  23  24
ENDBRANCH  22  23
ENDBRANCH  21  22
ENDBRANCH  17  21
ENDBRANCH   7  12
BRANCH   9  27
ATOM     27  C   UNK d   1      11.274  62.849 -14.963  0.00  0.00     0.015 A 
ATOM     28  C   UNK d   1      11.592  61.924 -15.946  0.00  0.00     0.046 A 
ATOM     29  C   UNK d   1      10.779  60.845 -16.241  0.00  0.00     0.025 A 
ATOM     30 Cl   UNK d   1      13.080  62.122 -16.858  0.00  0.00    -0.083 Cl
ATOM     31  C   UNK d   1       9.598  60.706 -15.502  0.00  0.00     0.002 A 
ATOM     32  C   UNK d   1       9.252  61.608 -14.517  0.00  0.00     0.001 A 
ATOM     33  C   UNK d   1      10.081  62.653 -14.263  0.00  0.00     0.015 A 
ENDBRANCH   9  27
TORSDOF 6
ENDMDL
