MODEL 1
REMARK VINA RESULT:    -9.624      0.000      0.000
REMARK INTER + INTRA:         -10.725
REMARK INTER:                 -11.312
REMARK INTRA:                   0.588
REMARK UNBOUND:                 0.588
REMARK  3 active torsions:
REMARK  status: ('A' for Active; 'I' for Inactive)
REMARK    1  A    between atoms: C_7  and  C_9 
REMARK       I    between atoms: C_9  and  N_11 
REMARK       I    between atoms: N_14  and  C_17 
REMARK    2  A    between atoms: C_17  and  C_19 
REMARK    3  A    between atoms: C_19  and  N_20 
ROOT
ATOM      1  C   UNK d   1      21.149  63.169 -10.364  0.00  0.00     0.270 C 
ATOM      2  O   UNK d   1      21.955  62.713 -11.262  0.00  0.00    -0.266 OA
ATOM      3  N   UNK d   1      21.739  63.922  -9.348  0.00  0.00    -0.344 N 
ATOM      4  C   UNK d   1      21.065  64.524  -8.229  0.00  0.00     0.146 C 
ATOM      5  C   UNK d   1      22.040  65.229  -7.277  0.00  0.00     0.145 C 
ATOM      6  N   UNK d   1      23.148  64.328  -6.999  0.00  0.00    -0.348 N 
ATOM      7  C   UNK d   1      23.754  63.563  -8.089  0.00  0.00     0.145 C 
ATOM      8  C   UNK d   1      23.206  64.167  -9.384  0.00  0.00     0.146 C 
ATOM      9  C   UNK d   1      23.652  64.172  -5.689  0.00  0.00     0.248 C 
ATOM     10  O   UNK d   1      23.102  64.839  -4.780  0.00  0.00    -0.271 OA
ENDROOT
BRANCH   1  11
ATOM     11  C   UNK d   1      19.737  62.865 -10.487  0.00  0.00     0.102 A 
ATOM     12  N   UNK d   1      19.046  61.735 -10.314  0.00  0.00    -0.351 N 
ATOM     13  C   UNK d   1      17.713  61.929 -10.557  0.00  0.00     0.043 A 
ATOM     14  H   UNK d   1      19.403  60.811 -10.032  0.00  0.00     0.166 HD
ATOM     15  C   UNK d   1      17.524  63.238 -10.903  0.00  0.00    -0.006 A 
ATOM     16  C   UNK d   1      16.622  61.082 -10.512  0.00  0.00     0.031 A 
ATOM     17  C   UNK d   1      16.239  63.698 -11.205  0.00  0.00     0.032 A 
ATOM     18  C   UNK d   1      18.759  63.820 -10.863  0.00  0.00     0.049 A 
ATOM     19  C   UNK d   1      15.151  62.865 -11.163  0.00  0.00     0.011 A 
ATOM     20 Br   UNK d   1      13.383  63.484 -11.576  0.00  0.00    -0.051 Br
ATOM     21  C   UNK d   1      15.349  61.547 -10.814  0.00  0.00     0.021 A 
ENDBRANCH   1  11
BRANCH   9  22
ATOM     22  C   UNK d   1      24.761  63.261  -5.455  0.00  0.00     0.374 C 
BRANCH  22  23
ATOM     23  N   UNK d   1      24.513  62.236  -4.465  0.00  0.00     0.101 N 
ATOM     24  C   UNK d   1      23.571  62.754  -3.470  0.00  0.00     0.299 C 
ATOM     25  C   UNK d   1      24.287  63.271  -2.271  0.00  0.00     0.198 C 
ATOM     26  O   UNK d   1      25.493  63.865  -2.634  0.00  0.00    -0.388 OA
ATOM     27  C   UNK d   1      26.414  62.911  -3.074  0.00  0.00     0.198 C 
ATOM     28  C   UNK d   1      25.725  61.782  -3.805  0.00  0.00     0.299 C 
ENDBRANCH  22  23
ENDBRANCH   9  22
TORSDOF 3
ENDMDL
