MODEL 1
REMARK VINA RESULT:    -8.365      0.000      0.000
REMARK INTER + INTRA:          -9.136
REMARK INTER:                  -8.854
REMARK INTRA:                  -0.282
REMARK UNBOUND:                -0.282
REMARK  1 active torsions:
REMARK  status: ('A' for Active; 'I' for Inactive)
REMARK    1  A    between atoms: C_10  and  C_15 
REMARK       I    between atoms: C_15  and  N_17 
ROOT
ATOM      1 Br   UNK d   1      22.912  64.786  -6.280  0.00  0.00    -0.051 Br
ATOM      2  C   UNK d   1      22.111  64.160  -7.891  0.00  0.00     0.012 A 
ATOM      3  C   UNK d   1      22.851  64.179  -9.054  0.00  0.00     0.028 A 
ATOM      4  C   UNK d   1      22.291  63.726 -10.255  0.00  0.00    -0.027 A 
ATOM      5  C   UNK d   1      21.012  63.272 -10.235  0.00  0.00     0.055 A 
ATOM      6  C   UNK d   1      20.234  63.233  -9.098  0.00  0.00     0.044 A 
ATOM      7  C   UNK d   1      20.804  63.682  -7.935  0.00  0.00     0.037 A 
ATOM      8  C   UNK d   1      18.958  62.751  -9.221  0.00  0.00     0.201 A 
ATOM      9  O   UNK d   1      18.246  62.709  -8.204  0.00  0.00    -0.286 OA
ATOM     10  C   UNK d   1      18.437  62.309 -10.428  0.00  0.00     0.098 A 
ATOM     11  C   UNK d   1      19.267  62.375 -11.526  0.00  0.00     0.112 A 
ATOM     12  N   UNK d   1      20.546  62.857 -11.414  0.00  0.00    -0.354 N 
ATOM     13  C   UNK d   1      21.606  63.033 -12.381  0.00  0.00     0.133 A 
ATOM     14  C   UNK d   1      22.781  63.611 -11.639  0.00  0.00     0.061 A 
ENDROOT
BRANCH  10  15
ATOM     15  C   UNK d   1      17.075  61.797 -10.541  0.00  0.00     0.259 C 
ATOM     16  O   UNK d   1      16.887  60.559 -10.548  0.00  0.00    -0.267 OA
ATOM     17  N   UNK d   1      15.960  62.693 -10.645  0.00  0.00    -0.344 N 
ATOM     18  C   UNK d   1      14.600  62.211 -10.759  0.00  0.00     0.152 C 
ATOM     19  C   UNK d   1      16.153  64.130 -10.640  0.00  0.00     0.152 C 
ATOM     20  C   UNK d   1      14.017  62.880 -12.010  0.00  0.00     0.187 C 
ATOM     21  O   UNK d   1      14.188  64.241 -11.920  0.00  0.00    -0.388 OA
ATOM     22  C   UNK d   1      15.505  64.647 -11.927  0.00  0.00     0.187 C 
ENDBRANCH  10  15
TORSDOF 1
ENDMDL
