MODEL 1
REMARK VINA RESULT:    -8.415      0.000      0.000
REMARK INTER + INTRA:         -11.559
REMARK INTER:                 -11.612
REMARK INTRA:                   0.053
REMARK UNBOUND:                 0.053
REMARK  7 active torsions:
REMARK  status: ('A' for Active; 'I' for Inactive)
REMARK    1  A    between atoms: C_6  and  O_28 
REMARK    2  A    between atoms: C_10  and  N_11 
REMARK       I    between atoms: N_11  and  C_12 
REMARK    3  A    between atoms: C_12  and  C_14 
REMARK    4  A    between atoms: C_14  and  N_15 
REMARK    5  A    between atoms: N_18  and  C_21 
REMARK    6  A    between atoms: C_21  and  C_22 
REMARK       I    between atoms: C_22  and  N_24 
REMARK    7  A    between atoms: N_24  and  C_25 
ROOT
ATOM      1  N   UNK d   1      19.060  63.596 -10.619  0.00  0.00    -0.324 N 
ATOM      2  C   UNK d   1      20.162  63.204 -11.391  0.00  0.00     0.239 C 
ATOM      3  O   UNK d   1      19.988  62.635 -12.499  0.00  0.00    -0.271 OA
ATOM      4  H   UNK d   1      19.308  64.087  -9.707  0.00  0.00     0.169 HD
ENDROOT
BRANCH   2   5
ATOM      5  C   UNK d   1      21.558  63.417 -10.993  0.00  0.00     0.220 C 
BRANCH   5   6
ATOM      6  N   UNK d   1      21.817  63.834  -9.673  0.00  0.00    -0.401 N 
ATOM      7  C   UNK d   1      21.121  63.194  -8.617  0.00  0.00     0.136 C 
ATOM      8  C   UNK d   1      21.133  64.024  -7.332  0.00  0.00     0.136 C 
ATOM      9  N   UNK d   1      22.465  64.326  -7.024  0.00  0.00    -0.401 N 
ATOM     10  C   UNK d   1      23.472  63.980  -7.948  0.00  0.00     0.136 C 
ATOM     11  C   UNK d   1      23.162  64.210  -9.396  0.00  0.00     0.136 C 
BRANCH   9  12
ATOM     12  C   UNK d   1      22.679  65.340  -6.094  0.00  0.00     0.219 C 
BRANCH  12  13
ATOM     13  C   UNK d   1      22.511  66.730  -6.519  0.00  0.00     0.235 C 
ATOM     14  O   UNK d   1      21.407  66.983  -7.141  0.00  0.00    -0.272 OA
ATOM     15  N   UNK d   1      23.383  67.797  -6.334  0.00  0.00    -0.355 N 
ATOM     16  H   UNK d   1      24.284  67.659  -5.832  0.00  0.00     0.162 HD
BRANCH  15  17
ATOM     17  C   UNK d   1      23.106  69.150  -6.805  0.00  0.00     0.084 A 
ATOM     18  C   UNK d   1      22.987  70.271  -5.859  0.00  0.00     0.027 A 
ATOM     19  C   UNK d   1      24.227  70.164  -6.727  0.00  0.00     0.027 A 
ENDBRANCH  15  17
ENDBRANCH  12  13
ENDBRANCH   9  12
ENDBRANCH   5   6
ENDBRANCH   2   5
BRANCH   1  20
ATOM     20  C   UNK d   1      17.692  63.429 -10.925  0.00  0.00     0.054 A 
ATOM     21  C   UNK d   1      17.060  62.250 -10.560  0.00  0.00     0.040 A 
ATOM     22 Br   UNK d   1      18.117  60.913  -9.682  0.00  0.00    -0.049 Br
ATOM     23  C   UNK d   1      15.729  61.994 -10.800  0.00  0.00     0.055 A 
ATOM     24  C   UNK d   1      14.943  62.924 -11.435  0.00  0.00     0.089 A 
ATOM     25  N   UNK d   1      13.654  63.003 -11.815  0.00  0.00    -0.207 NA
ATOM     26  C   UNK d   1      15.547  64.093 -11.804  0.00  0.00     0.066 A 
ATOM     27  C   UNK d   1      13.413  64.183 -12.416  0.00  0.00     0.244 A 
ATOM     28  N   UNK d   1      14.589  64.835 -12.397  0.00  0.00    -0.319 N 
ATOM     29  H   UNK d   1      14.754  65.802 -12.792  0.00  0.00     0.169 HD
ATOM     30  C   UNK d   1      16.902  64.359 -11.561  0.00  0.00     0.063 A 
BRANCH  27  31
ATOM     31  O   UNK d   1      12.184  64.625 -12.944  0.00  0.00    -0.331 OA
ATOM     32  H   UNK d   1      11.725  65.375 -12.411  0.00  0.00     0.221 HD
ENDBRANCH  27  31
ENDBRANCH   1  20
TORSDOF 7
ENDMDL
