/Users/jonathanwahrer/Desktop/Msc/3_Semester/Drug_Design_Praktikum/waehrer_HTS_screening/HTS_experiment/out/docking_results/vina_output/3sx0/0631_docked.pdbqt
 OpenBabel03192221563D

 29 32  0  0  1  0  0  0  0  0999 V2000
   20.4910   63.0030   -9.4100 N   0  0  0  0  0  0  0  0  0  0  0  0
   20.6780   63.5490   -8.0470 C   0  0  0  0  0  2  0  0  0  0  0  0
   21.1610   64.9660   -8.3120 C   0  0  2  0  0  3  0  0  0  0  0  0
   21.9560   64.8160   -9.5910 C   0  0  0  0  0  2  0  0  0  0  0  0
   21.5510   63.5260  -10.2080 C   0  0  0  0  0  0  0  0  0  0  0  0
   22.0300   62.9900  -11.2160 O   0  0  0  0  0  0  0  0  0  0  0  0
   21.9620   65.3340   -7.1340 C   0  0  0  0  0  0  0  0  0  0  0  0
   22.0840   66.5300   -6.7790 O   0  0  0  0  0  0  0  0  0  0  0  0
   22.5970   64.2930   -6.4040 N   0  0  0  0  0  0  0  0  0  0  0  0
   22.4770   63.3170   -6.7390 H   0  0  0  0  0  0  0  0  0  0  0  0
   23.3960   64.5660   -5.2300 C   0  0  0  0  0  2  0  0  0  0  0  0
   23.3760   63.4260   -4.2330 C   0  0  0  0  0  2  0  0  0  0  0  0
   24.6340   62.6560   -4.2910 C   0  0  0  0  0  0  0  0  0  0  0  0
   25.4830   62.6900   -5.3300 N   0  0  0  0  0  0  0  0  0  0  0  0
   26.5290   61.8970   -5.0930 C   0  0  0  0  0  3  0  0  0  0  0  0
   26.3490   61.3350   -3.8670 N   0  0  0  0  0  0  0  0  0  0  0  0
   25.1930   61.8050   -3.3890 C   0  0  0  0  0  3  0  0  0  0  0  0
   27.0370   60.6670   -3.4510 H   0  0  0  0  0  0  0  0  0  0  0  0
   19.4110   62.1580   -9.7230 C   0  0  0  0  0  0  0  0  0  0  0  0
   19.3200   60.8200   -9.7110 N   0  0  0  0  0  0  0  0  0  0  0  0
   18.1040   60.4200  -10.0740 N   0  0  0  0  0  0  0  0  0  0  0  0
   20.0750   60.1540   -9.4570 H   0  0  0  0  0  0  0  0  0  0  0  0
   17.3370   61.4910  -10.3420 C   0  0  0  0  0  0  0  0  0  0  0  0
   16.0300   61.6260  -10.7480 C   0  0  0  0  0  3  0  0  0  0  0  0
   18.1310   62.5850  -10.1300 C   0  0  0  0  0  0  0  0  0  0  0  0
   15.5440   62.9190  -10.9340 C   0  0  0  0  0  0  0  0  0  0  0  0
   13.7380   63.2200  -11.4970 Br  0  0  0  0  0  0  0  0  0  0  0  0
   16.3640   64.0170  -10.7150 C   0  0  0  0  0  3  0  0  0  0  0  0
   17.6660   63.8570  -10.3100 C   0  0  0  0  0  3  0  0  0  0  0  0
  1  2  1  0  0  0  0
  3  2  1  0  0  0  0
  3  7  1  1  0  0  0
  4  3  1  0  0  0  0
  5  4  1  0  0  0  0
  5  1  1  0  0  0  0
  6  5  2  0  0  0  0
  7  8  2  0  0  0  0
  7  9  1  0  0  0  0
  9 11  1  0  0  0  0
 10  9  1  0  0  0  0
 11 12  1  0  0  0  0
 13 12  1  0  0  0  0
 13 17  2  0  0  0  0
 14 15  2  0  0  0  0
 14 13  1  0  0  0  0
 15 16  1  0  0  0  0
 16 18  1  0  0  0  0
 16 17  1  0  0  0  0
 19 20  1  0  0  0  0
 19  1  1  0  0  0  0
 20 22  1  0  0  0  0
 21 20  1  0  0  0  0
 23 25  1  0  0  0  0
 23 21  2  0  0  0  0
 24 23  1  0  0  0  0
 25 19  2  0  0  0  0
 26 24  2  0  0  0  0
 26 28  1  0  0  0  0
 27 26  1  0  0  0  0
 28 29  2  0  0  0  0
 29 25  1  0  0  0  0
M  END
>  <Pose>
1

>  <Score>
-9.812

$$$$
