MODEL 1
REMARK VINA RESULT:    -7.075      0.000      0.000
REMARK INTER + INTRA:          -9.767
REMARK INTER:                  -9.144
REMARK INTRA:                  -0.623
REMARK UNBOUND:                -0.623
REMARK  5 active torsions:
REMARK  status: ('A' for Active; 'I' for Inactive)
REMARK    1  A    between atoms: N_4  and  C_7 
REMARK    2  A    between atoms: C_7  and  C_8 
REMARK       I    between atoms: C_8  and  N_10 
REMARK    3  A    between atoms: N_10  and  C_11 
REMARK    4  A    between atoms: C_11  and  C_12 
REMARK    5  A    between atoms: C_15  and  O_24 
ROOT
ATOM      1  C   UNK d   1      19.693  63.297  -9.780  0.00  0.00     0.003 A 
ATOM      2  C   UNK d   1      20.156  63.130 -11.061  0.00  0.00     0.116 A 
ATOM      3  C   UNK d   1      21.502  63.249 -11.358  0.00  0.00     0.140 A 
ATOM      4  C   UNK d   1      22.421  63.540 -10.375  0.00  0.00     0.120 A 
ATOM      5  C   UNK d   1      21.959  63.714  -9.057  0.00  0.00     0.075 A 
ATOM      6  C   UNK d   1      20.627  63.596  -8.762  0.00  0.00    -0.027 A 
ATOM      7  C   UNK d   1      20.160  63.770  -7.385  0.00  0.00     0.060 C 
ATOM      8  C   UNK d   1      21.030  64.520  -6.457  0.00  0.00     0.130 C 
ATOM      9  N   UNK d   1      22.455  64.332  -6.700  0.00  0.00    -0.352 N 
ATOM     10  C   UNK d   1      22.918  64.087  -8.021  0.00  0.00     0.256 C 
ATOM     11  O   UNK d   1      24.156  64.198  -8.271  0.00  0.00    -0.267 OA
ATOM     12  C   UNK d   1      23.330  64.428  -5.554  0.00  0.00     0.152 C 
ATOM     13  O   UNK d   1      21.625  63.022 -12.715  0.00  0.00    -0.320 OA
ATOM     14  C   UNK d   1      20.405  62.582 -13.255  0.00  0.00     0.352 C 
ATOM     15  O   UNK d   1      19.436  62.831 -12.240  0.00  0.00    -0.322 OA
ENDROOT
BRANCH   1  16
ATOM     16  C   UNK d   1      18.257  63.220  -9.439  0.00  0.00     0.164 C 
BRANCH  16  17
ATOM     17  N   UNK d   1      17.400  63.901 -10.392  0.00  0.00    -0.355 N 
ATOM     18  C   UNK d   1      16.178  64.507 -10.192  0.00  0.00     0.237 C 
ATOM     19  O   UNK d   1      15.625  64.532  -9.046  0.00  0.00    -0.272 OA
ATOM     20  H   UNK d   1      17.810  63.920 -11.379  0.00  0.00     0.162 HD
BRANCH  18  21
ATOM     21  C   UNK d   1      15.452  65.160 -11.314  0.00  0.00     0.253 C 
BRANCH  21  22
ATOM     22  N   UNK d   1      14.594  64.125 -11.923  0.00  0.00    -0.271 N 
ATOM     23  C   UNK d   1      13.713  64.283 -12.905  0.00  0.00     0.133 A 
ATOM     24  C   UNK d   1      13.137  63.061 -13.164  0.00  0.00     0.047 A 
ATOM     25 Br   UNK d   1      11.797  62.653 -14.461  0.00  0.00    -0.048 Br
ATOM     26  C   UNK d   1      13.695  62.144 -12.304  0.00  0.00     0.159 A 
ATOM     27  N   UNK d   1      14.575  62.842 -11.571  0.00  0.00    -0.183 NA
ENDBRANCH  21  22
ENDBRANCH  18  21
ENDBRANCH  16  17
ENDBRANCH   1  16
BRANCH   4  28
ATOM     28  O   UNK d   1      23.774  63.663 -10.635  0.00  0.00    -0.352 OA
ATOM     29  C   UNK d   1      24.367  63.029 -11.749  0.00  0.00     0.210 C 
ENDBRANCH   4  28
TORSDOF 5
ENDMDL
