/Users/jonathanwahrer/Desktop/Msc/3_Semester/Drug_Design_Praktikum/waehrer_HTS_screening/HTS_experiment/out/docking_results/vina_output/3sx0/0653_docked.pdbqt
 OpenBabel03192221563D

 29 32  0  0  0  0  0  0  0  0999 V2000
   19.6930   63.2970   -9.7800 C   0  0  0  0  0  0  0  0  0  0  0  0
   20.1560   63.1300  -11.0610 C   0  0  0  0  0  0  0  0  0  0  0  0
   21.5020   63.2490  -11.3580 C   0  0  0  0  0  0  0  0  0  0  0  0
   22.4210   63.5400  -10.3750 C   0  0  0  0  0  0  0  0  0  0  0  0
   21.9590   63.7140   -9.0570 C   0  0  0  0  0  0  0  0  0  0  0  0
   20.6270   63.5960   -8.7620 C   0  0  0  0  0  0  0  0  0  0  0  0
   20.1600   63.7700   -7.3850 C   0  0  0  0  0  2  0  0  0  0  0  0
   21.0300   64.5200   -6.4570 C   0  0  0  0  0  2  0  0  0  0  0  0
   22.4550   64.3320   -6.7000 N   0  0  0  0  0  0  0  0  0  0  0  0
   22.9180   64.0870   -8.0210 C   0  0  0  0  0  0  0  0  0  0  0  0
   24.1560   64.1980   -8.2710 O   0  0  0  0  0  0  0  0  0  0  0  0
   23.3300   64.4280   -5.5540 C   0  0  0  0  0  1  0  0  0  0  0  0
   21.6250   63.0220  -12.7150 O   0  0  0  0  0  0  0  0  0  0  0  0
   20.4050   62.5820  -13.2550 C   0  0  0  0  0  2  0  0  0  0  0  0
   19.4360   62.8310  -12.2400 O   0  0  0  0  0  0  0  0  0  0  0  0
   18.2570   63.2200   -9.4390 C   0  0  0  0  0  2  0  0  0  0  0  0
   17.4000   63.9010  -10.3920 N   0  0  0  0  0  0  0  0  0  0  0  0
   16.1780   64.5070  -10.1920 C   0  0  0  0  0  0  0  0  0  0  0  0
   15.6250   64.5320   -9.0460 O   0  0  0  0  0  0  0  0  0  0  0  0
   17.8100   63.9200  -11.3790 H   0  0  0  0  0  0  0  0  0  0  0  0
   15.4520   65.1600  -11.3140 C   0  0  0  0  0  2  0  0  0  0  0  0
   14.5940   64.1250  -11.9230 N   0  0  0  0  0  0  0  0  0  0  0  0
   13.7130   64.2830  -12.9050 C   0  0  0  0  0  3  0  0  0  0  0  0
   13.1370   63.0610  -13.1640 C   0  0  0  0  0  0  0  0  0  0  0  0
   11.7970   62.6530  -14.4610 Br  0  0  0  0  0  0  0  0  0  0  0  0
   13.6950   62.1440  -12.3040 C   0  0  0  0  0  3  0  0  0  0  0  0
   14.5750   62.8420  -11.5710 N   0  0  0  0  0  0  0  0  0  0  0  0
   23.7740   63.6630  -10.6350 O   0  0  0  0  0  0  0  0  0  0  0  0
   24.3670   63.0290  -11.7490 C   0  0  0  0  0  1  0  0  0  0  0  0
  1 16  1  0  0  0  0
  1  6  1  0  0  0  0
  2  1  2  0  0  0  0
  3  2  1  0  0  0  0
  3  4  2  0  0  0  0
  4  5  1  0  0  0  0
  5  6  2  0  0  0  0
  5 10  1  0  0  0  0
  6  7  1  0  0  0  0
  7  8  1  0  0  0  0
  9  8  1  0  0  0  0
  9 12  1  0  0  0  0
 10  9  1  0  0  0  0
 11 10  2  0  0  0  0
 13  3  1  0  0  0  0
 14 13  1  0  0  0  0
 14 15  1  0  0  0  0
 15  2  1  0  0  0  0
 17 18  1  0  0  0  0
 17 16  1  0  0  0  0
 18 19  2  0  0  0  0
 20 17  1  0  0  0  0
 21 18  1  0  0  0  0
 22 27  1  0  0  0  0
 22 21  1  0  0  0  0
 23 22  1  0  0  0  0
 24 23  2  0  0  0  0
 24 26  1  0  0  0  0
 25 24  1  0  0  0  0
 26 27  2  0  0  0  0
 28  4  1  0  0  0  0
 29 28  1  0  0  0  0
M  END
>  <Pose>
1

>  <Score>
-7.075

$$$$
