/Users/jonathanwahrer/Desktop/Msc/3_Semester/Drug_Design_Praktikum/waehrer_HTS_screening/HTS_experiment/out/docking_results/vina_output/3sx0/0662_docked.pdbqt
 OpenBabel03192221563D

 25 29  0  0  0  0  0  0  0  0999 V2000
   19.4680   62.7010   -9.8000 C   0  0  0  0  0  0  0  0  0  0  0  0
   19.1790   61.3950   -9.6920 N   0  0  0  0  0  0  0  0  0  0  0  0
   17.9090   61.1760  -10.0340 N   0  0  0  0  0  0  0  0  0  0  0  0
   17.3650   62.3790  -10.3730 C   0  0  0  0  0  0  0  0  0  0  0  0
   18.3400   63.2960  -10.2210 N   0  0  0  0  0  0  0  0  0  0  0  0
   16.0440   62.4130  -10.7670 C   0  0  0  0  0  0  0  0  0  0  0  0
   15.2550   61.2780  -10.8320 C   0  0  0  0  0  0  0  0  0  0  0  0
   14.0230   61.6200  -11.2450 N   0  0  0  0  0  0  0  0  0  0  0  0
   14.0260   62.9290  -11.4380 N   0  0  0  0  0  0  0  0  0  0  0  0
   15.2390   63.4500  -11.1580 C   0  0  0  0  0  3  0  0  0  0  0  0
   15.8340   60.1170  -10.4880 N   0  0  0  0  0  0  0  0  0  0  0  0
   17.1210   60.0880  -10.1050 C   0  0  0  0  0  3  0  0  0  0  0  0
   13.2020   60.9960  -11.3950 H   0  0  0  0  0  0  0  0  0  0  0  0
   20.7580   63.3280   -9.5140 C   0  0  0  0  0  0  0  0  0  0  0  0
   21.1310   63.9930   -8.4070 N   0  0  0  0  0  0  0  0  0  0  0  0
   22.3760   64.4230   -8.5070 N   0  0  0  0  0  0  0  0  0  0  0  0
   22.8740   64.0500   -9.6980 C   0  0  0  0  0  3  0  0  0  0  0  0
   21.8570   63.3570  -10.3460 C   0  0  0  0  0  3  0  0  0  0  0  0
   23.0950   65.1810   -7.4800 C   0  0  0  0  0  2  0  0  0  0  0  0
   23.6440   64.3080   -6.4630 N   0  0  0  0  0  0  0  0  0  0  0  0
   23.3720   64.3520   -5.1480 C   0  0  0  0  0  3  0  0  0  0  0  0
   24.0940   63.3550   -4.5250 C   0  0  0  0  0  0  0  0  0  0  0  0
   24.1020   62.9530   -2.6770 Br  0  0  0  0  0  0  0  0  0  0  0  0
   24.8080   62.7150   -5.5130 C   0  0  0  0  0  3  0  0  0  0  0  0
   24.5020   63.3280   -6.6790 N   0  0  0  0  0  0  0  0  0  0  0  0
  1  2  2  0  0  0  0
  1 14  1  0  0  0  0
  3  2  1  0  0  0  0
  4  5  2  0  0  0  0
  4  3  1  0  0  0  0
  5  1  1  0  0  0  0
  6  4  1  0  0  0  0
  7  6  2  0  0  0  0
  7 11  1  0  0  0  0
  8  7  1  0  0  0  0
  9  8  1  0  0  0  0
  9 10  2  0  0  0  0
 10  6  1  0  0  0  0
 11 12  2  0  0  0  0
 12  3  1  0  0  0  0
 13  8  1  0  0  0  0
 14 15  2  0  0  0  0
 16 15  1  0  0  0  0
 16 19  1  0  0  0  0
 17 16  1  0  0  0  0
 18 17  2  0  0  0  0
 18 14  1  0  0  0  0
 19 20  1  0  0  0  0
 20 21  1  0  0  0  0
 21 22  2  0  0  0  0
 22 23  1  0  0  0  0
 24 22  1  0  0  0  0
 25 20  1  0  0  0  0
 25 24  2  0  0  0  0
M  END
>  <Pose>
1

>  <Score>
-9.976

$$$$
