MODEL 1
REMARK VINA RESULT:    -9.976      0.000      0.000
REMARK INTER + INTRA:         -12.102
REMARK INTER:                 -11.726
REMARK INTRA:                  -0.377
REMARK UNBOUND:                -0.377
REMARK  3 active torsions:
REMARK  status: ('A' for Active; 'I' for Inactive)
REMARK    1  A    between atoms: N_4  and  C_7 
REMARK    2  A    between atoms: C_7  and  N_8 
REMARK    3  A    between atoms: C_10  and  C_13 
ROOT
ATOM      1  C   UNK d   1      19.468  62.701  -9.800  0.00  0.00     0.202 A 
ATOM      2  N   UNK d   1      19.179  61.395  -9.692  0.00  0.00    -0.142 NA
ATOM      3  N   UNK d   1      17.909  61.176 -10.034  0.00  0.00    -0.206 N 
ATOM      4  C   UNK d   1      17.365  62.379 -10.373  0.00  0.00     0.170 A 
ATOM      5  N   UNK d   1      18.340  63.296 -10.221  0.00  0.00    -0.205 NA
ATOM      6  C   UNK d   1      16.044  62.413 -10.767  0.00  0.00     0.078 A 
ATOM      7  C   UNK d   1      15.255  61.278 -10.832  0.00  0.00     0.160 A 
ATOM      8  N   UNK d   1      14.023  61.620 -11.245  0.00  0.00    -0.261 N 
ATOM      9  N   UNK d   1      14.026  62.929 -11.438  0.00  0.00    -0.184 NA
ATOM     10  C   UNK d   1      15.239  63.450 -11.158  0.00  0.00     0.158 A 
ATOM     11  N   UNK d   1      15.834  60.117 -10.488  0.00  0.00    -0.222 NA
ATOM     12  C   UNK d   1      17.121  60.088 -10.105  0.00  0.00     0.239 A 
ATOM     13  H   UNK d   1      13.202  60.996 -11.395  0.00  0.00     0.191 HD
ENDROOT
BRANCH   1  14
ATOM     14  C   UNK d   1      20.758  63.328  -9.514  0.00  0.00     0.128 A 
ATOM     15  N   UNK d   1      21.131  63.993  -8.407  0.00  0.00    -0.167 NA
ATOM     16  N   UNK d   1      22.376  64.423  -8.507  0.00  0.00    -0.261 N 
ATOM     17  C   UNK d   1      22.874  64.050  -9.698  0.00  0.00     0.117 A 
ATOM     18  C   UNK d   1      21.857  63.357 -10.346  0.00  0.00     0.056 A 
BRANCH  16  19
ATOM     19  C   UNK d   1      23.095  65.181  -7.480  0.00  0.00     0.300 C 
BRANCH  19  20
ATOM     20  N   UNK d   1      23.644  64.308  -6.463  0.00  0.00    -0.260 N 
ATOM     21  C   UNK d   1      23.372  64.352  -5.148  0.00  0.00     0.135 A 
ATOM     22  C   UNK d   1      24.094  63.355  -4.525  0.00  0.00     0.047 A 
ATOM     23 Br   UNK d   1      24.102  62.953  -2.677  0.00  0.00    -0.048 Br
ATOM     24  C   UNK d   1      24.808  62.715  -5.513  0.00  0.00     0.159 A 
ATOM     25  N   UNK d   1      24.502  63.328  -6.679  0.00  0.00    -0.182 NA
ENDBRANCH  19  20
ENDBRANCH  16  19
ENDBRANCH   1  14
TORSDOF 3
ENDMDL
