MODEL 1
REMARK VINA RESULT:    -6.110      0.000      0.000
REMARK INTER + INTRA:          -7.418
REMARK INTER:                  -6.825
REMARK INTRA:                  -0.593
REMARK UNBOUND:                -0.593
REMARK  2 active torsions:
REMARK  status: ('A' for Active; 'I' for Inactive)
REMARK    1  A    between atoms: N_4  and  C_7 
REMARK    2  A    between atoms: C_10  and  C_13 
REMARK       I    between atoms: C_13  and  N_15 
ROOT
ATOM      1  C   UNK d   1      11.961  64.499 -13.807  0.00  0.00     0.253 C 
ATOM      2  O   UNK d   1      11.018  65.089 -13.143  0.00  0.00    -0.267 OA
ATOM      3  N   UNK d   1      11.710  64.297 -15.153  0.00  0.00    -0.348 N 
ATOM      4  C   UNK d   1      12.522  63.737 -16.200  0.00  0.00     0.129 C 
ATOM      5  C   UNK d   1      12.061  62.307 -16.405  0.00  0.00     0.061 C 
ATOM      6  C   UNK d   1      10.555  62.212 -16.259  0.00  0.00     0.118 C 
ATOM      7  N   UNK d   1      10.087  61.275 -17.256  0.00  0.00    -0.324 N 
ATOM      8  C   UNK d   1      10.205  59.967 -16.716  0.00  0.00     0.323 C 
ATOM      9  O   UNK d   1      10.244  58.859 -17.343  0.00  0.00    -0.247 OA
ATOM     10  N   UNK d   1      10.274  60.118 -15.289  0.00  0.00    -0.277 N 
ATOM     11  C   UNK d   1      10.196  61.530 -15.001  0.00  0.00     0.254 C 
ATOM     12  O   UNK d   1       9.880  62.005 -13.889  0.00  0.00    -0.270 OA
ATOM     13  C   UNK d   1       9.853  63.515 -16.466  0.00  0.00     0.061 C 
ATOM     14  C   UNK d   1      10.348  64.663 -15.654  0.00  0.00     0.129 C 
ATOM     15  H   UNK d   1       9.723  61.476 -18.208  0.00  0.00     0.165 HD
ATOM     16  H   UNK d   1      10.364  59.383 -14.554  0.00  0.00     0.173 HD
ENDROOT
BRANCH   1  17
ATOM     17  C   UNK d   1      13.119  64.154 -13.015  0.00  0.00     0.032 A 
ATOM     18  C   UNK d   1      13.245  62.842 -12.512  0.00  0.00     0.019 A 
ATOM     19  C   UNK d   1      14.330  62.428 -11.787  0.00  0.00     0.032 A 
ATOM     20  C   UNK d   1      15.377  63.270 -11.501  0.00  0.00     0.058 A 
ATOM     21  C   UNK d   1      15.281  64.549 -11.978  0.00  0.00     0.032 A 
ATOM     22  C   UNK d   1      14.175  64.986 -12.724  0.00  0.00     0.019 A 
BRANCH  20  23
ATOM     23  N   UNK d   1      16.490  62.812 -10.747  0.00  0.00    -0.244 N 
ATOM     24  C   UNK d   1      17.496  63.530 -10.215  0.00  0.00     0.139 A 
ATOM     25  C   UNK d   1      18.365  62.684  -9.562  0.00  0.00     0.047 A 
ATOM     26 Br   UNK d   1      19.976  63.163  -8.622  0.00  0.00    -0.048 Br
ATOM     27  C   UNK d   1      17.840  61.422  -9.725  0.00  0.00     0.159 A 
ATOM     28  N   UNK d   1      16.723  61.554 -10.438  0.00  0.00    -0.179 NA
ENDBRANCH  20  23
ENDBRANCH   1  17
TORSDOF 2
ENDMDL
