/Users/jonathanwahrer/Desktop/Msc/3_Semester/Drug_Design_Praktikum/waehrer_HTS_screening/HTS_experiment/out/docking_results/vina_output/3sx0/0663_docked.pdbqt
 OpenBabel03192221563D

 28 31  0  0  1  0  0  0  0  0999 V2000
   11.9610   64.4990  -13.8070 C   0  0  0  0  0  0  0  0  0  0  0  0
   11.0180   65.0890  -13.1430 O   0  0  0  0  0  0  0  0  0  0  0  0
   11.7100   64.2970  -15.1530 N   0  0  0  0  0  0  0  0  0  0  0  0
   12.5220   63.7370  -16.2000 C   0  0  0  0  0  2  0  0  0  0  0  0
   12.0610   62.3070  -16.4050 C   0  0  0  0  0  2  0  0  0  0  0  0
   10.5550   62.2120  -16.2590 C   0  0  1  0  0  0  0  0  0  0  0  0
   10.0870   61.2750  -17.2560 N   0  0  0  0  0  0  0  0  0  0  0  0
   10.2050   59.9670  -16.7160 C   0  0  0  0  0  0  0  0  0  0  0  0
   10.2440   58.8590  -17.3430 O   0  0  0  0  0  0  0  0  0  0  0  0
   10.2740   60.1180  -15.2890 N   0  0  0  0  0  0  0  0  0  0  0  0
   10.1960   61.5300  -15.0010 C   0  0  0  0  0  0  0  0  0  0  0  0
    9.8800   62.0050  -13.8890 O   0  0  0  0  0  0  0  0  0  0  0  0
    9.8530   63.5150  -16.4660 C   0  0  0  0  0  2  0  0  0  0  0  0
   10.3480   64.6630  -15.6540 C   0  0  0  0  0  2  0  0  0  0  0  0
    9.7230   61.4760  -18.2080 H   0  0  0  0  0  0  0  0  0  0  0  0
   10.3640   59.3830  -14.5540 H   0  0  0  0  0  0  0  0  0  0  0  0
   13.1190   64.1540  -13.0150 C   0  0  0  0  0  0  0  0  0  0  0  0
   13.2450   62.8420  -12.5120 C   0  0  0  0  0  3  0  0  0  0  0  0
   14.3300   62.4280  -11.7870 C   0  0  0  0  0  3  0  0  0  0  0  0
   15.3770   63.2700  -11.5010 C   0  0  0  0  0  0  0  0  0  0  0  0
   15.2810   64.5490  -11.9780 C   0  0  0  0  0  3  0  0  0  0  0  0
   14.1750   64.9860  -12.7240 C   0  0  0  0  0  3  0  0  0  0  0  0
   16.4900   62.8120  -10.7470 N   0  0  0  0  0  0  0  0  0  0  0  0
   17.4960   63.5300  -10.2150 C   0  0  0  0  0  3  0  0  0  0  0  0
   18.3650   62.6840   -9.5620 C   0  0  0  0  0  0  0  0  0  0  0  0
   19.9760   63.1630   -8.6220 Br  0  0  0  0  0  0  0  0  0  0  0  0
   17.8400   61.4220   -9.7250 C   0  0  0  0  0  3  0  0  0  0  0  0
   16.7230   61.5540  -10.4380 N   0  0  0  0  0  0  0  0  0  0  0  0
  1  2  2  0  0  0  0
  1 17  1  0  0  0  0
  3  1  1  0  0  0  0
  4  3  1  0  0  0  0
  5  6  1  0  0  0  0
  5  4  1  0  0  0  0
  6 13  1  6  0  0  0
  6 11  1  0  0  0  0
  7  8  1  0  0  0  0
  7  6  1  0  0  0  0
  8 10  1  0  0  0  0
  9  8  2  0  0  0  0
 10 11  1  0  0  0  0
 10 16  1  0  0  0  0
 11 12  2  0  0  0  0
 13 14  1  0  0  0  0
 14  3  1  0  0  0  0
 15  7  1  0  0  0  0
 17 22  2  0  0  0  0
 17 18  1  0  0  0  0
 18 19  2  0  0  0  0
 19 20  1  0  0  0  0
 20 23  1  0  0  0  0
 21 20  2  0  0  0  0
 22 21  1  0  0  0  0
 23 28  1  0  0  0  0
 23 24  1  0  0  0  0
 24 25  2  0  0  0  0
 25 26  1  0  0  0  0
 27 25  1  0  0  0  0
 28 27  2  0  0  0  0
M  END
>  <Pose>
1

>  <Score>
-6.110

$$$$
