MODEL 1
REMARK VINA RESULT:    -8.812      0.000      0.000
REMARK INTER + INTRA:         -11.337
REMARK INTER:                 -10.872
REMARK INTRA:                  -0.465
REMARK UNBOUND:                -0.465
REMARK  4 active torsions:
REMARK  status: ('A' for Active; 'I' for Inactive)
REMARK    1  A    between atoms: C_5  and  N_8 
REMARK    2  A    between atoms: N_8  and  C_9 
REMARK    3  A    between atoms: C_10  and  N_22 
REMARK    4  A    between atoms: N_13  and  C_16 
ROOT
ATOM      1  C   UNK d   1      21.562  64.032 -10.360  0.00  0.00     0.136 A 
ATOM      2  C   UNK d   1      21.767  63.409 -11.482  0.00  0.00     0.140 A 
ATOM      3  C   UNK d   1      20.545  62.656 -11.771  0.00  0.00     0.285 A 
ATOM      4  O   UNK d   1      20.390  61.925 -12.798  0.00  0.00    -0.265 OA
ATOM      5  N   UNK d   1      19.561  62.858 -10.746  0.00  0.00    -0.241 N 
ATOM      6  C   UNK d   1      20.206  63.744  -9.833  0.00  0.00     0.284 A 
ATOM      7  O   UNK d   1      19.710  64.199  -8.768  0.00  0.00    -0.265 OA
ENDROOT
BRANCH   1   8
ATOM      8  N   UNK d   1      22.432  64.892  -9.648  0.00  0.00    -0.335 N 
ATOM      9  H   UNK d   1      22.750  65.769 -10.057  0.00  0.00     0.168 HD
BRANCH   8  10
ATOM     10  C   UNK d   1      22.848  64.497  -8.355  0.00  0.00     0.127 A 
ATOM     11  N   UNK d   1      22.471  65.190  -7.247  0.00  0.00    -0.242 NA
ATOM     12  C   UNK d   1      22.850  64.867  -6.005  0.00  0.00     0.138 A 
ATOM     13  C   UNK d   1      23.663  63.789  -5.774  0.00  0.00     0.028 A 
ATOM     14 Br   UNK d   1      24.231  63.306  -4.014  0.00  0.00    -0.050 Br
ATOM     15  C   UNK d   1      24.082  63.041  -6.850  0.00  0.00     0.024 A 
ATOM     16  C   UNK d   1      23.676  63.396  -8.108  0.00  0.00     0.052 A 
ENDBRANCH   8  10
ENDBRANCH   1   8
BRANCH   2  17
ATOM     17  N   UNK d   1      22.929  63.427 -12.314  0.00  0.00    -0.326 N 
ATOM     18  C   UNK d   1      24.149  63.284 -11.765  0.00  0.00     0.097 A 
ATOM     19  C   UNK d   1      25.313  63.306 -12.553  0.00  0.00     0.018 A 
ATOM     20  C   UNK d   1      25.214  63.478 -13.921  0.00  0.00     0.003 A 
ATOM     21  C   UNK d   1      23.954  63.622 -14.459  0.00  0.00     0.018 A 
ATOM     22  C   UNK d   1      22.844  63.594 -13.656  0.00  0.00     0.097 A 
ENDBRANCH   2  17
BRANCH   5  23
ATOM     23  C   UNK d   1      18.262  62.293 -10.670  0.00  0.00     0.046 A 
ATOM     24  C   UNK d   1      17.114  63.004 -10.908  0.00  0.00     0.030 A 
ATOM     25  C   UNK d   1      15.839  62.405 -10.839  0.00  0.00     0.002 A 
ATOM     26  C   UNK d   1      15.712  61.070 -10.527  0.00  0.00     0.000 A 
ATOM     27  C   UNK d   1      16.857  60.355 -10.288  0.00  0.00     0.002 A 
ATOM     28  C   UNK d   1      18.111  60.964 -10.360  0.00  0.00     0.030 A 
ENDBRANCH   5  23
TORSDOF 4
ENDMDL
