/Users/jonathanwahrer/Desktop/Msc/3_Semester/Drug_Design_Praktikum/waehrer_HTS_screening/HTS_experiment/out/docking_results/vina_output/3sx0/0666_docked.pdbqt
 OpenBabel03192221573D

 28 31  0  0  0  0  0  0  0  0999 V2000
   21.5620   64.0320  -10.3600 C   0  0  0  0  0  0  0  0  0  0  0  0
   21.7670   63.4090  -11.4820 C   0  0  0  0  0  0  0  0  0  0  0  0
   20.5450   62.6560  -11.7710 C   0  0  0  0  0  0  0  0  0  0  0  0
   20.3900   61.9250  -12.7980 O   0  0  0  0  0  0  0  0  0  0  0  0
   19.5610   62.8580  -10.7460 N   0  0  0  0  0  0  0  0  0  0  0  0
   20.2060   63.7440   -9.8330 C   0  0  0  0  0  0  0  0  0  0  0  0
   19.7100   64.1990   -8.7680 O   0  0  0  0  0  0  0  0  0  0  0  0
   22.4320   64.8920   -9.6480 N   0  0  0  0  0  0  0  0  0  0  0  0
   22.7500   65.7690  -10.0570 H   0  0  0  0  0  0  0  0  0  0  0  0
   22.8480   64.4970   -8.3550 C   0  0  0  0  0  0  0  0  0  0  0  0
   22.4710   65.1900   -7.2470 N   0  0  0  0  0  0  0  0  0  0  0  0
   22.8500   64.8670   -6.0050 C   0  0  0  0  0  3  0  0  0  0  0  0
   23.6630   63.7890   -5.7740 C   0  0  0  0  0  0  0  0  0  0  0  0
   24.2310   63.3060   -4.0140 Br  0  0  0  0  0  0  0  0  0  0  0  0
   24.0820   63.0410   -6.8500 C   0  0  0  0  0  3  0  0  0  0  0  0
   23.6760   63.3960   -8.1080 C   0  0  0  0  0  3  0  0  0  0  0  0
   22.9290   63.4270  -12.3140 N   0  0  0  0  0  0  0  0  0  0  0  0
   24.1490   63.2840  -11.7650 C   0  0  0  0  0  2  0  0  0  0  0  0
   25.3130   63.3060  -12.5530 C   0  0  0  0  0  3  0  0  0  0  0  0
   25.2140   63.4780  -13.9210 C   0  0  0  0  0  3  0  0  0  0  0  0
   23.9540   63.6220  -14.4590 C   0  0  0  0  0  3  0  0  0  0  0  0
   22.8440   63.5940  -13.6560 C   0  0  0  0  0  3  0  0  0  0  0  0
   18.2620   62.2930  -10.6700 C   0  0  0  0  0  0  0  0  0  0  0  0
   17.1140   63.0040  -10.9080 C   0  0  0  0  0  3  0  0  0  0  0  0
   15.8390   62.4050  -10.8390 C   0  0  0  0  0  3  0  0  0  0  0  0
   15.7120   61.0700  -10.5270 C   0  0  0  0  0  3  0  0  0  0  0  0
   16.8570   60.3550  -10.2880 C   0  0  0  0  0  3  0  0  0  0  0  0
   18.1110   60.9640  -10.3600 C   0  0  0  0  0  3  0  0  0  0  0  0
  1  6  1  0  0  0  0
  1  8  1  0  0  0  0
  2  1  2  0  0  0  0
  3  2  1  0  0  0  0
  3  5  1  0  0  0  0
  4  3  2  0  0  0  0
  5 23  1  0  0  0  0
  5  6  1  0  0  0  0
  6  7  2  0  0  0  0
  8 10  1  0  0  0  0
  9  8  1  0  0  0  0
 10 16  2  0  0  0  0
 10 11  1  0  0  0  0
 11 12  2  0  0  0  0
 12 13  1  0  0  0  0
 13 14  1  0  0  0  0
 15 13  2  0  0  0  0
 16 15  1  0  0  0  0
 17 18  1  0  0  0  0
 17  2  1  0  0  0  0
 19 18  1  0  0  0  0
 20 19  2  0  0  0  0
 21 20  1  0  0  0  0
 21 22  2  0  0  0  0
 22 17  1  0  0  0  0
 23 28  1  0  0  0  0
 24 25  1  0  0  0  0
 24 23  2  0  0  0  0
 25 26  2  0  0  0  0
 26 27  1  0  0  0  0
 28 27  2  0  0  0  0
M  END
>  <Pose>
1

>  <Score>
-8.812

$$$$
