MODEL 1
REMARK VINA RESULT:    -8.369      0.000      0.000
REMARK INTER + INTRA:          -9.096
REMARK INTER:                  -9.837
REMARK INTRA:                   0.742
REMARK UNBOUND:                 0.742
REMARK  3 active torsions:
REMARK  status: ('A' for Active; 'I' for Inactive)
REMARK    1  A    between atoms: C_5  and  N_8 
REMARK    2  A    between atoms: C_10  and  C_12 
REMARK    3  A    between atoms: C_12  and  N_13 
ROOT
ATOM      1  C   UNK d   1      23.007  63.986  -9.166  0.00  0.00     0.160 C 
ENDROOT
BRANCH   1   2
ATOM      2  C   UNK d   1      21.533  63.986  -9.422  0.00  0.00     0.043 C 
ATOM      3  C   UNK d   1      21.095  63.411 -10.755  0.00  0.00     0.149 C 
ATOM      4  N   UNK d   1      19.926  62.966 -10.052  0.00  0.00    -0.213 N 
ATOM      5  C   UNK d   1      20.792  62.749  -8.928  0.00  0.00     0.149 C 
BRANCH   4   6
ATOM      6  C   UNK d   1      18.567  62.817 -10.347  0.00  0.00     0.724 A 
ATOM      7  N   UNK d   1      17.759  63.833 -10.719  0.00  0.00    -0.074 NA
ATOM      8  C   UNK d   1      16.469  63.714 -11.004  0.00  0.00     0.157 A 
ATOM      9  C   UNK d   1      15.869  62.477 -10.926  0.00  0.00     0.047 A 
ATOM     10 Br   UNK d   1      14.010  62.274 -11.330  0.00  0.00    -0.048 Br
ATOM     11  C   UNK d   1      16.661  61.414 -10.549  0.00  0.00     0.157 A 
ATOM     12  N   UNK d   1      17.965  61.593 -10.273  0.00  0.00    -0.074 NA
ENDBRANCH   4   6
ENDBRANCH   1   2
BRANCH   1  13
ATOM     13  N   UNK d   1      23.209  64.073  -7.743  0.00  0.00    -0.257 N 
ATOM     14  N   UNK d   1      24.223  63.338  -7.130  0.00  0.00    -0.296 N 
ATOM     15  C   UNK d   1      24.462  63.391  -5.730  0.00  0.00     0.051 A 
ATOM     16  H   UNK d   1      24.821  62.727  -7.759  0.00  0.00     0.187 HD
ATOM     17  C   UNK d   1      25.435  62.675  -5.200  0.00  0.00    -0.051 A 
ATOM     18  C   UNK d   1      23.639  64.229  -4.879  0.00  0.00     0.036 A 
ATOM     19  C   UNK d   1      26.569  61.729  -5.202  0.00  0.00     0.041 A 
ATOM     20  C   UNK d   1      26.163  62.297  -3.926  0.00  0.00     0.041 A 
ATOM     21  C   UNK d   1      22.671  64.935  -5.440  0.00  0.00     0.078 A 
ATOM     22  C   UNK d   1      22.416  64.888  -6.894  0.00  0.00     0.262 A 
ATOM     23  O   UNK d   1      21.487  65.570  -7.403  0.00  0.00    -0.267 OA
ENDBRANCH   1  13
TORSDOF 3
ENDMDL
