/Users/jonathanwahrer/Desktop/Msc/3_Semester/Drug_Design_Praktikum/waehrer_HTS_screening/HTS_experiment/out/docking_results/vina_output/3sx0/0681_docked.pdbqt
 OpenBabel03192221573D

 25 28  0  0  1  0  0  0  0  0999 V2000
   22.5080   63.9600   -8.9090 C   0  0  0  0  0  0  0  0  0  0  0  0
   23.3940   64.1640   -9.7960 O   0  0  0  0  0  0  0  0  0  0  0  0
   21.2030   63.6650   -9.3220 N   0  0  0  0  0  0  0  0  0  0  0  0
   19.9050   63.3560   -8.7830 C   0  0  0  0  0  2  0  0  0  0  0  0
   19.3450   63.0150  -10.1550 C   0  0  2  0  0  3  0  0  0  0  0  0
   20.6300   63.5800  -10.6800 C   0  0  0  0  0  2  0  0  0  0  0  0
   18.1790   63.6730  -10.5410 O   0  0  0  0  0  0  0  0  0  0  0  0
   16.9520   63.0860  -10.7750 C   0  0  2  0  0  3  0  0  0  0  0  0
   15.9430   63.8230  -11.2300 C   0  0  0  0  0  3  0  0  0  0  0  0
   14.6250   63.2610  -11.4970 C   0  0  0  0  0  0  0  0  0  0  0  0
   13.6440   64.0230  -11.9500 C   0  0  0  0  0  1  0  0  0  0  0  0
   14.4400   61.8740  -11.2510 N   0  0  0  0  0  0  0  0  0  0  0  0
   15.5480   61.1040  -10.7580 C   0  0  0  0  0  0  0  0  0  0  0  0
   13.5090   61.4650  -11.4370 H   0  0  0  0  0  0  0  0  0  0  0  0
   16.7370   61.6810  -10.5330 N   0  0  0  0  0  0  0  0  0  0  0  0
   15.6610   59.8110  -10.4400 N   0  0  0  0  0  0  0  0  0  0  0  0
   17.5850   60.7530  -10.0780 N   0  0  0  0  0  0  0  0  0  0  0  0
   16.9130   59.5990  -10.0230 C   0  0  0  0  0  3  0  0  0  0  0  0
   22.9020   64.0460   -7.5250 C   0  0  0  0  0  0  0  0  0  0  0  0
   22.2730   64.7630   -6.5390 C   0  0  0  0  0  3  0  0  0  0  0  0
   22.7070   64.7850   -5.2450 N   0  0  0  0  0  0  0  0  0  0  0  0
   23.7850   64.1040   -4.8390 C   0  0  0  0  0  3  0  0  0  0  0  0
   24.4580   63.3640   -5.7840 C   0  0  0  0  0  0  0  0  0  0  0  0
   26.0110   62.3730   -5.2360 Br  0  0  0  0  0  0  0  0  0  0  0  0
   24.0340   63.3340   -7.0880 C   0  0  0  0  0  3  0  0  0  0  0  0
  1 19  1  0  0  0  0
  2  1  2  0  0  0  0
  3  1  1  0  0  0  0
  3  4  1  0  0  0  0
  5  7  1  6  0  0  0
  5  4  1  0  0  0  0
  6  5  1  0  0  0  0
  6  3  1  0  0  0  0
  8  7  1  1  0  0  0
  8 15  1  0  0  0  0
  9  8  1  0  0  0  0
 10 12  1  0  0  0  0
 10  9  2  0  0  0  0
 11 10  1  0  0  0  0
 12 13  1  0  0  0  0
 13 15  1  0  0  0  0
 13 16  2  0  0  0  0
 14 12  1  0  0  0  0
 15 17  1  0  0  0  0
 16 18  1  0  0  0  0
 17 18  2  0  0  0  0
 19 25  2  0  0  0  0
 19 20  1  0  0  0  0
 20 21  2  0  0  0  0
 21 22  1  0  0  0  0
 23 24  1  0  0  0  0
 23 22  2  0  0  0  0
 25 23  1  0  0  0  0
M  END
>  <Pose>
1

>  <Score>
-9.702

$$$$
