MODEL 1
REMARK VINA RESULT:    -5.287      0.000      0.000
REMARK INTER + INTRA:          -5.623
REMARK INTER:                  -5.596
REMARK INTRA:                  -0.027
REMARK UNBOUND:                -0.027
REMARK  2 active torsions:
REMARK  status: ('A' for Active; 'I' for Inactive)
REMARK    1  A    between atoms: C_6  and  C_8 
REMARK    2  A    between atoms: C_21  and  N_22 
ROOT
ATOM      1 Br   UNK d   1      23.738  63.171 -11.149  0.00  0.00    -0.050 Br
ATOM      2  C   UNK d   1      22.678  63.586  -9.642  0.00  0.00     0.029 A 
ATOM      3  C   UNK d   1      21.327  63.282  -9.646  0.00  0.00     0.135 A 
ATOM      4  N   UNK d   1      20.617  63.596  -8.552  0.00  0.00    -0.271 NA
ATOM      5  C   UNK d   1      21.137  64.184  -7.464  0.00  0.00     0.134 A 
ATOM      6  C   UNK d   1      22.477  64.482  -7.468  0.00  0.00     0.059 A 
ATOM      7  C   UNK d   1      23.280  64.190  -8.558  0.00  0.00     0.040 A 
ENDROOT
BRANCH   6   8
ATOM      8  C   UNK d   1      23.078  65.119  -6.307  0.00  0.00     0.210 C 
ATOM      9  O   UNK d   1      23.331  64.448  -5.266  0.00  0.00    -0.644 OA
ATOM     10  O   UNK d   1      23.387  66.467  -6.303  0.00  0.00    -0.644 OA
ENDBRANCH   6   8
TORSDOF 2
ENDMDL
