/Users/jonathanwahrer/Desktop/Msc/3_Semester/Drug_Design_Praktikum/waehrer_HTS_screening/HTS_experiment/out/docking_results/vina_output/3sx0/0683_docked.pdbqt
 OpenBabel03192221573D

 10 10  0  0  0  0  0  0  0  0999 V2000
   23.7380   63.1710  -11.1490 Br  0  0  0  0  0  0  0  0  0  0  0  0
   22.6780   63.5860   -9.6420 C   0  0  0  0  0  0  0  0  0  0  0  0
   21.3270   63.2820   -9.6460 C   0  0  0  0  0  3  0  0  0  0  0  0
   20.6170   63.5960   -8.5520 N   0  0  0  0  0  0  0  0  0  0  0  0
   21.1370   64.1840   -7.4640 C   0  0  0  0  0  3  0  0  0  0  0  0
   22.4770   64.4820   -7.4680 C   0  0  0  0  0  0  0  0  0  0  0  0
   23.2800   64.1900   -8.5580 C   0  0  0  0  0  3  0  0  0  0  0  0
   23.0780   65.1190   -6.3070 C   0  0  0  0  0  0  0  0  0  0  0  0
   23.3310   64.4480   -5.2660 O   0  0  0  0  0  1  0  0  0  0  0  0
   23.3870   66.4670   -6.3030 O   0  0  0  0  0  0  0  0  0  0  0  0
  1  2  1  0  0  0  0
  2  7  1  0  0  0  0
  3  2  2  0  0  0  0
  3  4  1  0  0  0  0
  4  5  2  0  0  0  0
  6  5  1  0  0  0  0
  6  8  1  0  0  0  0
  7  6  2  0  0  0  0
  8 10  2  0  0  0  0
  8  9  1  0  0  0  0
M  END
>  <Pose>
1

>  <Score>
-5.287

$$$$
