/Users/jonathanwahrer/Desktop/Msc/3_Semester/Drug_Design_Praktikum/waehrer_HTS_screening/HTS_experiment/out/docking_results/vina_output/3sx0/0684_docked.pdbqt
 OpenBabel03192221573D

 10 10  0  0  0  0  0  0  0  0999 V2000
   23.7470   63.2190  -11.0430 Br  0  0  0  0  0  0  0  0  0  0  0  0
   22.6820   63.6100   -9.5120 C   0  0  0  0  0  0  0  0  0  0  0  0
   21.3510   63.2580   -9.4370 C   0  0  0  0  0  3  0  0  0  0  0  0
   20.5940   63.5310   -8.3600 N   0  0  0  0  0  0  0  0  0  0  0  0
   21.1550   64.1680   -7.3220 C   0  0  0  0  0  3  0  0  0  0  0  0
   22.4770   64.5520   -7.3190 C   0  0  0  0  0  0  0  0  0  0  0  0
   23.2270   64.2620   -8.4290 C   0  0  0  0  0  3  0  0  0  0  0  0
   23.0730   65.2440   -6.1820 C   0  0  0  0  0  0  0  0  0  0  0  0
   23.3030   64.6100   -5.1230 O   0  0  0  0  0  1  0  0  0  0  0  0
   23.3690   66.5920   -6.3130 O   0  0  0  0  0  0  0  0  0  0  0  0
  1  2  1  0  0  0  0
  2  3  2  0  0  0  0
  2  7  1  0  0  0  0
  3  4  1  0  0  0  0
  4  5  2  0  0  0  0
  5  6  1  0  0  0  0
  6  8  1  0  0  0  0
  7  6  2  0  0  0  0
  8  9  1  0  0  0  0
 10  8  2  0  0  0  0
M  END
>  <Pose>
1

>  <Score>
-5.434

$$$$
