MODEL 1
REMARK VINA RESULT:    -5.434      0.000      0.000
REMARK INTER + INTRA:          -5.779
REMARK INTER:                  -5.752
REMARK INTRA:                  -0.027
REMARK UNBOUND:                -0.027
REMARK  2 active torsions:
REMARK  status: ('A' for Active; 'I' for Inactive)
REMARK    1  A    between atoms: C_6  and  C_8 
REMARK    2  A    between atoms: C_20  and  N_21 
ROOT
ATOM      1 Br   UNK d   1      23.747  63.219 -11.043  0.00  0.00    -0.050 Br
ATOM      2  C   UNK d   1      22.682  63.610  -9.512  0.00  0.00     0.029 A 
ATOM      3  C   UNK d   1      21.351  63.258  -9.437  0.00  0.00     0.135 A 
ATOM      4  N   UNK d   1      20.594  63.531  -8.360  0.00  0.00    -0.271 NA
ATOM      5  C   UNK d   1      21.155  64.168  -7.322  0.00  0.00     0.134 A 
ATOM      6  C   UNK d   1      22.477  64.552  -7.319  0.00  0.00     0.059 A 
ATOM      7  C   UNK d   1      23.227  64.262  -8.429  0.00  0.00     0.040 A 
ENDROOT
BRANCH   6   8
ATOM      8  C   UNK d   1      23.073  65.244  -6.182  0.00  0.00     0.210 C 
ATOM      9  O   UNK d   1      23.303  64.610  -5.123  0.00  0.00    -0.644 OA
ATOM     10  O   UNK d   1      23.369  66.592  -6.313  0.00  0.00    -0.644 OA
ENDBRANCH   6   8
TORSDOF 2
ENDMDL
