MODEL 1
REMARK VINA RESULT:    -6.369      0.000      0.000
REMARK INTER + INTRA:          -8.613
REMARK INTER:                  -7.859
REMARK INTRA:                  -0.755
REMARK UNBOUND:                -0.755
REMARK  4 active torsions:
REMARK  status: ('A' for Active; 'I' for Inactive)
REMARK    1  A    between atoms: C_11  and  C_14 
REMARK    2  A    between atoms: C_11  and  C_21 
REMARK    3  A    between atoms: C_14  and  N_15 
REMARK    4  A    between atoms: C_21  and  N_22 
ROOT
ATOM      1 Br   UNK d   1      23.746  63.122 -11.672  0.00  0.00    -0.048 Br
ATOM      2  C   UNK d   1      22.273  63.405 -10.506  0.00  0.00     0.046 A 
ATOM      3  C   UNK d   1      22.503  63.622  -9.161  0.00  0.00     0.100 A 
ATOM      4  C   UNK d   1      21.460  63.836  -8.246  0.00  0.00     0.047 A 
ATOM      5  C   UNK d   1      20.164  63.831  -8.699  0.00  0.00     0.037 A 
ATOM      6  C   UNK d   1      19.928  63.615 -10.043  0.00  0.00     0.013 A 
ATOM      7  C   UNK d   1      20.951  63.404 -10.941  0.00  0.00     0.041 A 
ATOM      8 Br   UNK d   1      18.143  63.602 -10.704  0.00  0.00    -0.051 Br
ATOM      9  C   UNK d   1      21.752  64.046  -6.834  0.00  0.00     0.176 C 
ATOM     10  O   UNK d   1      20.811  63.789  -6.034  0.00  0.00    -0.291 OA
ATOM     11  C   UNK d   1      23.048  64.524  -6.364  0.00  0.00     0.095 C 
ATOM     12  C   UNK d   1      24.022  64.578  -7.571  0.00  0.00     0.197 C 
ATOM     13  O   UNK d   1      23.750  63.655  -8.561  0.00  0.00    -0.347 OA
ENDROOT
BRANCH  11  14
ATOM     14  C   UNK d   1      23.115  65.867  -5.797  0.00  0.00     0.256 C 
BRANCH  14  15
ATOM     15  N   UNK d   1      22.912  67.066  -6.469  0.00  0.00    -0.070 N 
ATOM     16  C   UNK d   1      23.373  68.302  -5.919  0.00  0.00     0.235 C 
ATOM     17  C   UNK d   1      23.555  69.264  -7.122  0.00  0.00     0.028 C 
ATOM     18  C   UNK d   1      22.149  69.636  -7.545  0.00  0.00     0.003 C 
ATOM     19  C   UNK d   1      21.123  68.669  -6.997  0.00  0.00     0.028 C 
ATOM     20  C   UNK d   1      21.601  67.235  -7.079  0.00  0.00     0.235 C 
ATOM     21  H   UNK d   1      23.546  66.971  -7.346  0.00  0.00     0.279 HD
ENDBRANCH  14  15
ENDBRANCH  11  14
BRANCH  11  22
ATOM     22  C   UNK d   1      23.580  63.514  -5.360  0.00  0.00     0.256 C 
BRANCH  22  23
ATOM     23  N   UNK d   1      24.497  64.094  -4.410  0.00  0.00    -0.070 N 
ATOM     24  C   UNK d   1      25.805  63.491  -4.626  0.00  0.00     0.235 C 
ATOM     25  C   UNK d   1      25.673  62.005  -4.566  0.00  0.00     0.028 C 
ATOM     26  C   UNK d   1      25.021  61.478  -3.341  0.00  0.00     0.003 C 
ATOM     27  C   UNK d   1      23.932  62.324  -2.778  0.00  0.00     0.028 C 
ATOM     28  C   UNK d   1      24.189  63.794  -3.024  0.00  0.00     0.235 C 
ATOM     29  H   UNK d   1      24.526  65.126  -4.487  0.00  0.00     0.279 HD
ENDBRANCH  22  23
ENDBRANCH  11  22
TORSDOF 4
ENDMDL
