/Users/jonathanwahrer/Desktop/Msc/3_Semester/Drug_Design_Praktikum/waehrer_HTS_screening/HTS_experiment/out/docking_results/vina_output/3sx0/0692_docked.pdbqt
 OpenBabel03192221573D

 29 32  0  0  0  0  0  0  0  0999 V2000
   23.7460   63.1220  -11.6720 Br  0  0  0  0  0  0  0  0  0  0  0  0
   22.2730   63.4050  -10.5060 C   0  0  0  0  0  0  0  0  0  0  0  0
   22.5030   63.6220   -9.1610 C   0  0  0  0  0  0  0  0  0  0  0  0
   21.4600   63.8360   -8.2460 C   0  0  0  0  0  0  0  0  0  0  0  0
   20.1640   63.8310   -8.6990 C   0  0  0  0  0  3  0  0  0  0  0  0
   19.9280   63.6150  -10.0430 C   0  0  0  0  0  0  0  0  0  0  0  0
   20.9510   63.4040  -10.9410 C   0  0  0  0  0  3  0  0  0  0  0  0
   18.1430   63.6020  -10.7040 Br  0  0  0  0  0  0  0  0  0  0  0  0
   21.7520   64.0460   -6.8340 C   0  0  0  0  0  0  0  0  0  0  0  0
   20.8110   63.7890   -6.0340 O   0  0  0  0  0  0  0  0  0  0  0  0
   23.0480   64.5240   -6.3640 C   0  0  0  0  0  0  0  0  0  0  0  0
   24.0220   64.5780   -7.5710 C   0  0  0  0  0  2  0  0  0  0  0  0
   23.7500   63.6550   -8.5610 O   0  0  0  0  0  0  0  0  0  0  0  0
   23.1150   65.8670   -5.7970 C   0  0  0  0  0  2  0  0  0  0  0  0
   22.9120   67.0660   -6.4690 N   0  0  0  0  0  4  0  0  0  0  0  0
   23.3730   68.3020   -5.9190 C   0  0  0  0  0  2  0  0  0  0  0  0
   23.5550   69.2640   -7.1220 C   0  0  0  0  0  2  0  0  0  0  0  0
   22.1490   69.6360   -7.5450 C   0  0  0  0  0  2  0  0  0  0  0  0
   21.1230   68.6690   -6.9970 C   0  0  0  0  0  2  0  0  0  0  0  0
   21.6010   67.2350   -7.0790 C   0  0  0  0  0  2  0  0  0  0  0  0
   23.5460   66.9710   -7.3460 H   0  0  0  0  0  0  0  0  0  0  0  0
   23.5800   63.5140   -5.3600 C   0  0  0  0  0  2  0  0  0  0  0  0
   24.4970   64.0940   -4.4100 N   0  0  0  0  0  4  0  0  0  0  0  0
   25.8050   63.4910   -4.6260 C   0  0  0  0  0  2  0  0  0  0  0  0
   25.6730   62.0050   -4.5660 C   0  0  0  0  0  2  0  0  0  0  0  0
   25.0210   61.4780   -3.3410 C   0  0  0  0  0  2  0  0  0  0  0  0
   23.9320   62.3240   -2.7780 C   0  0  0  0  0  2  0  0  0  0  0  0
   24.1890   63.7940   -3.0240 C   0  0  0  0  0  2  0  0  0  0  0  0
   24.5260   65.1260   -4.4870 H   0  0  0  0  0  0  0  0  0  0  0  0
  1  2  1  0  0  0  0
  2  3  1  0  0  0  0
  3 13  1  0  0  0  0
  3  4  2  0  0  0  0
  4  9  1  0  0  0  0
  5  4  1  0  0  0  0
  6  5  2  0  0  0  0
  7  2  2  0  0  0  0
  7  6  1  0  0  0  0
  8  6  1  0  0  0  0
  9 11  1  0  0  0  0
  9 10  2  0  0  0  0
 11 14  1  0  0  0  0
 11 22  1  0  0  0  0
 12 11  1  0  0  0  0
 13 12  1  0  0  0  0
 15 16  1  0  0  0  0
 15 14  1  0  0  0  0
 17 16  1  0  0  0  0
 18 17  1  0  0  0  0
 18 19  1  0  0  0  0
 20 19  1  0  0  0  0
 20 15  1  0  0  0  0
 21 15  1  0  0  0  0
 22 23  1  0  0  0  0
 23 28  1  0  0  0  0
 24 25  1  0  0  0  0
 24 23  1  0  0  0  0
 25 26  1  0  0  0  0
 26 27  1  0  0  0  0
 28 27  1  0  0  0  0
 29 23  1  0  0  0  0
M  END
>  <Pose>
1

>  <Score>
-6.369

$$$$
