MODEL 1
REMARK VINA RESULT:    -9.332      0.000      0.000
REMARK INTER + INTRA:         -12.106
REMARK INTER:                 -11.514
REMARK INTRA:                  -0.591
REMARK UNBOUND:                -0.591
REMARK  4 active torsions:
REMARK  status: ('A' for Active; 'I' for Inactive)
REMARK    1  A    between atoms: N_10  and  N_11 
REMARK       I    between atoms: N_11  and  C_12 
REMARK    2  A    between atoms: C_12  and  C_14 
REMARK    3  A    between atoms: C_14  and  N_15 
REMARK       I    between atoms: N_15  and  C_16 
REMARK    4  A    between atoms: C_16  and  C_18 
ROOT
ATOM      1  N   UNK d   1      16.961  63.478 -10.070  0.00  0.00    -0.245 N 
ATOM      2  C   UNK d   1      18.304  63.235 -10.434  0.00  0.00     0.255 C 
ATOM      3  O   UNK d   1      18.731  63.592 -11.551  0.00  0.00    -0.270 OA
ATOM      4  H   UNK d   1      16.537  63.208  -9.157  0.00  0.00     0.192 HD
ENDROOT
BRANCH   2   5
ATOM      5  C   UNK d   1      19.270  62.551  -9.518  0.00  0.00     0.227 C 
BRANCH   5   6
ATOM      6  N   UNK d   1      20.000  63.488  -8.709  0.00  0.00    -0.350 N 
ATOM      7  C   UNK d   1      21.401  63.691  -8.835  0.00  0.00     0.249 C 
ATOM      8  O   UNK d   1      22.022  63.022  -9.690  0.00  0.00    -0.271 OA
ATOM      9  H   UNK d   1      19.519  64.069  -7.983  0.00  0.00     0.163 HD
BRANCH   7  10
ATOM     10  C   UNK d   1      22.173  64.658  -8.000  0.00  0.00     0.244 C 
ATOM     11  O   UNK d   1      23.461  64.195  -7.720  0.00  0.00    -0.331 OA
ATOM     12  C   UNK d   1      23.902  63.778  -6.467  0.00  0.00     0.103 A 
ATOM     13  C   UNK d   1      23.168  64.182  -5.383  0.00  0.00     0.102 A 
ATOM     14  C   UNK d   1      25.011  63.005  -6.288  0.00  0.00     0.040 A 
ATOM     15  C   UNK d   1      23.587  63.779  -4.115  0.00  0.00     0.039 A 
ATOM     16  O   UNK d   1      22.057  64.957  -5.567  0.00  0.00    -0.345 OA
ATOM     17  C   UNK d   1      24.704  62.999  -3.919  0.00  0.00     0.003 A 
ATOM     18  C   UNK d   1      25.420  62.611  -5.035  0.00  0.00     0.003 A 
ATOM     19  C   UNK d   1      21.414  65.112  -6.802  0.00  0.00     0.218 C 
ENDBRANCH   7  10
ENDBRANCH   5   6
ENDBRANCH   2   5
BRANCH   1  20
ATOM     20  N   UNK d   1      16.135  64.121 -10.997  0.00  0.00    -0.166 NA
ATOM     21  C   UNK d   1      15.153  63.538 -11.574  0.00  0.00     0.157 A 
ATOM     22  C   UNK d   1      14.201  64.044 -12.552  0.00  0.00     0.029 A 
ATOM     23  C   UNK d   1      14.774  62.140 -11.341  0.00  0.00     0.277 A 
ATOM     24  C   UNK d   1      13.292  63.066 -12.916  0.00  0.00     0.065 A 
ATOM     25  C   UNK d   1      14.054  65.275 -13.154  0.00  0.00     0.035 A 
ATOM     26  C   UNK d   1      12.288  63.299 -13.833  0.00  0.00     0.040 A 
ATOM     27  N   UNK d   1      13.652  61.908 -12.170  0.00  0.00    -0.320 N 
ATOM     28 Br   UNK d   1      11.041  61.934 -14.328  0.00  0.00    -0.049 Br
ATOM     29  C   UNK d   1      12.163  64.555 -14.427  0.00  0.00     0.040 A 
ATOM     30  C   UNK d   1      13.065  65.545 -14.073  0.00  0.00     0.013 A 
ATOM     31 Br   UNK d   1      12.916  67.275 -14.874  0.00  0.00    -0.051 Br
ATOM     32  H   UNK d   1      13.151  61.005 -12.230  0.00  0.00     0.169 HD
ATOM     33  O   UNK d   1      15.379  61.371 -10.546  0.00  0.00    -0.266 OA
ENDBRANCH   1  20
TORSDOF 4
ENDMDL
