/Users/jonathanwahrer/Desktop/Msc/3_Semester/Drug_Design_Praktikum/waehrer_HTS_screening/HTS_experiment/out/docking_results/vina_output/3sx0/0696_docked.pdbqt
 OpenBabel03192221583D

 28 31  0  0  1  0  0  0  0  0999 V2000
   15.8710   65.1830  -10.4780 Br  0  0  0  0  0  0  0  0  0  0  0  0
   16.7220   63.4880  -10.4180 C   0  0  0  0  0  0  0  0  0  0  0  0
   18.1170   63.4260  -10.3000 C   0  0  0  0  0  0  0  0  0  0  0  0
   18.7810   62.2390  -10.2440 C   0  0  0  0  0  0  0  0  0  0  0  0
   18.0490   61.0670  -10.3080 C   0  0  0  0  0  3  0  0  0  0  0  0
   16.6640   61.1180  -10.4250 C   0  0  0  0  0  0  0  0  0  0  0  0
   15.9950   62.3190  -10.4800 C   0  0  0  0  0  3  0  0  0  0  0  0
   15.8390   59.8790  -10.4960 C   0  0  0  0  0  1  0  0  0  0  0  0
   20.2600   62.1990  -10.0770 C   0  0  1  0  0  3  0  0  0  0  0  0
   21.0280   63.3310  -10.6590 C   0  0  0  0  0  0  0  0  0  0  0  0
   20.0900   64.4970  -11.0520 C   0  0  0  0  0  2  0  0  0  0  0  0
   18.9320   64.5470  -10.2350 O   0  0  0  0  0  0  0  0  0  0  0  0
   21.6910   62.9800  -11.9770 C   0  0  0  0  0  2  0  0  0  0  0  0
   23.0080   63.5520  -12.1610 N   0  0  0  0  0  4  0  0  0  0  0  0
   23.3050   63.6440  -13.5900 C   0  0  0  0  0  2  0  0  0  0  0  0
   24.7810   63.6600  -13.7450 C   0  0  0  0  0  2  0  0  0  0  0  0
   25.2930   63.3430  -12.3800 C   0  0  0  0  0  2  0  0  0  0  0  0
   24.0760   62.6560  -11.7490 C   0  0  0  0  0  2  0  0  0  0  0  0
   23.1730   64.4480  -11.6810 H   0  0  0  0  0  0  0  0  0  0  0  0
   21.9590   63.9480   -9.6850 C   0  0  0  0  0  2  0  0  0  0  0  0
   22.0080   63.8350   -8.3210 N   0  0  0  0  0  4  0  0  0  0  0  0
   23.3680   63.4370   -7.8890 C   0  0  0  0  0  2  0  0  0  0  0  0
   23.6090   64.0990   -6.5890 C   0  0  0  0  0  2  0  0  0  0  0  0
   22.7210   65.2820   -6.5430 C   0  0  0  0  0  2  0  0  0  0  0  0
   21.6070   64.9180   -7.5220 C   0  0  0  0  0  2  0  0  0  0  0  0
   21.4620   62.9290   -7.9730 H   0  0  0  0  0  0  0  0  0  0  0  0
   20.4020   62.0830   -8.6660 O   0  0  0  0  0  0  0  0  0  0  0  0
   19.5700   62.2900   -8.2080 H   0  0  0  0  0  0  0  0  0  0  0  0
  1  2  1  0  0  0  0
  2  3  1  0  0  0  0
  3  4  2  0  0  0  0
  3 12  1  0  0  0  0
  4  9  1  0  0  0  0
  5  4  1  0  0  0  0
  6  5  2  0  0  0  0
  7  6  1  0  0  0  0
  7  2  2  0  0  0  0
  8  6  1  0  0  0  0
  9 27  1  1  0  0  0
 10  9  1  0  0  0  0
 10 20  1  0  0  0  0
 11 10  1  0  0  0  0
 11 12  1  0  0  0  0
 13 10  1  0  0  0  0
 14 13  1  0  0  0  0
 14 18  1  0  0  0  0
 14 19  1  0  0  0  0
 15 14  1  0  0  0  0
 16 15  1  0  0  0  0
 16 17  1  0  0  0  0
 17 18  1  0  0  0  0
 20 21  1  0  0  0  0
 21 26  1  0  0  0  0
 21 22  1  0  0  0  0
 21 25  1  0  0  0  0
 22 23  1  0  0  0  0
 23 24  1  0  0  0  0
 25 24  1  0  0  0  0
 27 28  1  0  0  0  0
M  END
>  <Pose>
1

>  <Score>
-7.275

$$$$
