/Users/jonathanwahrer/Desktop/Msc/3_Semester/Drug_Design_Praktikum/waehrer_HTS_screening/HTS_experiment/out/docking_results/vina_output/3sx0/0699_docked.pdbqt
 OpenBabel03192221583D

 32 35  0  0  1  0  0  0  0  0999 V2000
   19.6230   62.5300  -11.3060 C   0  0  2  0  0  3  0  0  0  0  0  0
   19.2020   61.5770  -10.2150 C   0  0  0  0  0  2  0  0  0  0  0  0
   18.1270   62.0870   -9.4500 O   0  0  0  0  0  0  0  0  0  0  0  0
   17.1120   62.7600  -10.1280 C   0  0  0  0  0  0  0  0  0  0  0  0
   16.0650   62.0880  -10.7260 C   0  0  0  0  0  0  0  0  0  0  0  0
   16.0360   60.1890  -10.6000 Br  0  0  0  0  0  0  0  0  0  0  0  0
   15.0500   62.7360  -11.4020 C   0  0  0  0  0  0  0  0  0  0  0  0
   15.0450   64.1110  -11.5090 C   0  0  0  0  0  0  0  0  0  0  0  0
   14.0030   62.0560  -11.9990 C   0  0  0  0  0  3  0  0  0  0  0  0
   16.0880   64.7920  -10.9150 C   0  0  0  0  0  3  0  0  0  0  0  0
   14.0270   64.7610  -12.1870 C   0  0  0  0  0  3  0  0  0  0  0  0
   17.0980   64.1360  -10.2400 C   0  0  0  0  0  3  0  0  0  0  0  0
   12.9830   64.0810  -12.7810 C   0  0  0  0  0  3  0  0  0  0  0  0
   12.9880   62.7040  -12.6760 C   0  0  0  0  0  3  0  0  0  0  0  0
   20.0280   61.8940  -12.4500 O   0  0  0  0  0  0  0  0  0  0  0  0
   20.9920   61.8680  -12.5890 H   0  0  0  0  0  0  0  0  0  0  0  0
   20.6380   63.4970  -10.8030 C   0  0  0  0  0  2  0  0  0  0  0  0
   21.4120   63.0050   -9.6840 N   0  0  0  0  0  4  0  0  0  0  0  0
   20.8630   63.6220   -8.4900 C   0  0  0  0  0  2  0  0  0  0  0  0
   21.7520   63.3840   -7.2600 C   0  0  0  0  0  2  0  0  0  0  0  0
   23.0500   63.8880   -7.5300 N   0  0  0  0  0  0  0  0  0  0  0  0
   23.2320   64.4320   -8.8920 C   0  0  0  0  0  2  0  0  0  0  0  0
   24.1180   63.9000   -6.6250 C   0  0  0  0  0  0  0  0  0  0  0  0
   22.8010   63.3950   -9.8750 C   0  0  0  0  0  2  0  0  0  0  0  0
   25.2220   64.4250   -7.1300 O   0  0  0  0  0  0  0  0  0  0  0  0
   21.3610   61.9720   -9.5590 H   0  0  0  0  0  0  0  0  0  0  0  0
   24.2380   63.4560   -5.2750 C   0  0  0  0  0  0  0  0  0  0  0  0
   23.4220   63.7840   -4.2290 C   0  0  0  0  0  3  0  0  0  0  0  0
   23.5960   63.3150   -2.9340 C   0  0  0  0  0  3  0  0  0  0  0  0
   24.6250   62.4770   -2.6450 C   0  0  0  0  0  3  0  0  0  0  0  0
   25.4670   62.1270   -3.6800 C   0  0  0  0  0  3  0  0  0  0  0  0
   25.2960   62.5910   -4.9600 C   0  0  0  0  0  3  0  0  0  0  0  0
  1 17  1  1  0  0  0
  1  2  1  0  0  0  0
  2  3  1  0  0  0  0
  4  3  1  0  0  0  0
  5  6  1  0  0  0  0
  5  4  2  0  0  0  0
  7  5  1  0  0  0  0
  8  7  1  0  0  0  0
  8 10  1  0  0  0  0
  9  7  2  0  0  0  0
 10 12  2  0  0  0  0
 11  8  2  0  0  0  0
 12  4  1  0  0  0  0
 13 14  2  0  0  0  0
 13 11  1  0  0  0  0
 14  9  1  0  0  0  0
 15  1  1  0  0  0  0
 16 15  1  0  0  0  0
 17 18  1  0  0  0  0
 18 26  1  0  0  0  0
 18 19  1  0  0  0  0
 19 20  1  0  0  0  0
 21 20  1  0  0  0  0
 21 23  1  0  0  0  0
 22 21  1  0  0  0  0
 23 27  1  0  0  0  0
 24 18  1  0  0  0  0
 24 22  1  0  0  0  0
 25 23  2  0  0  0  0
 27 32  2  0  0  0  0
 27 28  1  0  0  0  0
 28 29  2  0  0  0  0
 29 30  1  0  0  0  0
 31 30  2  0  0  0  0
 32 31  1  0  0  0  0
M  END
>  <Pose>
1

>  <Score>
-9.240

$$$$
