MODEL 1
REMARK VINA RESULT:    -7.066      0.000      0.000
REMARK INTER + INTRA:          -9.430
REMARK INTER:                  -8.719
REMARK INTRA:                  -0.712
REMARK UNBOUND:                -0.712
REMARK  4 active torsions:
REMARK  status: ('A' for Active; 'I' for Inactive)
REMARK    1  A    between atoms: N_3  and  C_14 
REMARK    2  A    between atoms: C_14  and  C_15 
REMARK    3  A    between atoms: C_15  and  C_16 
REMARK    4  A    between atoms: C_16  and  N_17 
ROOT
ATOM      1  C   UNK d   1      19.997  63.348 -10.087  0.00  0.00     0.041 C 
ENDROOT
BRANCH   1   2
ATOM      2  C   UNK d   1      18.788  63.244  -9.204  0.00  0.00     0.133 C 
BRANCH   2   3
ATOM      3  N   UNK d   1      17.620  62.704  -9.868  0.00  0.00    -0.318 N 
ATOM      4  C   UNK d   1      17.367  61.371 -10.042  0.00  0.00     0.180 A 
ATOM      5 Br   UNK d   1      18.531  60.007  -9.400  0.00  0.00    -0.008 Br
ATOM      6  N   UNK d   1      16.216  61.200 -10.707  0.00  0.00    -0.203 NA
ATOM      7  C   UNK d   1      15.688  62.411 -10.986  0.00  0.00     0.169 A 
ATOM      8  C   UNK d   1      16.580  63.329 -10.455  0.00  0.00     0.152 A 
ATOM      9  N   UNK d   1      14.559  62.743 -11.636  0.00  0.00    -0.286 N 
ATOM     10  C   UNK d   1      16.290  64.650 -10.607  0.00  0.00     0.280 A 
ATOM     11  N   UNK d   1      15.145  64.983 -11.267  0.00  0.00    -0.273 N 
ATOM     12  O   UNK d   1      17.059  65.520 -10.151  0.00  0.00    -0.265 OA
ATOM     13  C   UNK d   1      14.305  64.057 -11.766  0.00  0.00     0.330 A 
ATOM     14  H   UNK d   1      14.962  66.005 -11.359  0.00  0.00     0.173 HD
ATOM     15  O   UNK d   1      13.244  64.424 -12.375  0.00  0.00    -0.246 OA
ATOM     16  C   UNK d   1      13.633  61.777 -12.187  0.00  0.00     0.163 C 
ENDBRANCH   2   3
ENDBRANCH   1   2
BRANCH   1  17
ATOM     17  C   UNK d   1      20.902  64.506  -9.777  0.00  0.00     0.133 C 
BRANCH  17  18
ATOM     18  N   UNK d   1      22.073  64.042  -9.047  0.00  0.00    -0.318 N 
ATOM     19  C   UNK d   1      22.334  64.147  -7.724  0.00  0.00     0.152 A 
ATOM     20  C   UNK d   1      23.552  63.579  -7.431  0.00  0.00     0.169 A 
ATOM     21  C   UNK d   1      21.620  64.696  -6.691  0.00  0.00     0.280 A 
ATOM     22  N   UNK d   1      24.031  63.125  -8.605  0.00  0.00    -0.203 NA
ATOM     23  N   UNK d   1      24.077  63.535  -6.193  0.00  0.00    -0.286 N 
ATOM     24  C   UNK d   1      23.133  63.408  -9.574  0.00  0.00     0.180 A 
ATOM     25 Br   UNK d   1      23.288  62.995 -11.432  0.00  0.00    -0.008 Br
ATOM     26  C   UNK d   1      23.336  64.090  -5.202  0.00  0.00     0.330 A 
ATOM     27  C   UNK d   1      25.376  62.921  -5.930  0.00  0.00     0.163 C 
ATOM     28  O   UNK d   1      23.827  64.049  -4.033  0.00  0.00    -0.246 OA
ATOM     29  N   UNK d   1      22.136  64.657  -5.446  0.00  0.00    -0.273 N 
ATOM     30  H   UNK d   1      21.613  65.067  -4.647  0.00  0.00     0.173 HD
ATOM     31  O   UNK d   1      20.508  65.215  -6.951  0.00  0.00    -0.265 OA
ENDBRANCH  17  18
ENDBRANCH   1  17
TORSDOF 4
ENDMDL
