/Users/jonathanwahrer/Desktop/Msc/3_Semester/Drug_Design_Praktikum/waehrer_HTS_screening/HTS_experiment/out/docking_results/vina_output/3sx0/0709_docked.pdbqt
 OpenBabel03192221593D

 30 33  0  0  0  0  0  0  0  0999 V2000
   23.7690   64.4400   -8.0960 C   0  0  0  0  0  2  0  0  0  0  0  0
   23.6100   64.3840   -6.6830 N   0  0  0  0  0  0  0  0  0  0  0  0
   22.7930   65.1830   -5.9570 C   0  0  0  0  0  0  0  0  0  0  0  0
   21.6870   66.5270   -6.7430 Br  0  0  0  0  0  0  0  0  0  0  0  0
   22.9030   64.8660   -4.6580 N   0  0  0  0  0  0  0  0  0  0  0  0
   23.7910   63.8580   -4.5030 C   0  0  0  0  0  0  0  0  0  0  0  0
   24.2250   63.5690   -5.7940 C   0  0  0  0  0  0  0  0  0  0  0  0
   24.2670   63.1810   -3.4430 N   0  0  0  0  0  0  0  0  0  0  0  0
   25.1570   62.5660   -5.9050 C   0  0  0  0  0  0  0  0  0  0  0  0
   25.6350   61.8860   -4.8300 N   0  0  0  0  0  0  0  0  0  0  0  0
   25.5650   62.2950   -7.0720 O   0  0  0  0  0  0  0  0  0  0  0  0
   25.1780   62.2060   -3.6060 C   0  0  0  0  0  0  0  0  0  0  0  0
   26.3420   61.1340   -4.9800 H   0  0  0  0  0  0  0  0  0  0  0  0
   25.6330   61.5610   -2.6090 O   0  0  0  0  0  0  0  0  0  0  0  0
   23.8200   63.4740   -2.1000 C   0  0  0  0  0  1  0  0  0  0  0  0
   23.4450   63.2070   -8.8630 C   0  0  0  0  0  2  0  0  0  0  0  0
   22.4310   63.2770   -9.8550 N   0  0  0  0  0  0  0  0  0  0  0  0
   21.1010   63.3030   -9.6700 C   0  0  0  0  0  0  0  0  0  0  0  0
   20.4770   63.3630  -10.8990 C   0  0  0  0  0  0  0  0  0  0  0  0
   20.2710   63.2890   -8.5590 C   0  0  0  0  0  0  0  0  0  0  0  0
   21.4840   63.3740  -11.7960 N   0  0  0  0  0  0  0  0  0  0  0  0
   19.1470   63.4040  -10.9750 N   0  0  0  0  0  0  0  0  0  0  0  0
   22.6690   63.3240  -11.1990 C   0  0  0  0  0  0  0  0  0  0  0  0
   24.4050   63.3160  -12.0340 Br  0  0  0  0  0  0  0  0  0  0  0  0
   18.4030   63.3870   -9.8670 C   0  0  0  0  0  0  0  0  0  0  0  0
   18.4810   63.4660  -12.2550 C   0  0  0  0  0  1  0  0  0  0  0  0
   17.1280   63.4240   -9.9090 O   0  0  0  0  0  0  0  0  0  0  0  0
   18.9350   63.3300   -8.6330 N   0  0  0  0  0  0  0  0  0  0  0  0
   18.3190   63.3180   -7.7800 H   0  0  0  0  0  0  0  0  0  0  0  0
   20.7760   63.2390   -7.4160 O   0  0  0  0  0  0  0  0  0  0  0  0
  1  2  1  0  0  0  0
  2  3  1  0  0  0  0
  2  7  1  0  0  0  0
  3  5  2  0  0  0  0
  4  3  1  0  0  0  0
  5  6  1  0  0  0  0
  6  8  1  0  0  0  0
  7  6  2  0  0  0  0
  8 15  1  0  0  0  0
  9  7  1  0  0  0  0
  9 10  1  0  0  0  0
 10 12  1  0  0  0  0
 11  9  2  0  0  0  0
 12  8  1  0  0  0  0
 12 14  2  0  0  0  0
 13 10  1  0  0  0  0
 16  1  1  0  0  0  0
 17 18  1  0  0  0  0
 17 16  1  0  0  0  0
 18 20  1  0  0  0  0
 19 18  2  0  0  0  0
 20 30  2  0  0  0  0
 21 23  2  0  0  0  0
 21 19  1  0  0  0  0
 22 19  1  0  0  0  0
 22 25  1  0  0  0  0
 23 17  1  0  0  0  0
 24 23  1  0  0  0  0
 25 28  1  0  0  0  0
 26 22  1  0  0  0  0
 27 25  2  0  0  0  0
 28 20  1  0  0  0  0
 28 29  1  0  0  0  0
M  END
>  <Pose>
1

>  <Score>
-5.940

$$$$
