MODEL 1
REMARK VINA RESULT:    -5.940      0.000      0.000
REMARK INTER + INTRA:          -7.018
REMARK INTER:                  -6.982
REMARK INTRA:                  -0.036
REMARK UNBOUND:                -0.036
REMARK  3 active torsions:
REMARK  status: ('A' for Active; 'I' for Inactive)
REMARK    1  A    between atoms: N_3  and  C_14 
REMARK    2  A    between atoms: C_14  and  C_15 
REMARK    3  A    between atoms: C_15  and  N_16 
ROOT
ATOM      1  C   UNK d   1      23.769  64.440  -8.096  0.00  0.00     0.152 C 
ENDROOT
BRANCH   1   2
ATOM      2  N   UNK d   1      23.610  64.384  -6.683  0.00  0.00    -0.316 N 
ATOM      3  C   UNK d   1      22.793  65.183  -5.957  0.00  0.00     0.180 A 
ATOM      4 Br   UNK d   1      21.687  66.527  -6.743  0.00  0.00    -0.008 Br
ATOM      5  N   UNK d   1      22.903  64.866  -4.658  0.00  0.00    -0.203 NA
ATOM      6  C   UNK d   1      23.791  63.858  -4.503  0.00  0.00     0.169 A 
ATOM      7  C   UNK d   1      24.225  63.569  -5.794  0.00  0.00     0.152 A 
ATOM      8  N   UNK d   1      24.267  63.181  -3.443  0.00  0.00    -0.286 N 
ATOM      9  C   UNK d   1      25.157  62.566  -5.905  0.00  0.00     0.280 A 
ATOM     10  N   UNK d   1      25.635  61.886  -4.830  0.00  0.00    -0.273 N 
ATOM     11  O   UNK d   1      25.565  62.295  -7.072  0.00  0.00    -0.265 OA
ATOM     12  C   UNK d   1      25.178  62.206  -3.606  0.00  0.00     0.330 A 
ATOM     13  H   UNK d   1      26.342  61.134  -4.980  0.00  0.00     0.173 HD
ATOM     14  O   UNK d   1      25.633  61.561  -2.609  0.00  0.00    -0.246 OA
ATOM     15  C   UNK d   1      23.820  63.474  -2.100  0.00  0.00     0.163 C 
ENDBRANCH   1   2
BRANCH   1  16
ATOM     16  C   UNK d   1      23.445  63.207  -8.863  0.00  0.00     0.152 C 
BRANCH  16  17
ATOM     17  N   UNK d   1      22.431  63.277  -9.855  0.00  0.00    -0.316 N 
ATOM     18  C   UNK d   1      21.101  63.303  -9.670  0.00  0.00     0.152 A 
ATOM     19  C   UNK d   1      20.477  63.363 -10.899  0.00  0.00     0.169 A 
ATOM     20  C   UNK d   1      20.271  63.289  -8.559  0.00  0.00     0.280 A 
ATOM     21  N   UNK d   1      21.484  63.374 -11.796  0.00  0.00    -0.203 NA
ATOM     22  N   UNK d   1      19.147  63.404 -10.975  0.00  0.00    -0.286 N 
ATOM     23  C   UNK d   1      22.669  63.324 -11.199  0.00  0.00     0.180 A 
ATOM     24 Br   UNK d   1      24.405  63.316 -12.034  0.00  0.00    -0.008 Br
ATOM     25  C   UNK d   1      18.403  63.387  -9.867  0.00  0.00     0.330 A 
ATOM     26  C   UNK d   1      18.481  63.466 -12.255  0.00  0.00     0.163 C 
ATOM     27  O   UNK d   1      17.128  63.424  -9.909  0.00  0.00    -0.246 OA
ATOM     28  N   UNK d   1      18.935  63.330  -8.633  0.00  0.00    -0.273 N 
ATOM     29  H   UNK d   1      18.319  63.318  -7.780  0.00  0.00     0.173 HD
ATOM     30  O   UNK d   1      20.776  63.239  -7.416  0.00  0.00    -0.265 OA
ENDBRANCH  16  17
ENDBRANCH   1  16
TORSDOF 3
ENDMDL
