/Users/jonathanwahrer/Desktop/Msc/3_Semester/Drug_Design_Praktikum/waehrer_HTS_screening/HTS_experiment/out/docking_results/vina_output/3sx0/0716_docked.pdbqt
 OpenBabel03192221593D

 31 35  0  0  1  0  0  0  0  0999 V2000
   22.4660   65.8560   -7.0710 C   0  0  1  0  0  0  0  0  0  0  0  0
   21.2110   65.5920   -7.8720 C   0  0  0  0  0  2  0  0  0  0  0  0
   21.2830   64.2190   -8.4750 C   0  0  2  0  0  0  0  0  0  0  0  0
   21.2470   63.2340   -7.2980 C   0  0  0  0  0  2  0  0  0  0  0  0
   22.4200   63.5190   -6.3950 C   0  0  2  0  0  3  0  0  0  0  0  0
   22.4300   64.9320   -5.8730 C   0  0  0  0  0  2  0  0  0  0  0  0
   23.6810   63.2360   -7.1460 C   0  0  0  0  0  2  0  0  0  0  0  0
   23.7470   64.1610   -8.3410 C   0  0  2  0  0  3  0  0  0  0  0  0
   23.7160   65.5670   -7.8430 C   0  0  0  0  0  2  0  0  0  0  0  0
   22.5410   63.9430   -9.2290 C   0  0  0  0  0  2  0  0  0  0  0  0
   20.1250   63.9510   -9.3540 C   0  0  0  0  0  0  0  0  0  0  0  0
   20.2310   64.2360  -10.5740 O   0  0  0  0  0  0  0  0  0  0  0  0
   18.9250   63.3870   -8.8330 N   0  0  0  0  0  0  0  0  0  0  0  0
   18.9160   63.1810   -7.8170 H   0  0  0  0  0  0  0  0  0  0  0  0
   17.7650   63.0960   -9.5980 C   0  0  0  0  0  0  0  0  0  0  0  0
   17.3910   61.8410   -9.9890 C   0  0  0  0  0  0  0  0  0  0  0  0
   16.2420   61.9690  -10.6950 N   0  0  0  0  0  0  0  0  0  0  0  0
   15.9130   63.2420  -10.7430 N   0  0  0  0  0  0  0  0  0  0  0  0
   15.4600   60.9140  -11.3170 C   0  0  0  0  0  1  0  0  0  0  0  0
   16.8180   63.9740  -10.0850 C   0  0  0  0  0  3  0  0  0  0  0  0
   18.0060   60.5490   -9.7620 C   0  0  0  0  0  0  0  0  0  0  0  0
   19.2540   60.4100   -9.7740 O   0  0  0  0  0  0  0  0  0  0  0  0
   17.2640   59.3620   -9.5150 N   0  0  0  0  0  0  0  0  0  0  0  0
   17.1850   59.0300   -8.5100 H   0  0  0  0  0  0  0  0  0  0  0  0
   16.7930   58.7910  -10.2420 H   0  0  0  0  0  0  0  0  0  0  0  0
   22.4910   67.2600   -6.6630 N   0  0  0  0  0  0  0  0  0  0  0  0
   23.5220   67.9410   -6.1790 N   0  0  0  0  0  0  0  0  0  0  0  0
   23.1700   69.2130   -5.9150 C   0  0  0  0  0  0  0  0  0  0  0  0
   24.2730   70.6110   -5.2050 Br  0  0  0  0  0  0  0  0  0  0  0  0
   21.8650   69.3330   -6.2490 N   0  0  0  0  0  0  0  0  0  0  0  0
   21.4690   68.1340   -6.7030 C   0  0  0  0  0  3  0  0  0  0  0  0
  1  2  1  6  0  0  0
  1 26  1  0  0  0  0
  1  6  1  0  0  0  0
  3 11  1  6  0  0  0
  3  2  1  0  0  0  0
  3  4  1  0  0  0  0
  5  4  1  6  0  0  0
  5  6  1  0  0  0  0
  7  5  1  0  0  0  0
  8 10  1  6  0  0  0
  8  9  1  0  0  0  0
  8  7  1  0  0  0  0
  9  1  1  0  0  0  0
 10  3  1  0  0  0  0
 11 13  1  0  0  0  0
 12 11  2  0  0  0  0
 13 14  1  0  0  0  0
 15 13  1  0  0  0  0
 16 21  1  0  0  0  0
 16 15  2  0  0  0  0
 17 16  1  0  0  0  0
 18 17  1  0  0  0  0
 18 20  2  0  0  0  0
 19 17  1  0  0  0  0
 20 15  1  0  0  0  0
 21 23  1  0  0  0  0
 22 21  2  0  0  0  0
 23 24  1  0  0  0  0
 25 23  1  0  0  0  0
 26 27  1  0  0  0  0
 27 28  2  0  0  0  0
 28 29  1  0  0  0  0
 30 28  1  0  0  0  0
 31 26  1  0  0  0  0
 31 30  2  0  0  0  0
M  END
>  <Pose>
1

>  <Score>
-6.429

$$$$
