MODEL 1
REMARK VINA RESULT:    -4.141      0.000      0.000
REMARK INTER + INTRA:          -5.011
REMARK INTER:                  -4.625
REMARK INTRA:                  -0.386
REMARK UNBOUND:                -0.386
REMARK  2 active torsions:
REMARK  status: ('A' for Active; 'I' for Inactive)
REMARK    1  A    between atoms: C_9  and  N_11 
REMARK    2  A    between atoms: C_12  and  C_17 
ROOT
ATOM      1  N   UNK d   1      10.976  64.888 -16.011  0.00  0.00    -0.348 N 
ATOM      2  C   UNK d   1      10.712  64.618 -14.633  0.00  0.00     0.189 C 
ATOM      3  C   UNK d   1       9.534  63.747 -14.419  0.00  0.00     0.201 C 
ATOM      4  O   UNK d   1       8.744  63.481 -15.504  0.00  0.00    -0.387 OA
ATOM      5  C   UNK d   1       8.618  64.567 -16.364  0.00  0.00     0.187 C 
ATOM      6  C   UNK d   1       9.923  64.963 -16.976  0.00  0.00     0.151 C 
ENDROOT
BRANCH   1   7
ATOM      7  C   UNK d   1      12.307  65.116 -16.500  0.00  0.00     0.145 A 
ATOM      8  N   UNK d   1      13.022  64.053 -16.982  0.00  0.00    -0.223 NA
ATOM      9  C   UNK d   1      14.251  64.219 -17.501  0.00  0.00     0.237 A 
ATOM     10  N   UNK d   1      14.812  65.440 -17.561  0.00  0.00    -0.222 NA
ATOM     11  C   UNK d   1      14.174  66.525 -17.108  0.00  0.00     0.164 A 
ATOM     12  N   UNK d   1      14.539  67.818 -17.051  0.00  0.00    -0.255 N 
ATOM     13  C   UNK d   1      12.895  66.348 -16.567  0.00  0.00     0.095 A 
ATOM     14  N   UNK d   1      13.536  68.457 -16.494  0.00  0.00    -0.163 NA
ATOM     15  C   UNK d   1      15.783  68.410 -17.508  0.00  0.00     0.182 C 
ATOM     16  C   UNK d   1      12.525  67.615 -16.185  0.00  0.00     0.141 A 
ATOM     17 Br   UNK d   1      10.880  68.053 -15.333  0.00  0.00    -0.026 Br
ENDBRANCH   1   7
BRANCH   2  18
ATOM     18  C   UNK d   1      11.926  64.160 -13.922  0.00  0.00     0.198 A 
ATOM     19  N   UNK d   1      12.737  64.920 -13.184  0.00  0.00    -0.207 NA
ATOM     20  C   UNK d   1      13.720  64.096 -12.721  0.00  0.00     0.152 A 
ATOM     21  N   UNK d   1      13.451  62.870 -13.207  0.00  0.00    -0.112 NA
ATOM     22  C   UNK d   1      14.863  64.463 -11.855  0.00  0.00     0.096 C 
ATOM     23  O   UNK d   1      12.368  62.936 -13.925  0.00  0.00    -0.194 OA
ENDBRANCH   2  18
TORSDOF 2
ENDMDL
