/Users/jonathanwahrer/Desktop/Msc/3_Semester/Drug_Design_Praktikum/waehrer_HTS_screening/HTS_experiment/out/docking_results/vina_output/3sx0/0727_docked.pdbqt
 OpenBabel03192221593D

 21 24  0  0  0  0  0  0  0  0999 V2000
   21.1100   63.5520   -8.0380 Br  0  0  0  0  0  0  0  0  0  0  0  0
   21.9450   63.4550   -9.7460 C   0  0  0  0  0  0  0  0  0  0  0  0
   23.2670   63.6790  -10.0050 N   0  0  0  0  0  0  0  0  0  0  0  0
   23.4800   63.5010  -11.2870 N   0  0  0  0  0  0  0  0  0  0  0  0
   22.3340   63.1620  -11.8990 C   0  0  0  0  0  0  0  0  0  0  0  0
   22.0100   62.8650  -13.1670 N   0  0  0  0  0  0  0  0  0  0  0  0
   20.7680   62.5410  -13.5180 C   0  0  0  0  0  3  0  0  0  0  0  0
   19.8100   62.5080  -12.5970 N   0  0  0  0  0  0  0  0  0  0  0  0
   20.0320   62.7940  -11.2720 C   0  0  0  0  0  0  0  0  0  0  0  0
   21.3190   63.1240  -10.9280 C   0  0  0  0  0  0  0  0  0  0  0  0
   24.7470   63.6310  -12.0210 C   0  0  0  0  0  1  0  0  0  0  0  0
   18.9850   62.7850  -10.3500 N   0  0  0  0  0  0  0  0  0  0  0  0
   18.3990   64.0150   -9.8660 C   0  0  0  0  0  2  0  0  0  0  0  0
   17.0000   64.1370  -10.5070 C   0  0  0  0  0  2  0  0  0  0  0  0
   16.3800   62.7970  -10.5820 C   0  0  0  0  0  0  0  0  0  0  0  0
   15.1120   62.5080  -10.9570 N   0  0  0  0  0  0  0  0  0  0  0  0
   16.9710   61.6050  -10.2850 C   0  0  0  0  0  0  0  0  0  0  0  0
   14.9570   61.1750  -10.8840 C   0  0  0  0  0  3  0  0  0  0  0  0
   14.0750   63.4190  -11.3690 C   0  0  0  0  0  1  0  0  0  0  0  0
   16.0860   60.6010  -10.4730 N   0  0  0  0  0  0  0  0  0  0  0  0
   18.3840   61.5800   -9.8360 C   0  0  0  0  0  2  0  0  0  0  0  0
  2  1  1  0  0  0  0
  3  2  2  0  0  0  0
  4  3  1  0  0  0  0
  5  4  1  0  0  0  0
  5 10  1  0  0  0  0
  6  5  2  0  0  0  0
  7  6  1  0  0  0  0
  7  8  2  0  0  0  0
  8  9  1  0  0  0  0
  9 10  2  0  0  0  0
  9 12  1  0  0  0  0
 10  2  1  0  0  0  0
 11  4  1  0  0  0  0
 12 13  1  0  0  0  0
 12 21  1  0  0  0  0
 14 13  1  0  0  0  0
 15 14  1  0  0  0  0
 15 17  2  0  0  0  0
 16 18  1  0  0  0  0
 16 15  1  0  0  0  0
 17 21  1  0  0  0  0
 18 20  2  0  0  0  0
 19 16  1  0  0  0  0
 20 17  1  0  0  0  0
M  END
>  <Pose>
1

>  <Score>
-7.090

$$$$
