MODEL 1
REMARK VINA RESULT:    -7.090      0.000      0.000
REMARK INTER + INTRA:          -7.680
REMARK INTER:                  -7.504
REMARK INTRA:                  -0.176
REMARK UNBOUND:                -0.176
REMARK  1 active torsions:
REMARK  status: ('A' for Active; 'I' for Inactive)
REMARK    1  A    between atoms: C_9  and  N_11 
ROOT
ATOM      1 Br   UNK d   1      21.110  63.552  -8.038  0.00  0.00    -0.026 Br
ATOM      2  C   UNK d   1      21.945  63.455  -9.746  0.00  0.00     0.141 A 
ATOM      3  N   UNK d   1      23.267  63.679 -10.005  0.00  0.00    -0.163 NA
ATOM      4  N   UNK d   1      23.480  63.501 -11.287  0.00  0.00    -0.255 N 
ATOM      5  C   UNK d   1      22.334  63.162 -11.899  0.00  0.00     0.164 A 
ATOM      6  N   UNK d   1      22.010  62.865 -13.167  0.00  0.00    -0.222 NA
ATOM      7  C   UNK d   1      20.768  62.541 -13.518  0.00  0.00     0.237 A 
ATOM      8  N   UNK d   1      19.810  62.508 -12.597  0.00  0.00    -0.223 NA
ATOM      9  C   UNK d   1      20.032  62.794 -11.272  0.00  0.00     0.144 A 
ATOM     10  C   UNK d   1      21.319  63.124 -10.928  0.00  0.00     0.095 A 
ATOM     11  C   UNK d   1      24.747  63.631 -12.021  0.00  0.00     0.182 C 
ENDROOT
BRANCH   9  12
ATOM     12  N   UNK d   1      18.985  62.785 -10.350  0.00  0.00    -0.359 N 
ATOM     13  C   UNK d   1      18.399  64.015  -9.866  0.00  0.00     0.131 C 
ATOM     14  C   UNK d   1      17.000  64.137 -10.507  0.00  0.00     0.079 C 
ATOM     15  C   UNK d   1      16.380  62.797 -10.582  0.00  0.00     0.040 A 
ATOM     16  N   UNK d   1      15.112  62.508 -10.957  0.00  0.00    -0.347 N 
ATOM     17  C   UNK d   1      16.971  61.605 -10.285  0.00  0.00     0.076 A 
ATOM     18  C   UNK d   1      14.957  61.175 -10.884  0.00  0.00     0.209 A 
ATOM     19  C   UNK d   1      14.075  63.419 -11.369  0.00  0.00     0.157 C 
ATOM     20  N   UNK d   1      16.086  60.601 -10.473  0.00  0.00    -0.245 NA
ATOM     21  C   UNK d   1      18.384  61.580  -9.836  0.00  0.00     0.185 C 
ENDBRANCH   9  12
TORSDOF 1
ENDMDL
