MODEL 1
REMARK VINA RESULT:    -6.748      0.000      0.000
REMARK INTER + INTRA:          -7.087
REMARK INTER:                  -7.931
REMARK INTRA:                   0.844
REMARK UNBOUND:                 0.844
REMARK  3 active torsions:
REMARK  status: ('A' for Active; 'I' for Inactive)
REMARK    1  A    between atoms: C_9  and  N_11 
REMARK    2  A    between atoms: N_14  and  C_17 
REMARK    3  A    between atoms: C_17  and  C_19 
REMARK       I    between atoms: C_19  and  N_21 
ROOT
ATOM      1  N   UNK d   1      18.721  62.906 -10.293  0.00  0.00    -0.362 N 
ATOM      2  C   UNK d   1      18.105  61.697  -9.823  0.00  0.00     0.154 C 
ATOM      3  C   UNK d   1      16.707  61.695 -10.448  0.00  0.00     0.293 C 
ATOM      4  N   UNK d   1      16.318  63.047 -10.864  0.00  0.00     0.103 N 
ATOM      5  C   UNK d   1      16.691  64.005  -9.820  0.00  0.00     0.293 C 
ATOM      6  C   UNK d   1      18.201  64.137  -9.750  0.00  0.00     0.154 C 
ENDROOT
BRANCH   1   7
ATOM      7  C   UNK d   1      19.745  62.887 -11.246  0.00  0.00     0.144 A 
ATOM      8  N   UNK d   1      19.495  62.580 -12.541  0.00  0.00    -0.223 NA
ATOM      9  C   UNK d   1      20.448  62.522 -13.463  0.00  0.00     0.237 A 
ATOM     10  N   UNK d   1      21.712  62.774 -13.109  0.00  0.00    -0.222 NA
ATOM     11  C   UNK d   1      22.059  63.087 -11.849  0.00  0.00     0.164 A 
ATOM     12  N   UNK d   1      23.236  63.386 -11.266  0.00  0.00    -0.255 N 
ATOM     13  C   UNK d   1      21.060  63.149 -10.882  0.00  0.00     0.095 A 
ATOM     14  N   UNK d   1      22.997  63.624 -10.004  0.00  0.00    -0.163 NA
ATOM     15  C   UNK d   1      24.496  63.412 -11.995  0.00  0.00     0.182 C 
ATOM     16  C   UNK d   1      21.691  63.497  -9.710  0.00  0.00     0.141 A 
ATOM     17 Br   UNK d   1      20.827  63.755  -8.042  0.00  0.00    -0.026 Br
ENDBRANCH   1   7
BRANCH   4  18
ATOM     18  C   UNK d   1      14.868  63.040 -10.979  0.00  0.00     0.296 C 
ATOM     19  C   UNK d   1      14.465  61.618 -11.457  0.00  0.00     0.052 C 
BRANCH  18  20
ATOM     20  C   UNK d   1      14.408  64.017 -11.980  0.00  0.00     0.186 C 
ATOM     21  O   UNK d   1      15.045  65.150 -11.928  0.00  0.00    -0.175 OA
ATOM     22  N   UNK d   1      13.397  63.878 -12.945  0.00  0.00    -0.361 N 
ATOM     23  C   UNK d   1      12.535  62.759 -13.181  0.00  0.00     0.124 C 
ATOM     24  C   UNK d   1      13.165  65.034 -13.841  0.00  0.00     0.124 C 
ATOM     25  C   UNK d   1      12.381  62.387 -14.641  0.00  0.00     0.020 C 
ATOM     26  C   UNK d   1      12.393  63.545 -15.578  0.00  0.00     0.003 C 
ATOM     27  C   UNK d   1      13.469  64.553 -15.236  0.00  0.00     0.020 C 
ENDBRANCH  18  20
ENDBRANCH   4  18
TORSDOF 3
ENDMDL
