MODEL 1
REMARK VINA RESULT:    -8.184      0.000      0.000
REMARK INTER + INTRA:          -8.975
REMARK INTER:                  -8.663
REMARK INTRA:                  -0.312
REMARK UNBOUND:                -0.312
REMARK  1 active torsions:
REMARK  status: ('A' for Active; 'I' for Inactive)
REMARK    1  A    between atoms: N_8  and  C_11 
ROOT
ATOM      1  C   UNK d   1      17.448  62.699 -10.847  0.00  0.00     0.148 A 
ATOM      2  C   UNK d   1      16.523  63.570 -11.181  0.00  0.00     0.080 A 
ATOM      3  C   UNK d   1      15.097  63.209 -11.216  0.00  0.00     0.043 A 
ATOM      4  C   UNK d   1      14.156  64.074 -11.550  0.00  0.00     0.043 C 
ATOM      5  N   UNK d   1      14.802  61.866 -10.864  0.00  0.00    -0.189 N 
ATOM      6  C   UNK d   1      15.826  60.930 -10.502  0.00  0.00     0.730 A 
ATOM      7  N   UNK d   1      17.113  61.369 -10.503  0.00  0.00    -0.044 N 
ATOM      8  N   UNK d   1      17.853  60.317 -10.135  0.00  0.00    -0.143 NA
ATOM      9  C   UNK d   1      17.085  59.243  -9.905  0.00  0.00     0.275 A 
ATOM     10  N   UNK d   1      15.821  59.636 -10.136  0.00  0.00    -0.054 NA
ATOM     11  H   UNK d   1      13.809  61.548 -10.870  0.00  0.00     0.184 HD
ENDROOT
BRANCH   1  12
ATOM     12  N   UNK d   1      18.798  63.098 -10.830  0.00  0.00    -0.357 N 
ATOM     13  C   UNK d   1      19.273  63.826  -9.679  0.00  0.00     0.203 C 
ATOM     14  C   UNK d   1      20.746  63.647  -9.523  0.00  0.00     0.124 A 
ATOM     15  N   UNK d   1      21.524  63.450 -10.586  0.00  0.00    -0.325 N 
ATOM     16  N   UNK d   1      21.555  63.639  -8.431  0.00  0.00    -0.243 NA
ATOM     17  C   UNK d   1      22.796  63.319 -10.193  0.00  0.00     0.101 A 
ATOM     18  C   UNK d   1      20.977  63.402 -11.928  0.00  0.00     0.151 C 
ATOM     19 Br   UNK d   1      24.349  63.018 -11.276  0.00  0.00    -0.029 Br
ATOM     20  C   UNK d   1      22.827  63.437  -8.819  0.00  0.00     0.156 A 
ATOM     21  C   UNK d   1      19.623  62.757 -11.965  0.00  0.00     0.145 C 
ENDBRANCH   1  12
TORSDOF 1
ENDMDL
