/Users/jonathanwahrer/Desktop/Msc/3_Semester/Drug_Design_Praktikum/waehrer_HTS_screening/HTS_experiment/out/docking_results/vina_output/3sx0/0737_docked.pdbqt
 OpenBabel03192222003D

 21 24  0  0  1  0  0  0  0  0999 V2000
   17.4480   62.6990  -10.8470 C   0  0  2  0  0  3  0  0  0  0  0  0
   16.5230   63.5700  -11.1810 C   0  0  0  0  0  3  0  0  0  0  0  0
   15.0970   63.2090  -11.2160 C   0  0  0  0  0  0  0  0  0  0  0  0
   14.1560   64.0740  -11.5500 C   0  0  0  0  0  1  0  0  0  0  0  0
   14.8020   61.8660  -10.8640 N   0  0  0  0  0  0  0  0  0  0  0  0
   15.8260   60.9300  -10.5020 C   0  0  0  0  0  0  0  0  0  0  0  0
   17.1130   61.3690  -10.5030 N   0  0  0  0  0  0  0  0  0  0  0  0
   17.8530   60.3170  -10.1350 N   0  0  0  0  0  0  0  0  0  0  0  0
   17.0850   59.2430   -9.9050 C   0  0  0  0  0  3  0  0  0  0  0  0
   15.8210   59.6360  -10.1360 N   0  0  0  0  0  0  0  0  0  0  0  0
   13.8090   61.5480  -10.8700 H   0  0  0  0  0  0  0  0  0  0  0  0
   18.7980   63.0980  -10.8300 N   0  0  2  0  0  0  0  0  0  0  0  0
   19.2730   63.8260   -9.6790 C   0  0  0  0  0  2  0  0  0  0  0  0
   20.7460   63.6470   -9.5230 C   0  0  0  0  0  0  0  0  0  0  0  0
   21.5240   63.4500  -10.5860 N   0  0  0  0  0  0  0  0  0  0  0  0
   21.5550   63.6390   -8.4310 N   0  0  0  0  0  0  0  0  0  0  0  0
   22.7960   63.3190  -10.1930 C   0  0  0  0  0  0  0  0  0  0  0  0
   20.9770   63.4020  -11.9280 C   0  0  0  0  0  2  0  0  0  0  0  0
   24.3490   63.0180  -11.2760 Br  0  0  0  0  0  0  0  0  0  0  0  0
   22.8270   63.4370   -8.8190 C   0  0  0  0  0  3  0  0  0  0  0  0
   19.6230   62.7570  -11.9650 C   0  0  0  0  0  2  0  0  0  0  0  0
  1  2  1  1  0  0  0
  1 12  1  0  0  0  0
  1  7  1  0  0  0  0
  3  2  2  0  0  0  0
  3  5  1  0  0  0  0
  4  3  1  0  0  0  0
  5  6  1  0  0  0  0
  6 10  2  0  0  0  0
  7  6  1  0  0  0  0
  7  8  1  0  0  0  0
  8  9  2  0  0  0  0
 10  9  1  0  0  0  0
 11  5  1  0  0  0  0
 12 21  1  6  0  0  0
 12 13  1  0  0  0  0
 13 14  1  0  0  0  0
 14 16  2  0  0  0  0
 15 17  1  0  0  0  0
 15 14  1  0  0  0  0
 17 20  2  0  0  0  0
 18 15  1  0  0  0  0
 19 17  1  0  0  0  0
 20 16  1  0  0  0  0
 21 18  1  0  0  0  0
M  END
>  <Pose>
1

>  <Score>
-8.184

$$$$
