MODEL 1
REMARK VINA RESULT:    -8.847      0.000      0.000
REMARK INTER + INTRA:         -11.350
REMARK INTER:                 -10.916
REMARK INTRA:                  -0.433
REMARK UNBOUND:                -0.433
REMARK  4 active torsions:
REMARK  status: ('A' for Active; 'I' for Inactive)
REMARK    1  A    between atoms: C_4  and  C_7 
REMARK       I    between atoms: C_7  and  N_9 
REMARK    2  A    between atoms: N_9  and  C_10 
REMARK    3  A    between atoms: C_10  and  C_11 
REMARK    4  A    between atoms: C_11  and  C_12 
REMARK       I    between atoms: C_12  and  N_14 
ROOT
ATOM      1  C   UNK d   1      22.929  62.997  -9.175  0.00  0.00     0.221 C 
ATOM      2  O   UNK d   1      23.995  62.629  -9.772  0.00  0.00    -0.273 OA
ATOM      3  N   UNK d   1      21.813  63.461  -9.922  0.00  0.00    -0.352 N 
ATOM      4  C   UNK d   1      21.889  63.513 -11.356  0.00  0.00     0.129 C 
ATOM      5  C   UNK d   1      20.587  63.247 -12.047  0.00  0.00     0.068 C 
ATOM      6  C   UNK d   1      19.385  63.544 -11.200  0.00  0.00     0.204 C 
ATOM      7  N   UNK d   1      18.272  63.929 -12.013  0.00  0.00     0.099 N 
ATOM      8  C   UNK d   1      17.099  64.271 -11.283  0.00  0.00     0.277 C 
ATOM      9  C   UNK d   1      16.755  63.355 -10.156  0.00  0.00     0.091 C 
ATOM     10  C   UNK d   1      17.721  62.237  -9.997  0.00  0.00     0.062 A 
ATOM     11  N   UNK d   1      17.607  61.045  -9.411  0.00  0.00    -0.246 NA
ATOM     12  C   UNK d   1      18.765  60.380  -9.528  0.00  0.00     0.207 A 
ATOM     13  N   UNK d   1      19.637  61.147 -10.196  0.00  0.00    -0.350 N 
ATOM     14  C   UNK d   1      19.003  62.290 -10.487  0.00  0.00     0.074 A 
ATOM     15  C   UNK d   1      19.734  64.578 -10.141  0.00  0.00     0.068 C 
ATOM     16  C   UNK d   1      20.635  63.861  -9.158  0.00  0.00     0.129 C 
ATOM     17  H   UNK d   1      18.560  64.750 -12.590  0.00  0.00     0.317 HD
ATOM     18  H   UNK d   1      20.647  60.899 -10.450  0.00  0.00     0.166 HD
ENDROOT
BRANCH   1  19
ATOM     19  C   UNK d   1      22.934  62.913  -7.706  0.00  0.00     0.122 C 
BRANCH  19  20
ATOM     20  C   UNK d   1      24.103  63.609  -7.080  0.00  0.00     0.132 C 
BRANCH  20  21
ATOM     21  N   UNK d   1      23.986  65.034  -7.080  0.00  0.00    -0.355 N 
ATOM     22  C   UNK d   1      23.000  65.719  -6.320  0.00  0.00     0.275 C 
ATOM     23  O   UNK d   1      22.205  65.023  -5.622  0.00  0.00    -0.265 OA
ATOM     24  H   UNK d   1      24.639  65.601  -7.653  0.00  0.00     0.162 HD
BRANCH  22  25
ATOM     25  C   UNK d   1      22.863  67.154  -6.303  0.00  0.00     0.144 A 
ATOM     26  O   UNK d   1      23.761  68.014  -5.953  0.00  0.00    -0.298 OA
ATOM     27  C   UNK d   1      23.339  69.239  -6.044  0.00  0.00     0.122 A 
ATOM     28 Br   UNK d   1      24.275  70.872  -5.645  0.00  0.00    -0.023 Br
ATOM     29  C   UNK d   1      22.040  69.187  -6.497  0.00  0.00     0.048 A 
ATOM     30  C   UNK d   1      21.711  67.859  -6.670  0.00  0.00     0.046 A 
ENDBRANCH  22  25
ENDBRANCH  20  21
ENDBRANCH  19  20
ENDBRANCH   1  19
TORSDOF 4
ENDMDL
