MODEL 1
REMARK VINA RESULT:    -7.737      0.000      0.000
REMARK INTER + INTRA:          -9.132
REMARK INTER:                  -9.093
REMARK INTRA:                  -0.039
REMARK UNBOUND:                -0.039
REMARK  3 active torsions:
REMARK  status: ('A' for Active; 'I' for Inactive)
REMARK    1  A    between atoms: C_4  and  C_7 
REMARK       I    between atoms: C_7  and  N_9 
REMARK    2  A    between atoms: N_9  and  C_10 
REMARK    3  A    between atoms: C_10  and  C_12 
REMARK       I    between atoms: C_12  and  N_14 
ROOT
ATOM      1  C   UNK d   1      20.878  64.777  -9.116  0.00  0.00     0.242 C 
ATOM      2  O   UNK d   1      20.908  65.900  -9.730  0.00  0.00    -0.271 OA
ATOM      3  N   UNK d   1      20.412  63.672  -9.837  0.00  0.00    -0.350 N 
ATOM      4  C   UNK d   1      20.329  62.341  -9.270  0.00  0.00     0.129 C 
ATOM      5  C   UNK d   1      18.890  61.926  -9.280  0.00  0.00     0.068 C 
ATOM      6  C   UNK d   1      18.267  62.080 -10.631  0.00  0.00     0.206 C 
ATOM      7  N   UNK d   1      17.728  60.794 -11.038  0.00  0.00     0.099 N 
ATOM      8  C   UNK d   1      16.647  60.456 -10.130  0.00  0.00     0.277 C 
ATOM      9  C   UNK d   1      15.416  61.220 -10.631  0.00  0.00     0.089 C 
ATOM     10  C   UNK d   1      15.807  62.650 -10.639  0.00  0.00     0.039 A 
ATOM     11  N   UNK d   1      15.031  63.751 -10.646  0.00  0.00    -0.352 N 
ATOM     12  C   UNK d   1      15.848  64.816 -10.650  0.00  0.00     0.207 A 
ATOM     13  N   UNK d   1      17.117  64.369 -10.645  0.00  0.00    -0.244 NA
ATOM     14  C   UNK d   1      17.128  63.025 -10.637  0.00  0.00     0.097 A 
ATOM     15  C   UNK d   1      19.330  62.506 -11.643  0.00  0.00     0.068 C 
ATOM     16  C   UNK d   1      19.982  63.781 -11.219  0.00  0.00     0.129 C 
ATOM     17  H   UNK d   1      18.448  60.027 -10.931  0.00  0.00     0.317 HD
ATOM     18  H   UNK d   1      13.982  63.825 -10.648  0.00  0.00     0.166 HD
ENDROOT
BRANCH   1  19
ATOM     19  C   UNK d   1      21.343  64.796  -7.718  0.00  0.00     0.173 C 
ATOM     20  C   UNK d   1      20.473  64.083  -6.748  0.00  0.00     0.042 C 
BRANCH  19  21
ATOM     21  N   UNK d   1      21.577  66.142  -7.237  0.00  0.00    -0.342 N 
ATOM     22  C   UNK d   1      22.819  66.584  -6.746  0.00  0.00     0.276 C 
ATOM     23  O   UNK d   1      23.784  65.793  -6.712  0.00  0.00    -0.265 OA
ATOM     24  H   UNK d   1      20.779  66.809  -7.260  0.00  0.00     0.163 HD
BRANCH  22  25
ATOM     25  C   UNK d   1      22.989  67.950  -6.276  0.00  0.00     0.144 A 
ATOM     26  O   UNK d   1      24.134  68.465  -5.827  0.00  0.00    -0.298 OA
ATOM     27  C   UNK d   1      23.968  69.715  -5.478  0.00  0.00     0.122 A 
ATOM     28 Br   UNK d   1      25.334  70.873  -4.773  0.00  0.00    -0.023 Br
ATOM     29  C   UNK d   1      22.649  70.078  -5.696  0.00  0.00     0.048 A 
ATOM     30  C   UNK d   1      22.047  68.952  -6.199  0.00  0.00     0.046 A 
ENDBRANCH  22  25
ENDBRANCH  19  21
ENDBRANCH   1  19
TORSDOF 3
ENDMDL
