/Users/jonathanwahrer/Desktop/Msc/3_Semester/Drug_Design_Praktikum/waehrer_HTS_screening/HTS_experiment/out/docking_results/vina_output/3sx0/0746_docked.pdbqt
 OpenBabel03192222003D

 30 33  0  0  1  0  0  0  0  0999 V2000
   20.8780   64.7770   -9.1160 C   0  0  0  0  0  0  0  0  0  0  0  0
   20.9080   65.9000   -9.7300 O   0  0  0  0  0  0  0  0  0  0  0  0
   20.4120   63.6720   -9.8370 N   0  0  0  0  0  0  0  0  0  0  0  0
   20.3290   62.3410   -9.2700 C   0  0  0  0  0  2  0  0  0  0  0  0
   18.8900   61.9260   -9.2800 C   0  0  0  0  0  2  0  0  0  0  0  0
   18.2670   62.0800  -10.6310 C   0  0  1  0  0  0  0  0  0  0  0  0
   17.7280   60.7940  -11.0380 N   0  0  0  0  0  0  0  0  0  0  0  0
   16.6470   60.4560  -10.1300 C   0  0  0  0  0  2  0  0  0  0  0  0
   15.4160   61.2200  -10.6310 C   0  0  0  0  0  2  0  0  0  0  0  0
   15.8070   62.6500  -10.6390 C   0  0  0  0  0  0  0  0  0  0  0  0
   15.0310   63.7510  -10.6460 N   0  0  0  0  0  0  0  0  0  0  0  0
   15.8480   64.8160  -10.6500 C   0  0  0  0  0  3  0  0  0  0  0  0
   17.1170   64.3690  -10.6450 N   0  0  0  0  0  0  0  0  0  0  0  0
   17.1280   63.0250  -10.6370 C   0  0  0  0  0  0  0  0  0  0  0  0
   19.3300   62.5060  -11.6430 C   0  0  0  0  0  2  0  0  0  0  0  0
   19.9820   63.7810  -11.2190 C   0  0  0  0  0  2  0  0  0  0  0  0
   18.4480   60.0270  -10.9310 H   0  0  0  0  0  0  0  0  0  0  0  0
   13.9820   63.8250  -10.6480 H   0  0  0  0  0  0  0  0  0  0  0  0
   21.3430   64.7960   -7.7180 C   0  0  2  0  0  3  0  0  0  0  0  0
   20.4730   64.0830   -6.7480 C   0  0  0  0  0  1  0  0  0  0  0  0
   21.5770   66.1420   -7.2370 N   0  0  0  0  0  0  0  0  0  0  0  0
   22.8190   66.5840   -6.7460 C   0  0  0  0  0  0  0  0  0  0  0  0
   23.7840   65.7930   -6.7120 O   0  0  0  0  0  0  0  0  0  0  0  0
   20.7790   66.8090   -7.2600 H   0  0  0  0  0  0  0  0  0  0  0  0
   22.9890   67.9500   -6.2760 C   0  0  0  0  0  0  0  0  0  0  0  0
   24.1340   68.4650   -5.8270 O   0  0  0  0  0  0  0  0  0  0  0  0
   23.9680   69.7150   -5.4780 C   0  0  0  0  0  0  0  0  0  0  0  0
   25.3340   70.8730   -4.7730 Br  0  0  0  0  0  0  0  0  0  0  0  0
   22.6490   70.0780   -5.6960 C   0  0  0  0  0  3  0  0  0  0  0  0
   22.0470   68.9520   -6.1990 C   0  0  0  0  0  3  0  0  0  0  0  0
  1 19  1  0  0  0  0
  2  1  2  0  0  0  0
  3  4  1  0  0  0  0
  3  1  1  0  0  0  0
  5  4  1  0  0  0  0
  6 15  1  6  0  0  0
  6  5  1  0  0  0  0
  7 17  1  0  0  0  0
  7  6  1  0  0  0  0
  7  8  1  0  0  0  0
  9  8  1  0  0  0  0
 10 14  2  0  0  0  0
 10  9  1  0  0  0  0
 11 10  1  0  0  0  0
 12 11  1  0  0  0  0
 12 13  2  0  0  0  0
 13 14  1  0  0  0  0
 14  6  1  0  0  0  0
 15 16  1  0  0  0  0
 16  3  1  0  0  0  0
 18 11  1  0  0  0  0
 19 21  1  0  0  0  0
 19 20  1  1  0  0  0
 21 22  1  0  0  0  0
 22 23  2  0  0  0  0
 22 25  1  0  0  0  0
 24 21  1  0  0  0  0
 25 30  2  0  0  0  0
 25 26  1  0  0  0  0
 26 27  1  0  0  0  0
 27 28  1  0  0  0  0
 29 27  2  0  0  0  0
 30 29  1  0  0  0  0
M  END
>  <Pose>
1

>  <Score>
-7.737

$$$$
