/Users/jonathanwahrer/Desktop/Msc/3_Semester/Drug_Design_Praktikum/waehrer_HTS_screening/HTS_experiment/out/docking_results/vina_output/3sx0/0754_docked.pdbqt
 OpenBabel03192222003D

 27 30  0  0  0  0  0  0  0  0999 V2000
   23.4860   63.1220  -10.0190 C   0  0  0  0  0  0  0  0  0  0  0  0
   24.1170   62.3310   -9.3030 O   0  0  0  0  0  0  0  0  0  0  0  0
   22.4720   63.9310   -9.4510 N   0  0  0  0  0  0  0  0  0  0  0  0
   22.1790   63.8310   -8.0360 C   0  0  0  0  0  2  0  0  0  0  0  0
   20.7540   63.4060   -7.7770 C   0  0  0  0  0  2  0  0  0  0  0  0
   19.9590   63.9030   -8.9120 N   0  0  0  0  0  0  0  0  0  0  0  0
   20.3560   65.1580   -9.4530 C   0  0  0  0  0  2  0  0  0  0  0  0
   21.6750   64.8840  -10.1990 C   0  0  0  0  0  2  0  0  0  0  0  0
   18.8880   63.0860   -9.3480 C   0  0  0  0  0  0  0  0  0  0  0  0
   17.7300   63.6230   -9.8230 N   0  0  0  0  0  0  0  0  0  0  0  0
   16.7060   62.8610  -10.2360 C   0  0  0  0  0  0  0  0  0  0  0  0
   16.8010   61.5140  -10.1900 N   0  0  0  0  0  0  0  0  0  0  0  0
   17.9050   60.8950   -9.7370 C   0  0  0  0  0  0  0  0  0  0  0  0
   18.9550   61.7230   -9.3120 C   0  0  0  0  0  3  0  0  0  0  0  0
   18.0320   59.4140   -9.6770 C   0  0  0  0  0  1  0  0  0  0  0  0
   15.5210   63.4690  -10.7240 N   0  0  0  0  0  0  0  0  0  0  0  0
   15.3910   64.8900  -10.9350 C   0  0  0  0  0  2  0  0  0  0  0  0
   14.9090   65.1600  -12.3290 C   0  0  0  0  0  2  0  0  0  0  0  0
   14.4850   64.0110  -12.9930 O   0  0  0  0  0  0  0  0  0  0  0  0
   13.6320   63.2620  -12.1860 C   0  0  0  0  0  2  0  0  0  0  0  0
   14.3770   62.6390  -11.0310 C   0  0  0  0  0  2  0  0  0  0  0  0
   23.8170   63.1960  -11.4530 C   0  0  0  0  0  0  0  0  0  0  0  0
   24.9730   63.4100  -12.0040 O   0  0  0  0  0  0  0  0  0  0  0  0
   24.9050   63.4110  -13.2860 C   0  0  0  0  0  0  0  0  0  0  0  0
   26.3350   63.6810  -14.5590 Br  0  0  0  0  0  0  0  0  0  0  0  0
   23.6000   63.1810  -13.6480 C   0  0  0  0  0  3  0  0  0  0  0  0
   22.9050   63.0440  -12.4730 C   0  0  0  0  0  3  0  0  0  0  0  0
  1  3  1  0  0  0  0
  1  2  2  0  0  0  0
  3  4  1  0  0  0  0
  4  5  1  0  0  0  0
  6  5  1  0  0  0  0
  7  6  1  0  0  0  0
  8  7  1  0  0  0  0
  8  3  1  0  0  0  0
  9 14  2  0  0  0  0
  9  6  1  0  0  0  0
 10  9  1  0  0  0  0
 11 12  1  0  0  0  0
 11 10  2  0  0  0  0
 12 13  2  0  0  0  0
 13 15  1  0  0  0  0
 13 14  1  0  0  0  0
 16 11  1  0  0  0  0
 17 16  1  0  0  0  0
 18 17  1  0  0  0  0
 19 18  1  0  0  0  0
 19 20  1  0  0  0  0
 20 21  1  0  0  0  0
 21 16  1  0  0  0  0
 22  1  1  0  0  0  0
 23 22  1  0  0  0  0
 24 23  1  0  0  0  0
 25 24  1  0  0  0  0
 26 24  2  0  0  0  0
 26 27  1  0  0  0  0
 27 22  2  0  0  0  0
M  END
>  <Pose>
1

>  <Score>
-6.626

$$$$
