/Users/jonathanwahrer/Desktop/Msc/3_Semester/Drug_Design_Praktikum/waehrer_HTS_screening/HTS_experiment/out/docking_results/vina_output/3sx0/0755_docked.pdbqt
 OpenBabel03192222003D

 28 31  0  0  0  0  0  0  0  0999 V2000
   23.5140   63.4150   -8.8110 C   0  0  0  0  0  0  0  0  0  0  0  0
   24.4920   63.0000   -9.4500 O   0  0  0  0  0  0  0  0  0  0  0  0
   22.3050   63.7620   -9.4700 N   0  0  0  0  0  0  0  0  0  0  0  0
   21.1570   64.2500   -8.7090 C   0  0  0  0  0  2  0  0  0  0  0  0
   19.9730   64.4840   -9.6460 C   0  0  0  0  0  2  0  0  0  0  0  0
   19.8130   63.2840  -10.4440 N   0  0  0  0  0  0  0  0  0  0  0  0
   20.9230   62.8310  -11.2370 C   0  0  0  0  0  2  0  0  0  0  0  0
   22.1420   63.6520  -10.9050 C   0  0  0  0  0  2  0  0  0  0  0  0
   18.5800   62.5530  -10.4540 C   0  0  0  0  0  0  0  0  0  0  0  0
   18.5090   61.2870  -10.0200 N   0  0  0  0  0  0  0  0  0  0  0  0
   17.3440   60.6290  -10.0430 C   0  0  0  0  0  0  0  0  0  0  0  0
   16.2140   61.2040  -10.4980 N   0  0  0  0  0  0  0  0  0  0  0  0
   17.2760   59.2280   -9.5590 C   0  0  0  0  0  1  0  0  0  0  0  0
   16.2160   62.4720  -10.9480 C   0  0  0  0  0  0  0  0  0  0  0  0
   17.4260   63.1330  -10.9150 C   0  0  0  0  0  3  0  0  0  0  0  0
   15.0540   63.1200  -11.4350 N   0  0  0  0  0  0  0  0  0  0  0  0
   13.9650   62.3470  -11.9950 C   0  0  0  0  0  2  0  0  0  0  0  0
   12.7760   63.2750  -12.1280 C   0  0  0  0  0  2  0  0  0  0  0  0
   13.1210   64.3420  -13.0290 N   0  0  0  0  0  0  0  0  0  0  0  0
   14.3830   64.9640  -12.7740 C   0  0  0  0  0  2  0  0  0  0  0  0
   12.9270   63.9190  -14.3920 C   0  0  0  0  0  1  0  0  0  0  0  0
   14.8860   64.5600  -11.4050 C   0  0  0  0  0  2  0  0  0  0  0  0
   23.6040   63.5520   -7.3390 C   0  0  0  0  0  0  0  0  0  0  0  0
   24.2330   62.7520   -6.5150 O   0  0  0  0  0  0  0  0  0  0  0  0
   24.1300   63.1410   -5.2690 C   0  0  0  0  0  0  0  0  0  0  0  0
   24.8960   62.2630   -3.7550 Br  0  0  0  0  0  0  0  0  0  0  0  0
   23.3700   64.2910   -5.2570 C   0  0  0  0  0  3  0  0  0  0  0  0
   23.0450   64.5410   -6.5660 C   0  0  0  0  0  3  0  0  0  0  0  0
  1 23  1  0  0  0  0
  2  1  2  0  0  0  0
  3  1  1  0  0  0  0
  3  4  1  0  0  0  0
  5  4  1  0  0  0  0
  6  5  1  0  0  0  0
  7  8  1  0  0  0  0
  7  6  1  0  0  0  0
  8  3  1  0  0  0  0
  9  6  1  0  0  0  0
  9 10  1  0  0  0  0
 11 10  2  0  0  0  0
 11 13  1  0  0  0  0
 12 11  1  0  0  0  0
 14 15  1  0  0  0  0
 14 12  2  0  0  0  0
 15  9  2  0  0  0  0
 16 22  1  0  0  0  0
 16 14  1  0  0  0  0
 17 16  1  0  0  0  0
 18 17  1  0  0  0  0
 19 20  1  0  0  0  0
 19 18  1  0  0  0  0
 20 22  1  0  0  0  0
 21 19  1  0  0  0  0
 23 28  2  0  0  0  0
 23 24  1  0  0  0  0
 24 25  1  0  0  0  0
 25 27  2  0  0  0  0
 25 26  1  0  0  0  0
 28 27  1  0  0  0  0
M  END
>  <Pose>
1

>  <Score>
-7.208

$$$$
