MODEL 1
REMARK VINA RESULT:    -7.208      0.000      0.000
REMARK INTER + INTRA:          -8.423
REMARK INTER:                  -8.473
REMARK INTRA:                   0.050
REMARK UNBOUND:                 0.050
REMARK  3 active torsions:
REMARK  status: ('A' for Active; 'I' for Inactive)
REMARK    1  A    between atoms: C_4  and  C_7 
REMARK       I    between atoms: C_7  and  N_9 
REMARK    2  A    between atoms: N_12  and  C_15 
REMARK    3  A    between atoms: C_19  and  N_21 
ROOT
ATOM      1  C   UNK d   1      23.514  63.415  -8.811  0.00  0.00     0.277 C 
ATOM      2  O   UNK d   1      24.492  63.000  -9.450  0.00  0.00    -0.265 OA
ATOM      3  N   UNK d   1      22.305  63.762  -9.470  0.00  0.00    -0.343 N 
ATOM      4  C   UNK d   1      21.157  64.250  -8.709  0.00  0.00     0.146 C 
ATOM      5  C   UNK d   1      19.973  64.484  -9.646  0.00  0.00     0.144 C 
ATOM      6  N   UNK d   1      19.813  63.284 -10.444  0.00  0.00    -0.363 N 
ATOM      7  C   UNK d   1      20.923  62.831 -11.237  0.00  0.00     0.144 C 
ATOM      8  C   UNK d   1      22.142  63.652 -10.905  0.00  0.00     0.146 C 
ENDROOT
BRANCH   6   9
ATOM      9  C   UNK d   1      18.580  62.553 -10.454  0.00  0.00     0.131 A 
ATOM     10  N   UNK d   1      18.509  61.287 -10.020  0.00  0.00    -0.216 NA
ATOM     11  C   UNK d   1      17.344  60.629 -10.043  0.00  0.00     0.126 A 
ATOM     12  N   UNK d   1      16.214  61.204 -10.498  0.00  0.00    -0.216 NA
ATOM     13  C   UNK d   1      17.276  59.228  -9.559  0.00  0.00     0.093 C 
ATOM     14  C   UNK d   1      16.216  62.472 -10.948  0.00  0.00     0.131 A 
ATOM     15  C   UNK d   1      17.426  63.133 -10.915  0.00  0.00     0.100 A 
BRANCH  14  16
ATOM     16  N   UNK d   1      15.054  63.120 -11.435  0.00  0.00    -0.362 N 
ATOM     17  C   UNK d   1      13.965  62.347 -11.995  0.00  0.00     0.154 C 
ATOM     18  C   UNK d   1      12.776  63.275 -12.128  0.00  0.00     0.291 C 
ATOM     19  N   UNK d   1      13.121  64.342 -13.029  0.00  0.00     0.087 N 
ATOM     20  C   UNK d   1      14.383  64.964 -12.774  0.00  0.00     0.291 C 
ATOM     21  C   UNK d   1      12.927  63.919 -14.392  0.00  0.00     0.310 C 
ATOM     22  C   UNK d   1      14.886  64.560 -11.405  0.00  0.00     0.154 C 
ENDBRANCH  14  16
ENDBRANCH   6   9
BRANCH   1  23
ATOM     23  C   UNK d   1      23.604  63.552  -7.339  0.00  0.00     0.144 A 
ATOM     24  O   UNK d   1      24.233  62.752  -6.515  0.00  0.00    -0.298 OA
ATOM     25  C   UNK d   1      24.130  63.141  -5.269  0.00  0.00     0.122 A 
ATOM     26 Br   UNK d   1      24.896  62.263  -3.755  0.00  0.00    -0.023 Br
ATOM     27  C   UNK d   1      23.370  64.291  -5.257  0.00  0.00     0.048 A 
ATOM     28  C   UNK d   1      23.045  64.541  -6.566  0.00  0.00     0.046 A 
ENDBRANCH   1  23
TORSDOF 3
ENDMDL
