MODEL 1
REMARK VINA RESULT:    -9.305      0.000      0.000
REMARK INTER + INTRA:         -11.031
REMARK INTER:                 -10.937
REMARK INTRA:                  -0.094
REMARK UNBOUND:                -0.094
REMARK  3 active torsions:
REMARK  status: ('A' for Active; 'I' for Inactive)
REMARK    1  A    between atoms: C_4  and  C_9 
REMARK       I    between atoms: C_9  and  N_11 
REMARK    2  A    between atoms: N_14  and  C_17 
REMARK    3  A    between atoms: C_17  and  C_18 
ROOT
ATOM      1  C   UNK d   1      19.468  62.737 -10.639  0.00  0.00     0.189 C 
ATOM      2  O   UNK d   1      20.021  62.642 -11.833  0.00  0.00    -0.171 OA
ATOM      3  N   UNK d   1      20.322  63.111  -9.612  0.00  0.00    -0.355 N 
ATOM      4  C   UNK d   1      21.750  63.370  -9.927  0.00  0.00     0.155 C 
ATOM      5  C   UNK d   1      22.103  64.763  -9.464  0.00  0.00     0.292 C 
ATOM      6  N   UNK d   1      21.841  64.886  -8.085  0.00  0.00     0.095 N 
ATOM      7  C   UNK d   1      21.302  63.692  -7.529  0.00  0.00     0.292 C 
ATOM      8  C   UNK d   1      19.994  63.287  -8.249  0.00  0.00     0.155 C 
ENDROOT
BRANCH   1   9
ATOM      9  C   UNK d   1      18.052  62.422 -10.667  0.00  0.00     0.042 A 
ATOM     10  C   UNK d   1      17.073  63.353 -10.886  0.00  0.00     0.043 A 
ATOM     11  C   UNK d   1      15.733  62.952 -10.896  0.00  0.00     0.087 A 
ATOM     12 Br   UNK d   1      14.336  64.181 -11.191  0.00  0.00    -0.045 Br
ATOM     13  C   UNK d   1      15.438  61.627 -10.684  0.00  0.00     0.305 A 
ATOM     14  O   UNK d   1      16.384  60.779 -10.482  0.00  0.00    -0.286 OA
ATOM     15  O   UNK d   1      14.249  61.215 -10.685  0.00  0.00    -0.258 OA
ATOM     16  C   UNK d   1      17.637  61.102 -10.464  0.00  0.00     0.162 A 
ENDBRANCH   1   9
BRANCH   6  17
ATOM     17  C   UNK d   1      22.892  65.434  -7.288  0.00  0.00     0.311 C 
BRANCH  17  18
ATOM     18  C   UNK d   1      23.482  64.520  -6.294  0.00  0.00    -0.027 A 
ATOM     19  C   UNK d   1      23.144  64.480  -4.980  0.00  0.00     0.048 A 
ATOM     20  C   UNK d   1      23.754  63.593  -4.128  0.00  0.00     0.105 A 
ATOM     21  C   UNK d   1      24.712  62.742  -4.610  0.00  0.00     0.105 A 
ATOM     22  O   UNK d   1      23.627  63.317  -2.758  0.00  0.00    -0.323 OA
ATOM     23  C   UNK d   1      25.071  62.764  -5.939  0.00  0.00     0.040 A 
ATOM     24  O   UNK d   1      25.184  61.946  -3.580  0.00  0.00    -0.323 OA
ATOM     25  C   UNK d   1      24.452  63.651  -6.758  0.00  0.00     0.012 A 
ATOM     26  C   UNK d   1      24.766  62.571  -2.375  0.00  0.00     0.352 C 
ENDBRANCH  17  18
ENDBRANCH   6  17
TORSDOF 3
ENDMDL
