/Users/jonathanwahrer/Desktop/Msc/3_Semester/Drug_Design_Praktikum/waehrer_HTS_screening/HTS_experiment/out/docking_results/vina_output/3sx0/0769_docked.pdbqt
 OpenBabel03192222013D

 26 29  0  0  0  0  0  0  0  0999 V2000
   19.4680   62.7370  -10.6390 C   0  0  0  0  0  0  0  0  0  0  0  0
   20.0210   62.6420  -11.8330 O   0  0  0  0  0  0  0  0  0  0  0  0
   20.3220   63.1110   -9.6120 N   0  0  0  0  0  0  0  0  0  0  0  0
   21.7500   63.3700   -9.9270 C   0  0  0  0  0  2  0  0  0  0  0  0
   22.1030   64.7630   -9.4640 C   0  0  0  0  0  2  0  0  0  0  0  0
   21.8410   64.8860   -8.0850 N   0  0  0  0  0  0  0  0  0  0  0  0
   21.3020   63.6920   -7.5290 C   0  0  0  0  0  2  0  0  0  0  0  0
   19.9940   63.2870   -8.2490 C   0  0  0  0  0  2  0  0  0  0  0  0
   18.0520   62.4220  -10.6670 C   0  0  0  0  0  0  0  0  0  0  0  0
   17.0730   63.3530  -10.8860 C   0  0  0  0  0  3  0  0  0  0  0  0
   15.7330   62.9520  -10.8960 C   0  0  0  0  0  0  0  0  0  0  0  0
   14.3360   64.1810  -11.1910 Br  0  0  0  0  0  0  0  0  0  0  0  0
   15.4380   61.6270  -10.6840 C   0  0  0  0  0  0  0  0  0  0  0  0
   16.3840   60.7790  -10.4820 O   0  0  0  0  0  0  0  0  0  0  0  0
   14.2490   61.2150  -10.6850 O   0  0  0  0  0  0  0  0  0  0  0  0
   17.6370   61.1020  -10.4640 C   0  0  0  0  0  3  0  0  0  0  0  0
   22.8920   65.4340   -7.2880 C   0  0  0  0  0  2  0  0  0  0  0  0
   23.4820   64.5200   -6.2940 C   0  0  0  0  0  0  0  0  0  0  0  0
   23.1440   64.4800   -4.9800 C   0  0  0  0  0  3  0  0  0  0  0  0
   23.7540   63.5930   -4.1280 C   0  0  0  0  0  0  0  0  0  0  0  0
   24.7120   62.7420   -4.6100 C   0  0  0  0  0  0  0  0  0  0  0  0
   23.6270   63.3170   -2.7580 O   0  0  0  0  0  0  0  0  0  0  0  0
   25.0710   62.7640   -5.9390 C   0  0  0  0  0  3  0  0  0  0  0  0
   25.1840   61.9460   -3.5800 O   0  0  0  0  0  0  0  0  0  0  0  0
   24.4520   63.6510   -6.7580 C   0  0  0  0  0  3  0  0  0  0  0  0
   24.7660   62.5710   -2.3750 C   0  0  0  0  0  2  0  0  0  0  0  0
  1  3  1  0  0  0  0
  2  1  2  0  0  0  0
  3  8  1  0  0  0  0
  4  3  1  0  0  0  0
  4  5  1  0  0  0  0
  5  6  1  0  0  0  0
  6  7  1  0  0  0  0
  6 17  1  0  0  0  0
  8  7  1  0  0  0  0
  9  1  1  0  0  0  0
  9 16  2  0  0  0  0
 10  9  1  0  0  0  0
 11 10  2  0  0  0  0
 11 13  1  0  0  0  0
 12 11  1  0  0  0  0
 13 14  1  0  0  0  0
 14 16  1  0  0  0  0
 15 13  2  0  0  0  0
 17 18  1  0  0  0  0
 18 19  1  0  0  0  0
 19 20  2  0  0  0  0
 20 22  1  0  0  0  0
 21 20  1  0  0  0  0
 21 24  1  0  0  0  0
 22 26  1  0  0  0  0
 23 21  2  0  0  0  0
 24 26  1  0  0  0  0
 25 18  2  0  0  0  0
 25 23  1  0  0  0  0
M  END
>  <Pose>
1

>  <Score>
-9.305

$$$$
