MODEL 1
REMARK VINA RESULT:    -8.159      0.000      0.000
REMARK INTER + INTRA:         -11.255
REMARK INTER:                 -11.021
REMARK INTRA:                  -0.233
REMARK UNBOUND:                -0.233
REMARK  7 active torsions:
REMARK  status: ('A' for Active; 'I' for Inactive)
REMARK    1  A    between atoms: N_4  and  C_10 
REMARK    2  A    between atoms: C_11  and  O_33 
REMARK       I    between atoms: N_18  and  C_21 
REMARK    3  A    between atoms: C_21  and  C_23 
REMARK    4  A    between atoms: C_25  and  O_29 
REMARK    5  A    between atoms: O_29  and  C_30 
REMARK    6  A    between atoms: C_30  and  C_31 
REMARK    7  A    between atoms: C_31  and  N_32 
ROOT
ATOM      1  C   UNK d   1      12.549  65.509 -15.231  0.00  0.00     0.152 C 
ATOM      2  C   UNK d   1      11.717  64.494 -14.439  0.00  0.00     0.080 C 
ATOM      3  C   UNK d   1      12.104  64.559 -13.001  0.00  0.00     0.077 C 
ATOM      4  C   UNK d   1      13.556  64.156 -12.874  0.00  0.00     0.067 C 
ATOM      5  O   UNK d   1      14.243  64.255 -14.069  0.00  0.00    -0.378 OA
ATOM      6  C   UNK d   1      13.967  65.417 -14.775  0.00  0.00     0.197 C 
ATOM      7  C   UNK d   1      14.150  64.947 -11.765  0.00  0.00     0.058 C 
ATOM      8  C   UNK d   1      15.616  64.520 -11.599  0.00  0.00     0.128 C 
ATOM      9  N   UNK d   1      15.625  63.173 -11.130  0.00  0.00    -0.359 N 
ATOM     10  C   UNK d   1      14.282  62.500 -11.145  0.00  0.00     0.128 C 
ATOM     11  C   UNK d   1      13.590  62.703 -12.452  0.00  0.00     0.058 C 
ATOM     12  C   UNK d   1      16.724  62.465 -10.687  0.00  0.00     0.187 C 
ATOM     13  O   UNK d   1      16.476  61.236 -10.282  0.00  0.00    -0.171 OA
ATOM     14  C   UNK d   1      10.255  64.680 -14.687  0.00  0.00     0.048 C 
ENDROOT
BRANCH   2  15
ATOM     15  O   UNK d   1      12.075  63.232 -14.920  0.00  0.00    -0.388 OA
ATOM     16  H   UNK d   1      11.814  63.092 -15.865  0.00  0.00     0.210 HD
ENDBRANCH   2  15
BRANCH   1  17
ATOM     17  N   UNK d   1      11.975  66.816 -15.217  0.00  0.00    -0.298 N 
ATOM     18  C   UNK d   1      12.137  67.705 -14.221  0.00  0.00     0.121 A 
ATOM     19  C   UNK d   1      11.571  68.955 -14.236  0.00  0.00     0.094 A 
ATOM     20 Br   UNK d   1      11.884  70.108 -12.756  0.00  0.00    -0.044 Br
ATOM     21  C   UNK d   1      10.802  69.337 -15.307  0.00  0.00     0.268 A 
ATOM     22  N   UNK d   1      10.641  68.450 -16.303  0.00  0.00    -0.274 N 
ATOM     23  O   UNK d   1      10.287  70.483 -15.313  0.00  0.00    -0.267 OA
ATOM     24  C   UNK d   1      11.200  67.251 -16.257  0.00  0.00     0.329 A 
ATOM     25  H   UNK d   1      10.055  68.754 -17.109  0.00  0.00     0.173 HD
ATOM     26  O   UNK d   1      11.001  66.472 -17.234  0.00  0.00    -0.246 OA
ENDBRANCH   1  17
BRANCH  12  27
ATOM     27  C   UNK d   1      18.092  62.833 -10.591  0.00  0.00     0.020 A 
ATOM     28  C   UNK d   1      18.681  63.044  -9.331  0.00  0.00     0.052 A 
ATOM     29  C   UNK d   1      19.978  63.381  -9.108  0.00  0.00     0.069 A 
ATOM     30  C   UNK d   1      20.794  63.527 -10.249  0.00  0.00     0.037 A 
ATOM     31  C   UNK d   1      20.251  63.329 -11.472  0.00  0.00     0.004 A 
ATOM     32  C   UNK d   1      18.903  62.982 -11.669  0.00  0.00     0.016 A 
BRANCH  29  33
ATOM     33  O   UNK d   1      20.511  63.581  -7.870  0.00  0.00    -0.349 OA
BRANCH  33  34
ATOM     34  C   UNK d   1      21.694  64.120  -7.459  0.00  0.00     0.205 C 
BRANCH  34  35
ATOM     35  C   UNK d   1      21.582  64.854  -6.166  0.00  0.00     0.293 C 
BRANCH  35  36
ATOM     36  N   UNK d   1      20.691  64.123  -5.264  0.00  0.00     0.080 N 
ATOM     37  H   UNK d   1      21.199  63.434  -4.689  0.00  0.00     0.312 HD
ATOM     38  H   UNK d   1      19.852  63.769  -5.732  0.00  0.00     0.312 HD
ENDBRANCH  35  36
ENDBRANCH  34  35
ENDBRANCH  33  34
ENDBRANCH  29  33
ENDBRANCH  12  27
TORSDOF 7
ENDMDL
