MODEL 1
REMARK VINA RESULT:    -4.485      0.000      0.000
REMARK INTER + INTRA:          -4.527
REMARK INTER:                  -5.927
REMARK INTRA:                   1.399
REMARK UNBOUND:                 1.399
REMARK  7 active torsions:
REMARK  status: ('A' for Active; 'I' for Inactive)
REMARK    1  A    between atoms: N_4  and  C_10 
REMARK    2  A    between atoms: C_11  and  O_33 
REMARK       I    between atoms: N_18  and  C_21 
REMARK    3  A    between atoms: C_21  and  C_23 
REMARK    4  A    between atoms: C_23  and  N_24 
REMARK    5  A    between atoms: C_23  and  C_25 
REMARK    6  A    between atoms: C_25  and  C_26 
REMARK    7  A    between atoms: C_29  and  O_32 
ROOT
ATOM      1  C   UNK d   1      14.101  62.453 -11.193  0.00  0.00     0.152 C 
ATOM      2  C   UNK d   1      13.810  63.855 -11.553  0.00  0.00     0.080 C 
ATOM      3  C   UNK d   1      12.612  64.023 -12.496  0.00  0.00     0.077 C 
ATOM      4  C   UNK d   1      12.786  63.173 -13.730  0.00  0.00     0.067 C 
ATOM      5  O   UNK d   1      13.665  62.129 -13.515  0.00  0.00    -0.378 OA
ATOM      6  C   UNK d   1      13.602  61.549 -12.286  0.00  0.00     0.197 C 
ATOM      7  C   UNK d   1      13.260  64.085 -14.847  0.00  0.00     0.058 C 
ATOM      8  C   UNK d   1      12.097  64.542 -15.685  0.00  0.00     0.129 C 
ATOM      9  N   UNK d   1      10.982  64.821 -14.815  0.00  0.00    -0.350 N 
ATOM     10  C   UNK d   1      10.382  63.666 -14.166  0.00  0.00     0.129 C 
ATOM     11  C   UNK d   1      11.440  62.589 -14.088  0.00  0.00     0.058 C 
ATOM     12  C   UNK d   1      10.512  66.125 -14.638  0.00  0.00     0.253 C 
ATOM     13  O   UNK d   1       9.517  66.247 -13.835  0.00  0.00    -0.271 OA
ATOM     14  C   UNK d   1      14.969  64.646 -12.065  0.00  0.00     0.048 C 
ENDROOT
BRANCH   2  15
ATOM     15  O   UNK d   1      13.393  64.510 -10.366  0.00  0.00    -0.388 OA
ATOM     16  H   UNK d   1      13.976  64.287  -9.603  0.00  0.00     0.210 HD
ENDBRANCH   2  15
BRANCH   1  17
ATOM     17  N   UNK d   1      15.491  62.185 -10.882  0.00  0.00    -0.298 N 
ATOM     18  C   UNK d   1      16.372  63.180 -10.900  0.00  0.00     0.121 A 
ATOM     19  C   UNK d   1      17.699  62.955 -10.616  0.00  0.00     0.094 A 
ATOM     20 Br   UNK d   1      18.955  64.409 -10.647  0.00  0.00    -0.044 Br
ATOM     21  C   UNK d   1      18.103  61.673 -10.311  0.00  0.00     0.268 A 
ATOM     22  N   UNK d   1      17.166  60.707 -10.309  0.00  0.00    -0.274 N 
ATOM     23  O   UNK d   1      19.314  61.415 -10.042  0.00  0.00    -0.267 OA
ATOM     24  C   UNK d   1      15.875  60.946 -10.589  0.00  0.00     0.329 A 
ATOM     25  H   UNK d   1      17.473  59.715 -10.074  0.00  0.00     0.173 HD
ATOM     26  O   UNK d   1      15.060  59.965 -10.562  0.00  0.00    -0.246 OA
ENDBRANCH   1  17
BRANCH  12  27
ATOM     27  C   UNK d   1      10.985  67.369 -15.236  0.00  0.00     0.313 C 
BRANCH  27  28
ATOM     28  N   UNK d   1       9.884  68.173 -15.769  0.00  0.00     0.092 N 
ATOM     29  H   UNK d   1       9.443  68.750 -15.020  0.00  0.00     0.313 HD
ATOM     30  H   UNK d   1       9.137  67.522 -16.116  0.00  0.00     0.313 HD
ENDBRANCH  27  28
BRANCH  27  31
ATOM     31  C   UNK d   1      11.751  68.283 -14.305  0.00  0.00     0.083 C 
BRANCH  31  32
ATOM     32  C   UNK d   1      12.587  69.173 -15.194  0.00  0.00    -0.056 A 
ATOM     33  C   UNK d   1      13.302  68.635 -16.232  0.00  0.00     0.010 A 
ATOM     34  C   UNK d   1      14.059  69.492 -17.027  0.00  0.00     0.037 A 
ATOM     35  C   UNK d   1      14.103  70.847 -16.794  0.00  0.00     0.065 A 
ATOM     36  C   UNK d   1      13.369  71.351 -15.739  0.00  0.00     0.037 A 
ATOM     37  C   UNK d   1      12.609  70.527 -14.933  0.00  0.00     0.010 A 
BRANCH  35  38
ATOM     38  O   UNK d   1      14.872  71.649 -17.616  0.00  0.00    -0.361 OA
ATOM     39  H   UNK d   1      15.790  71.386 -17.973  0.00  0.00     0.217 HD
ENDBRANCH  35  38
ENDBRANCH  31  32
ENDBRANCH  27  31
ENDBRANCH  12  27
TORSDOF 7
ENDMDL
