/Users/jonathanwahrer/Desktop/Msc/3_Semester/Drug_Design_Praktikum/waehrer_HTS_screening/HTS_experiment/out/docking_results/vina_output/3sx0/0783_docked.pdbqt
 OpenBabel03192222023D

 39 42  0  0  1  0  0  0  0  0999 V2000
   14.1010   62.4530  -11.1930 C   0  0  1  0  0  3  0  0  0  0  0  0
   13.8100   63.8550  -11.5530 C   0  0  2  0  0  0  0  0  0  0  0  0
   12.6120   64.0230  -12.4960 C   0  0  0  0  0  2  0  0  0  0  0  0
   12.7860   63.1730  -13.7300 C   0  0  2  0  0  0  0  0  0  0  0  0
   13.6650   62.1290  -13.5150 O   0  0  0  0  0  0  0  0  0  0  0  0
   13.6020   61.5490  -12.2860 C   0  0  0  0  0  2  0  0  0  0  0  0
   13.2600   64.0850  -14.8470 C   0  0  0  0  0  2  0  0  0  0  0  0
   12.0970   64.5420  -15.6850 C   0  0  0  0  0  2  0  0  0  0  0  0
   10.9820   64.8210  -14.8150 N   0  0  0  0  0  0  0  0  0  0  0  0
   10.3820   63.6660  -14.1660 C   0  0  0  0  0  2  0  0  0  0  0  0
   11.4400   62.5890  -14.0880 C   0  0  0  0  0  2  0  0  0  0  0  0
   10.5120   66.1250  -14.6380 C   0  0  0  0  0  0  0  0  0  0  0  0
    9.5170   66.2470  -13.8350 O   0  0  0  0  0  0  0  0  0  0  0  0
   14.9690   64.6460  -12.0650 C   0  0  0  0  0  1  0  0  0  0  0  0
   13.3930   64.5100  -10.3660 O   0  0  0  0  0  0  0  0  0  0  0  0
   13.9760   64.2870   -9.6030 H   0  0  0  0  0  0  0  0  0  0  0  0
   15.4910   62.1850  -10.8820 N   0  0  0  0  0  0  0  0  0  0  0  0
   16.3720   63.1800  -10.9000 C   0  0  0  0  0  3  0  0  0  0  0  0
   17.6990   62.9550  -10.6160 C   0  0  0  0  0  0  0  0  0  0  0  0
   18.9550   64.4090  -10.6470 Br  0  0  0  0  0  0  0  0  0  0  0  0
   18.1030   61.6730  -10.3110 C   0  0  0  0  0  0  0  0  0  0  0  0
   17.1660   60.7070  -10.3090 N   0  0  0  0  0  0  0  0  0  0  0  0
   19.3140   61.4150  -10.0420 O   0  0  0  0  0  0  0  0  0  0  0  0
   15.8750   60.9460  -10.5890 C   0  0  0  0  0  0  0  0  0  0  0  0
   17.4730   59.7150  -10.0740 H   0  0  0  0  0  0  0  0  0  0  0  0
   15.0600   59.9650  -10.5620 O   0  0  0  0  0  0  0  0  0  0  0  0
   10.9850   67.3690  -15.2360 C   0  0  1  0  0  3  0  0  0  0  0  0
    9.8840   68.1730  -15.7690 N   0  0  0  0  0  0  0  0  0  0  0  0
    9.4430   68.7500  -15.0200 H   0  0  0  0  0  0  0  0  0  0  0  0
    9.1370   67.5220  -16.1160 H   0  0  0  0  0  0  0  0  0  0  0  0
   11.7510   68.2830  -14.3050 C   0  0  0  0  0  2  0  0  0  0  0  0
   12.5870   69.1730  -15.1940 C   0  0  0  0  0  0  0  0  0  0  0  0
   13.3020   68.6350  -16.2320 C   0  0  0  0  0  3  0  0  0  0  0  0
   14.0590   69.4920  -17.0270 C   0  0  0  0  0  3  0  0  0  0  0  0
   14.1030   70.8470  -16.7940 C   0  0  0  0  0  0  0  0  0  0  0  0
   13.3690   71.3510  -15.7390 C   0  0  0  0  0  3  0  0  0  0  0  0
   12.6090   70.5270  -14.9330 C   0  0  0  0  0  3  0  0  0  0  0  0
   14.8720   71.6490  -17.6160 O   0  0  0  0  0  0  0  0  0  0  0  0
   15.7900   71.3860  -17.9730 H   0  0  0  0  0  0  0  0  0  0  0  0
  1  6  1  6  0  0  0
  1 17  1  0  0  0  0
  2 14  1  6  0  0  0
  2  1  1  0  0  0  0
  2 15  1  0  0  0  0
  3  2  1  0  0  0  0
  4  7  1  6  0  0  0
  4  5  1  0  0  0  0
  4  3  1  0  0  0  0
  5  6  1  0  0  0  0
  8  7  1  0  0  0  0
  8  9  1  0  0  0  0
  9 12  1  0  0  0  0
  9 10  1  0  0  0  0
 10 11  1  0  0  0  0
 11  4  1  0  0  0  0
 12 13  2  0  0  0  0
 15 16  1  0  0  0  0
 17 24  1  0  0  0  0
 18 17  1  0  0  0  0
 18 19  2  0  0  0  0
 19 21  1  0  0  0  0
 20 19  1  0  0  0  0
 21 22  1  0  0  0  0
 21 23  2  0  0  0  0
 22 25  1  0  0  0  0
 24 26  2  0  0  0  0
 24 22  1  0  0  0  0
 27 12  1  0  0  0  0
 27 31  1  1  0  0  0
 28 27  1  0  0  0  0
 28 29  1  0  0  0  0
 30 28  1  0  0  0  0
 32 37  1  0  0  0  0
 32 31  1  0  0  0  0
 33 32  2  0  0  0  0
 34 35  2  0  0  0  0
 34 33  1  0  0  0  0
 35 36  1  0  0  0  0
 36 37  2  0  0  0  0
 38 35  1  0  0  0  0
 39 38  1  0  0  0  0
M  END
>  <Pose>
1

>  <Score>
-4.485

$$$$
