MODEL 1
REMARK VINA RESULT:    22.169      0.000      0.000
REMARK INTER + INTRA:          28.340
REMARK INTER:                  29.297
REMARK INTRA:                  -0.957
REMARK UNBOUND:                -0.957
REMARK  6 active torsions:
REMARK  status: ('A' for Active; 'I' for Inactive)
REMARK    1  A    between atoms: N_4  and  C_10 
REMARK    2  A    between atoms: C_11  and  O_34 
REMARK       I    between atoms: N_18  and  C_21 
REMARK    3  A    between atoms: C_21  and  C_23 
REMARK    4  A    between atoms: C_23  and  N_24 
REMARK    5  A    between atoms: C_23  and  C_28 
REMARK       I    between atoms: N_24  and  C_25 
REMARK    6  A    between atoms: C_28  and  C_29 
ROOT
ATOM      1  C   UNK d   1      11.408  62.464 -16.803  0.00  0.00     0.152 C 
ATOM      2  C   UNK d   1      11.379  63.047 -15.381  0.00  0.00     0.080 C 
ATOM      3  C   UNK d   1      11.876  64.488 -15.564  0.00  0.00     0.077 C 
ATOM      4  C   UNK d   1      13.180  64.508 -16.312  0.00  0.00     0.067 C 
ATOM      5  O   UNK d   1      13.641  63.221 -16.451  0.00  0.00    -0.378 OA
ATOM      6  C   UNK d   1      12.823  62.384 -17.205  0.00  0.00     0.197 C 
ATOM      7  C   UNK d   1      14.173  65.235 -15.414  0.00  0.00     0.058 C 
ATOM      8  C   UNK d   1      14.051  66.723 -15.622  0.00  0.00     0.129 C 
ATOM      9  N   UNK d   1      12.730  67.056 -16.180  0.00  0.00    -0.350 N 
ATOM     10  C   UNK d   1      12.499  66.602 -17.520  0.00  0.00     0.129 C 
ATOM     11  C   UNK d   1      13.143  65.222 -17.616  0.00  0.00     0.058 C 
ATOM     12  C   UNK d   1      11.755  67.731 -15.446  0.00  0.00     0.243 C 
ATOM     13  O   UNK d   1      11.958  68.051 -14.211  0.00  0.00    -0.271 OA
ATOM     14  C   UNK d   1      12.253  62.265 -14.453  0.00  0.00     0.048 C 
ENDROOT
BRANCH   2  15
ATOM     15  O   UNK d   1      10.104  63.085 -14.861  0.00  0.00    -0.388 OA
ATOM     16  H   UNK d   1       9.924  63.992 -14.506  0.00  0.00     0.210 HD
ENDBRANCH   2  15
BRANCH   1  17
ATOM     17  N   UNK d   1      10.572  61.342 -16.951  0.00  0.00    -0.298 N 
ATOM     18  C   UNK d   1      10.919  60.076 -16.711  0.00  0.00     0.121 A 
ATOM     19  C   UNK d   1      10.028  59.016 -16.881  0.00  0.00     0.094 A 
ATOM     20 Br   UNK d   1      10.625  57.257 -16.513  0.00  0.00    -0.044 Br
ATOM     21  C   UNK d   1       8.744  59.267 -17.311  0.00  0.00     0.268 A 
ATOM     22  N   UNK d   1       8.408  60.548 -17.550  0.00  0.00    -0.274 N 
ATOM     23  O   UNK d   1       7.910  58.319 -17.476  0.00  0.00    -0.267 OA
ATOM     24  C   UNK d   1       9.288  61.547 -17.376  0.00  0.00     0.329 A 
ATOM     25  H   UNK d   1       7.437  60.792 -17.880  0.00  0.00     0.173 HD
ATOM     26  O   UNK d   1       8.911  62.726 -17.617  0.00  0.00    -0.246 OA
ENDBRANCH   1  17
BRANCH  12  27
ATOM     27  C   UNK d   1      10.466  68.118 -15.996  0.00  0.00     0.182 C 
BRANCH  27  28
ATOM     28  N   UNK d   1       9.389  67.427 -15.328  0.00  0.00    -0.348 N 
ATOM     29  C   UNK d   1       8.729  66.266 -15.713  0.00  0.00     0.214 C 
ATOM     30  O   UNK d   1       8.959  65.609 -16.749  0.00  0.00    -0.274 OA
ATOM     31  C   UNK d   1       7.622  65.685 -14.853  0.00  0.00     0.117 C 
ATOM     32  H   UNK d   1       9.069  67.887 -14.421  0.00  0.00     0.163 HD
ENDBRANCH  27  28
BRANCH  27  33
ATOM     33  C   UNK d   1      10.226  69.655 -15.873  0.00  0.00     0.095 C 
BRANCH  33  34
ATOM     34  C   UNK d   1      11.478  70.382 -16.147  0.00  0.00     0.053 A 
ATOM     35  N   UNK d   1      12.193  71.166 -15.356  0.00  0.00    -0.247 NA
ATOM     36  C   UNK d   1      13.294  71.649 -15.995  0.00  0.00     0.207 A 
ATOM     37  N   UNK d   1      13.257  71.139 -17.241  0.00  0.00    -0.359 N 
ATOM     38  C   UNK d   1      12.157  70.364 -17.353  0.00  0.00     0.116 A 
ATOM     39  H   UNK d   1      13.987  71.342 -17.966  0.00  0.00     0.166 HD
ENDBRANCH  33  34
ENDBRANCH  27  33
ENDBRANCH  12  27
TORSDOF 6
ENDMDL
