/Users/jonathanwahrer/Desktop/Msc/3_Semester/Drug_Design_Praktikum/waehrer_HTS_screening/HTS_experiment/out/docking_results/vina_output/3sx0/0786_docked.pdbqt
 OpenBabel03192222023D

 25 28  0  0  1  0  0  0  0  0999 V2000
   13.5100   64.2330  -12.3790 N   0  0  0  0  0  0  0  0  0  0  0  0
   13.1390   63.5720  -13.5610 C   0  0  0  0  0  0  0  0  0  0  0  0
   12.9280   62.3410  -13.5480 O   0  0  0  0  0  0  0  0  0  0  0  0
   13.6830   65.2560  -12.4010 H   0  0  0  0  0  0  0  0  0  0  0  0
   13.6480   63.4800  -11.1520 C   0  0  0  0  0  2  0  0  0  0  0  0
   15.0730   63.1890  -10.8570 C   0  0  0  0  0  0  0  0  0  0  0  0
   15.6550   61.9830  -10.7210 N   0  0  0  0  0  0  0  0  0  0  0  0
   16.9630   62.1430  -10.4540 C   0  0  0  0  0  0  0  0  0  0  0  0
   17.2300   63.4610  -10.4170 N   0  0  0  0  0  0  0  0  0  0  0  0
   17.9720   61.2110  -10.2350 C   0  0  0  0  0  3  0  0  0  0  0  0
   18.5080   63.8610  -10.1600 C   0  0  0  0  0  3  0  0  0  0  0  0
   16.0790   64.1130  -10.6620 C   0  0  0  0  0  3  0  0  0  0  0  0
   19.5290   62.9640   -9.9380 C   0  0  0  0  0  0  0  0  0  0  0  0
   21.3220   63.5310   -9.5790 Br  0  0  0  0  0  0  0  0  0  0  0  0
   19.2590   61.6120   -9.9760 C   0  0  0  0  0  3  0  0  0  0  0  0
   12.9920   64.3200  -14.8230 C   0  0  1  0  0  3  0  0  0  0  0  0
   12.0220   63.6220  -15.7420 C   0  0  0  0  0  2  0  0  0  0  0  0
   10.7490   63.5660  -15.0500 N   0  0  0  0  0  0  0  0  0  0  0  0
   10.3600   64.5890  -14.2720 C   0  0  0  0  0  0  0  0  0  0  0  0
    9.7850   62.6460  -15.0050 C   0  0  0  0  0  0  0  0  0  0  0  0
    9.1540   64.2600  -13.7670 N   0  0  0  0  0  0  0  0  0  0  0  0
   11.1410   65.8150  -14.0470 C   0  0  0  0  0  2  0  0  0  0  0  0
    8.8040   63.0880  -14.2070 N   0  0  0  0  0  0  0  0  0  0  0  0
   12.5470   65.7290  -14.5250 C   0  0  0  0  0  2  0  0  0  0  0  0
    9.7270   61.3200  -15.6950 C   0  0  0  0  0  1  0  0  0  0  0  0
  1  5  1  0  0  0  0
  2  3  2  0  0  0  0
  2  1  1  0  0  0  0
  4  1  1  0  0  0  0
  5  6  1  0  0  0  0
  6  7  1  0  0  0  0
  6 12  2  0  0  0  0
  7  8  2  0  0  0  0
  8  9  1  0  0  0  0
  8 10  1  0  0  0  0
  9 11  1  0  0  0  0
 10 15  2  0  0  0  0
 11 13  2  0  0  0  0
 12  9  1  0  0  0  0
 13 14  1  0  0  0  0
 15 13  1  0  0  0  0
 16 24  1  0  0  0  0
 16  2  1  1  0  0  0
 17 18  1  0  0  0  0
 17 16  1  0  0  0  0
 18 20  1  0  0  0  0
 18 19  1  0  0  0  0
 19 22  1  0  0  0  0
 19 21  2  0  0  0  0
 20 23  2  0  0  0  0
 23 21  1  0  0  0  0
 24 22  1  0  0  0  0
 25 20  1  0  0  0  0
M  END
>  <Pose>
1

>  <Score>
-6.847

$$$$
