MODEL 1
REMARK VINA RESULT:    -6.420      0.000      0.000
REMARK INTER + INTRA:          -6.736
REMARK INTER:                  -6.796
REMARK INTRA:                   0.060
REMARK UNBOUND:                 0.060
REMARK  1 active torsions:
REMARK  status: ('A' for Active; 'I' for Inactive)
REMARK    1  A    between atoms: C_6  and  C_11 
REMARK       I    between atoms: C_11  and  N_13 
ROOT
ATOM      1  C   UNK d   1      22.123  63.777  -9.556  0.00  0.00     0.274 C 
ATOM      2  O   UNK d   1      22.822  64.132 -10.544  0.00  0.00    -0.266 OA
ATOM      3  N   UNK d   1      20.760  63.458  -9.782  0.00  0.00    -0.343 N 
ATOM      4  C   UNK d   1      20.218  63.536 -11.089  0.00  0.00     0.161 C 
ATOM      5  C   UNK d   1      18.761  63.808 -11.121  0.00  0.00     0.241 C 
ATOM      6  N   UNK d   1      18.115  63.923  -9.845  0.00  0.00     0.096 N 
ATOM      7  C   UNK d   1      18.507  62.849  -8.952  0.00  0.00     0.292 C 
ATOM      8  C   UNK d   1      19.977  63.062  -8.643  0.00  0.00     0.156 C 
ATOM      9  C   UNK d   1      16.721  63.942 -10.172  0.00  0.00     0.273 C 
ATOM     10  C   UNK d   1      16.565  62.977 -11.320  0.00  0.00     0.032 C 
ATOM     11  C   UNK d   1      17.976  62.690 -11.786  0.00  0.00     0.039 C 
ENDROOT
BRANCH   1  12
ATOM     12  C   UNK d   1      22.746  63.707  -8.227  0.00  0.00     0.148 A 
ATOM     13  N   UNK d   1      23.751  62.939  -7.785  0.00  0.00    -0.161 NA
ATOM     14  N   UNK d   1      24.025  63.172  -6.511  0.00  0.00    -0.225 N 
ATOM     15  C   UNK d   1      24.930  62.665  -5.635  0.00  0.00     0.141 A 
ATOM     16  C   UNK d   1      23.194  64.124  -6.047  0.00  0.00     0.152 A 
ATOM     17  C   UNK d   1      25.008  63.094  -4.328  0.00  0.00     0.046 A 
ATOM     18 Br   UNK d   1      26.296  62.361  -3.105  0.00  0.00    -0.048 Br
ATOM     19  C   UNK d   1      24.146  64.068  -3.876  0.00  0.00     0.139 A 
ATOM     20  N   UNK d   1      23.261  64.554  -4.760  0.00  0.00    -0.240 NA
ATOM     21  C   UNK d   1      22.387  64.467  -7.113  0.00  0.00     0.091 A 
ENDBRANCH   1  12
TORSDOF 1
ENDMDL
