MODEL 1
REMARK VINA RESULT:    -5.272      0.000      0.000
REMARK INTER + INTRA:          -5.724
REMARK INTER:                  -5.888
REMARK INTRA:                   0.164
REMARK UNBOUND:                 0.164
REMARK  2 active torsions:
REMARK  status: ('A' for Active; 'I' for Inactive)
REMARK    1  A    between atoms: C_7  and  C_11 
REMARK       I    between atoms: C_11  and  N_13 
REMARK       I    between atoms: N_16  and  C_19 
REMARK    2  A    between atoms: C_19  and  C_21 
ROOT
ATOM      1  C   UNK d   1       9.265  62.993 -15.983  0.00  0.00     0.259 C 
ATOM      2  O   UNK d   1       9.257  62.815 -17.235  0.00  0.00    -0.267 OA
ATOM      3  N   UNK d   1       9.628  64.247 -15.427  0.00  0.00    -0.345 N 
ATOM      4  C   UNK d   1       9.611  64.367 -13.961  0.00  0.00     0.146 C 
ATOM      5  C   UNK d   1      10.619  65.479 -13.671  0.00  0.00     0.145 C 
ATOM      6  N   UNK d   1      11.692  65.287 -14.600  0.00  0.00    -0.354 N 
ATOM      7  C   UNK d   1      11.405  65.901 -15.930  0.00  0.00     0.145 C 
ATOM      8  C   UNK d   1      10.004  65.379 -16.261  0.00  0.00     0.146 C 
ATOM      9  C   UNK d   1      12.878  64.594 -14.421  0.00  0.00     0.211 C 
ATOM     10  O   UNK d   1      13.720  64.599 -15.412  0.00  0.00    -0.169 OA
ENDROOT
BRANCH   1  11
ATOM     11  C   UNK d   1       8.895  61.883 -15.140  0.00  0.00     0.099 A 
ATOM     12  C   UNK d   1       8.164  61.883 -13.975  0.00  0.00     0.160 A 
ATOM     13  N   UNK d   1       8.056  60.624 -13.519  0.00  0.00    -0.178 NA
ATOM     14  N   UNK d   1       8.701  59.820 -14.365  0.00  0.00    -0.225 N 
ATOM     15  C   UNK d   1       8.888  58.506 -14.366  0.00  0.00     0.141 A 
ATOM     16  C   UNK d   1       9.224  60.551 -15.364  0.00  0.00     0.167 A 
ATOM     17  C   UNK d   1       9.594  57.897 -15.354  0.00  0.00     0.046 A 
ATOM     18 Br   UNK d   1       9.857  56.011 -15.347  0.00  0.00    -0.048 Br
ATOM     19  C   UNK d   1      10.125  58.645 -16.369  0.00  0.00     0.139 A 
ATOM     20  N   UNK d   1       9.924  59.965 -16.348  0.00  0.00    -0.239 NA
ENDBRANCH   1  11
BRANCH   9  21
ATOM     21  C   UNK d   1      13.348  63.837 -13.273  0.00  0.00     0.128 A 
ATOM     22  O   UNK d   1      13.321  62.500 -13.182  0.00  0.00    -0.318 OA
ATOM     23  C   UNK d   1      13.795  62.081 -12.059  0.00  0.00     0.142 A 
ATOM     24  C   UNK d   1      14.182  63.156 -11.298  0.00  0.00     0.027 A 
ATOM     25  C   UNK d   1      13.891  64.260 -12.084  0.00  0.00     0.043 A 
ENDBRANCH   9  21
TORSDOF 2
ENDMDL
