/Users/jonathanwahrer/Desktop/Msc/3_Semester/Drug_Design_Praktikum/waehrer_HTS_screening/HTS_experiment/out/docking_results/vina_output/3sx0/0797_docked.pdbqt
 OpenBabel03192222033D

 28 31  0  0  0  0  0  0  0  0999 V2000
   21.6970   64.3150  -10.5180 O   0  0  0  0  0  0  0  0  0  0  0  0
   23.0140   64.1390  -10.0640 C   0  0  0  0  0  2  0  0  0  0  0  0
   23.1310   64.0860   -8.5840 C   0  0  0  0  0  0  0  0  0  0  0  0
   24.1110   63.3770   -7.9730 N   0  0  0  0  0  0  0  0  0  0  0  0
   24.2410   63.3160   -6.6360 C   0  0  0  0  0  0  0  0  0  0  0  0
   23.4030   63.9580   -5.8030 N   0  0  0  0  0  0  0  0  0  0  0  0
   25.2650   62.5750   -6.0410 C   0  0  0  0  0  3  0  0  0  0  0  0
   23.5490   63.8850   -4.4620 C   0  0  0  0  0  3  0  0  0  0  0  0
   22.4100   64.6770   -6.3660 C   0  0  0  0  0  0  0  0  0  0  0  0
   24.5480   63.1630   -3.8470 C   0  0  0  0  0  0  0  0  0  0  0  0
   24.7090   63.0930   -1.9370 Br  0  0  0  0  0  0  0  0  0  0  0  0
   25.4240   62.4940   -4.6750 C   0  0  0  0  0  3  0  0  0  0  0  0
   22.2590   64.7510   -7.7480 C   0  0  0  0  0  3  0  0  0  0  0  0
   21.6310   65.2710   -5.6050 O   0  0  0  0  0  0  0  0  0  0  0  0
   20.8050   63.3020  -10.8000 C   0  0  0  0  0  0  0  0  0  0  0  0
   20.6010   62.9720  -11.9860 O   0  0  0  0  0  0  0  0  0  0  0  0
   20.1120   62.6320   -9.6750 C   0  0  0  0  0  2  0  0  0  0  0  0
   18.7320   62.3940   -9.9880 N   0  0  0  0  0  0  0  0  0  0  0  0
   18.0930   61.1370  -10.0310 C   0  0  0  0  0  0  0  0  0  0  0  0
   18.5680   59.9920   -9.8170 O   0  0  0  0  0  0  0  0  0  0  0  0
   16.6750   61.3530  -10.3930 C   0  0  0  0  0  0  0  0  0  0  0  0
   16.4900   62.6990  -10.5560 C   0  0  0  0  0  0  0  0  0  0  0  0
   15.6290   60.4640  -10.5680 C   0  0  0  0  0  3  0  0  0  0  0  0
   15.2740   63.2190  -10.8950 C   0  0  0  0  0  3  0  0  0  0  0  0
   17.7680   63.3700  -10.3060 C   0  0  0  0  0  0  0  0  0  0  0  0
   14.2190   62.3570  -11.0750 C   0  0  0  0  0  3  0  0  0  0  0  0
   14.4050   60.9980  -10.9100 C   0  0  0  0  0  3  0  0  0  0  0  0
   17.9410   64.6260  -10.3740 O   0  0  0  0  0  0  0  0  0  0  0  0
  1  2  1  0  0  0  0
  2  3  1  0  0  0  0
  3  4  1  0  0  0  0
  3 13  2  0  0  0  0
  4  5  2  0  0  0  0
  5  7  1  0  0  0  0
  5  6  1  0  0  0  0
  6  8  1  0  0  0  0
  7 12  2  0  0  0  0
  8 10  2  0  0  0  0
  9  6  1  0  0  0  0
  9 14  2  0  0  0  0
 10 11  1  0  0  0  0
 12 10  1  0  0  0  0
 13  9  1  0  0  0  0
 15  1  1  0  0  0  0
 15 17  1  0  0  0  0
 16 15  2  0  0  0  0
 18 17  1  0  0  0  0
 19 18  1  0  0  0  0
 19 20  2  0  0  0  0
 21 19  1  0  0  0  0
 22 21  1  0  0  0  0
 22 25  1  0  0  0  0
 23 21  2  0  0  0  0
 24 22  2  0  0  0  0
 25 18  1  0  0  0  0
 26 27  2  0  0  0  0
 26 24  1  0  0  0  0
 27 23  1  0  0  0  0
 28 25  2  0  0  0  0
M  END
>  <Pose>
1

>  <Score>
-9.737

$$$$
