MODEL 1
REMARK VINA RESULT:    -9.737      0.000      0.000
REMARK INTER + INTRA:         -12.992
REMARK INTER:                 -12.584
REMARK INTRA:                  -0.408
REMARK UNBOUND:                -0.408
REMARK  5 active torsions:
REMARK  status: ('A' for Active; 'I' for Inactive)
REMARK    1  A    between atoms: C_7  and  C_11 
REMARK    2  A    between atoms: C_11  and  O_12 
REMARK    3  A    between atoms: O_12  and  C_13 
REMARK    4  A    between atoms: C_13  and  C_15 
REMARK    5  A    between atoms: C_15  and  N_16 
ROOT
ATOM      1  O   UNK d   1      21.697  64.315 -10.518  0.00  0.00    -0.314 OA
ENDROOT
BRANCH   1   2
ATOM      2  C   UNK d   1      23.014  64.139 -10.064  0.00  0.00     0.238 C 
BRANCH   2   3
ATOM      3  C   UNK d   1      23.131  64.086  -8.584  0.00  0.00     0.066 A 
ATOM      4  N   UNK d   1      24.111  63.377  -7.973  0.00  0.00    -0.233 NA
ATOM      5  C   UNK d   1      24.241  63.316  -6.636  0.00  0.00     0.137 A 
ATOM      6  N   UNK d   1      23.403  63.958  -5.803  0.00  0.00    -0.272 N 
ATOM      7  C   UNK d   1      25.265  62.575  -6.041  0.00  0.00     0.052 A 
ATOM      8  C   UNK d   1      23.549  63.885  -4.462  0.00  0.00     0.121 A 
ATOM      9  C   UNK d   1      22.410  64.677  -6.366  0.00  0.00     0.255 A 
ATOM     10  C   UNK d   1      24.548  63.163  -3.847  0.00  0.00     0.027 A 
ATOM     11 Br   UNK d   1      24.709  63.093  -1.937  0.00  0.00    -0.050 Br
ATOM     12  C   UNK d   1      25.424  62.494  -4.675  0.00  0.00     0.024 A 
ATOM     13  C   UNK d   1      22.259  64.751  -7.748  0.00  0.00     0.104 A 
ATOM     14  O   UNK d   1      21.631  65.271  -5.605  0.00  0.00    -0.268 OA
ENDBRANCH   2   3
ENDBRANCH   1   2
BRANCH   1  15
ATOM     15  C   UNK d   1      20.805  63.302 -10.800  0.00  0.00     0.277 C 
ATOM     16  O   UNK d   1      20.601  62.972 -11.986  0.00  0.00    -0.263 OA
BRANCH  15  17
ATOM     17  C   UNK d   1      20.112  62.632  -9.675  0.00  0.00     0.246 C 
BRANCH  17  18
ATOM     18  N   UNK d   1      18.732  62.394  -9.988  0.00  0.00    -0.271 N 
ATOM     19  C   UNK d   1      18.093  61.137 -10.031  0.00  0.00     0.262 A 
ATOM     20  O   UNK d   1      18.568  59.992  -9.817  0.00  0.00    -0.267 OA
ATOM     21  C   UNK d   1      16.675  61.353 -10.393  0.00  0.00     0.048 A 
ATOM     22  C   UNK d   1      16.490  62.699 -10.556  0.00  0.00     0.048 A 
ATOM     23  C   UNK d   1      15.629  60.464 -10.568  0.00  0.00     0.018 A 
ATOM     24  C   UNK d   1      15.274  63.219 -10.895  0.00  0.00     0.018 A 
ATOM     25  C   UNK d   1      17.768  63.370 -10.306  0.00  0.00     0.262 A 
ATOM     26  C   UNK d   1      14.219  62.357 -11.075  0.00  0.00     0.001 A 
ATOM     27  C   UNK d   1      14.405  60.998 -10.910  0.00  0.00     0.001 A 
ATOM     28  O   UNK d   1      17.941  64.626 -10.374  0.00  0.00    -0.267 OA
ENDBRANCH  17  18
ENDBRANCH  15  17
ENDBRANCH   1  15
TORSDOF 5
ENDMDL
