/Users/jonathanwahrer/Desktop/Msc/3_Semester/Drug_Design_Praktikum/waehrer_HTS_screening/HTS_experiment/out/docking_results/vina_output/3sx0/0800_docked.pdbqt
 OpenBabel03192222033D

 29 32  0  0  1  0  0  0  0  0999 V2000
   23.3790   63.4030   -8.4640 C   0  0  0  0  0  0  0  0  0  0  0  0
   24.1310   62.7230   -9.2080 O   0  0  0  0  0  0  0  0  0  0  0  0
   22.0200   63.2420   -8.5910 O   0  0  0  0  0  0  0  0  0  0  0  0
   21.1740   64.2390   -9.1330 C   0  0  0  0  0  2  0  0  0  0  0  0
   19.8920   63.6080   -9.5350 C   0  0  0  0  0  0  0  0  0  0  0  0
   18.8120   64.3430   -9.8510 N   0  0  0  0  0  0  0  0  0  0  0  0
   17.6370   63.7780  -10.2200 C   0  0  1  0  0  3  0  0  0  0  0  0
   17.5070   62.4370  -10.2840 N   0  0  0  0  0  0  0  0  0  0  0  0
   16.5570   64.5790  -10.5340 C   0  0  0  0  0  3  0  0  0  0  0  0
   16.3510   61.8550  -10.6470 C   0  0  0  0  0  3  0  0  0  0  0  0
   18.5650   61.6550   -9.9760 C   0  0  0  0  0  0  0  0  0  0  0  0
   15.2690   62.6490  -10.9620 C   0  0  0  0  0  0  0  0  0  0  0  0
   13.6290   61.8180  -11.4770 Br  0  0  0  0  0  0  0  0  0  0  0  0
   15.3510   64.0330  -10.9110 C   0  0  0  0  0  3  0  0  0  0  0  0
   19.7780   62.2380   -9.5960 C   0  0  0  0  0  2  0  0  0  0  0  0
   18.4520   60.4190  -10.0340 O   0  0  0  0  0  0  0  0  0  0  0  0
   24.0300   64.3300   -7.5020 C   0  0  0  0  0  2  0  0  0  0  0  0
   23.7670   63.9810   -6.1370 N   0  0  0  0  0  0  0  0  0  0  0  0
   22.6180   64.3470   -5.3740 C   0  0  0  0  0  0  0  0  0  0  0  0
   21.6540   65.0430   -5.8030 O   0  0  0  0  0  0  0  0  0  0  0  0
   22.7610   63.7940   -4.0700 N   0  0  0  0  0  0  0  0  0  0  0  0
   24.0730   63.2110   -3.9530 C   0  0  0  0  0  0  0  0  0  0  0  0
   22.0200   63.8230   -3.3480 H   0  0  0  0  0  0  0  0  0  0  0  0
   24.9870   64.0000   -3.0530 C   0  0  0  0  0  2  0  0  0  0  0  0
   24.0780   61.8560   -3.3320 C   0  0  0  0  0  2  0  0  0  0  0  0
   24.6270   63.1990   -5.3060 C   0  0  0  0  0  0  0  0  0  0  0  0
   26.0510   63.0120   -2.6920 C   0  0  0  0  0  2  0  0  0  0  0  0
   25.5480   61.6420   -3.0430 C   0  0  0  0  0  2  0  0  0  0  0  0
   25.6600   62.6240   -5.7210 O   0  0  0  0  0  0  0  0  0  0  0  0
  1 17  1  0  0  0  0
  2  1  2  0  0  0  0
  3  1  1  0  0  0  0
  4  3  1  0  0  0  0
  5  4  1  0  0  0  0
  6  5  2  0  0  0  0
  7  9  1  1  0  0  0
  7  6  1  0  0  0  0
  8  7  1  0  0  0  0
  8 11  1  0  0  0  0
 10  8  1  0  0  0  0
 11 15  1  0  0  0  0
 12 14  1  0  0  0  0
 12 10  2  0  0  0  0
 13 12  1  0  0  0  0
 14  9  2  0  0  0  0
 15  5  1  0  0  0  0
 16 11  2  0  0  0  0
 17 18  1  0  0  0  0
 18 19  1  0  0  0  0
 18 26  1  0  0  0  0
 19 21  1  0  0  0  0
 20 19  2  0  0  0  0
 21 22  1  0  0  0  0
 21 23  1  0  0  0  0
 22 25  1  0  0  0  0
 22 24  1  0  0  0  0
 24 27  1  0  0  0  0
 25 28  1  0  0  0  0
 26 22  1  0  0  0  0
 28 27  1  0  0  0  0
 29 26  2  0  0  0  0
M  END
>  <Pose>
1

>  <Score>
-8.644

$$$$
