MODEL 1
REMARK VINA RESULT:    -7.239      0.000      0.000
REMARK INTER + INTRA:          -9.219
REMARK INTER:                  -9.778
REMARK INTRA:                   0.559
REMARK UNBOUND:                 0.559
REMARK  6 active torsions:
REMARK  status: ('A' for Active; 'I' for Inactive)
REMARK    1  A    between atoms: C_16  and  N_17 
REMARK    2  A    between atoms: N_17  and  C_18 
REMARK    3  A    between atoms: C_19  and  C_24 
REMARK    4  A    between atoms: C_24  and  O_26 
REMARK    5  A    between atoms: O_26  and  C_27 
REMARK    6  A    between atoms: C_27  and  C_28 
ROOT
ATOM      1 Br   UNK d   1      18.576  61.051  -9.271  0.00  0.00    -0.046 Br
ATOM      2  C   UNK d   1      17.576  62.299 -10.297  0.00  0.00     0.072 A 
ATOM      3  C   UNK d   1      16.358  62.029 -10.815  0.00  0.00     0.141 A 
ATOM      4  N   UNK d   1      15.612  62.929 -11.462  0.00  0.00    -0.118 N 
ATOM      5  C   UNK d   1      16.094  64.163 -11.607  0.00  0.00     0.716 A 
ATOM      6  N   UNK d   1      15.354  65.096 -12.271  0.00  0.00    -0.063 NA
ATOM      7  C   UNK d   1      14.162  64.839 -12.791  0.00  0.00     0.091 A 
ATOM      8  C   UNK d   1      13.643  63.572 -12.654  0.00  0.00     0.062 A 
ATOM      9  C   UNK d   1      12.410  63.242 -13.180  0.00  0.00     0.019 A 
ATOM     10  C   UNK d   1      11.625  64.164 -13.874  0.00  0.00     0.001 A 
ATOM     11  C   UNK d   1      12.156  65.429 -14.004  0.00  0.00     0.002 A 
ATOM     12  C   UNK d   1      13.391  65.765 -13.478  0.00  0.00     0.033 A 
ATOM     13  C   UNK d   1      14.411  62.636 -11.973  0.00  0.00     0.278 A 
ATOM     14  O   UNK d   1      13.951  61.480 -11.843  0.00  0.00    -0.266 OA
ATOM     15  N   UNK d   1      17.312  64.459 -11.098  0.00  0.00    -0.173 N 
ATOM     16  C   UNK d   1      18.109  63.623 -10.447  0.00  0.00     0.140 A 
ATOM     17  H   UNK d   1      17.582  65.480 -11.280  0.00  0.00     0.186 HD
ENDROOT
BRANCH  16  18
ATOM     18  N   UNK d   1      19.379  63.817 -10.004  0.00  0.00    -0.340 N 
ATOM     19  H   UNK d   1      19.873  63.826 -11.278  0.00  0.00     0.167 HD
BRANCH  18  20
ATOM     20  C   UNK d   1      20.631  64.008  -9.567  0.00  0.00     0.050 A 
ATOM     21  C   UNK d   1      21.707  63.537 -10.331  0.00  0.00     0.066 A 
ATOM     22  C   UNK d   1      22.960  63.501  -9.814  0.00  0.00     0.020 A 
ATOM     23  C   UNK d   1      23.198  63.933  -8.532  0.00  0.00     0.001 A 
ATOM     24  C   UNK d   1      22.185  64.413  -7.733  0.00  0.00     0.002 A 
ATOM     25  C   UNK d   1      20.923  64.437  -8.278  0.00  0.00     0.030 A 
BRANCH  21  26
ATOM     26  C   UNK d   1      21.560  63.206 -11.754  0.00  0.00     0.295 C 
ATOM     27  O   UNK d   1      20.500  62.634 -12.113  0.00  0.00    -0.259 OA
BRANCH  26  28
ATOM     28  O   UNK d   1      22.482  63.462 -12.727  0.00  0.00    -0.317 OA
BRANCH  28  29
ATOM     29  C   UNK d   1      23.828  63.037 -12.639  0.00  0.00     0.178 C 
BRANCH  29  30
ATOM     30  C   UNK d   1      24.669  63.714 -13.725  0.00  0.00     0.022 C 
ATOM     31  C   UNK d   1      26.125  63.625 -13.334  0.00  0.00     0.007 C 
ENDBRANCH  29  30
ENDBRANCH  28  29
ENDBRANCH  26  28
ENDBRANCH  21  26
ENDBRANCH  18  20
ENDBRANCH  16  18
TORSDOF 6
ENDMDL
