/Users/jonathanwahrer/Desktop/Msc/3_Semester/Drug_Design_Praktikum/waehrer_HTS_screening/HTS_experiment/out/docking_results/vina_output/3sx0/0803_docked.pdbqt
 OpenBabel03192222043D

 31 34  0  0  0  0  0  0  0  0999 V2000
   18.5760   61.0510   -9.2710 Br  0  0  0  0  0  0  0  0  0  0  0  0
   17.5760   62.2990  -10.2970 C   0  0  0  0  0  0  0  0  0  0  0  0
   16.3580   62.0290  -10.8150 C   0  0  0  0  0  2  0  0  0  0  0  0
   15.6120   62.9290  -11.4620 N   0  0  0  0  0  0  0  0  0  0  0  0
   16.0940   64.1630  -11.6070 C   0  0  0  0  0  0  0  0  0  0  0  0
   15.3540   65.0960  -12.2710 N   0  0  0  0  0  0  0  0  0  0  0  0
   14.1620   64.8390  -12.7910 C   0  0  0  0  0  0  0  0  0  0  0  0
   13.6430   63.5720  -12.6540 C   0  0  0  0  0  0  0  0  0  0  0  0
   12.4100   63.2420  -13.1800 C   0  0  0  0  0  3  0  0  0  0  0  0
   11.6250   64.1640  -13.8740 C   0  0  0  0  0  3  0  0  0  0  0  0
   12.1560   65.4290  -14.0040 C   0  0  0  0  0  3  0  0  0  0  0  0
   13.3910   65.7650  -13.4780 C   0  0  0  0  0  3  0  0  0  0  0  0
   14.4110   62.6360  -11.9730 C   0  0  0  0  0  0  0  0  0  0  0  0
   13.9510   61.4800  -11.8430 O   0  0  0  0  0  0  0  0  0  0  0  0
   17.3120   64.4590  -11.0980 N   0  0  0  0  0  0  0  0  0  0  0  0
   18.1090   63.6230  -10.4470 C   0  0  0  0  0  0  0  0  0  0  0  0
   17.5820   65.4800  -11.2800 H   0  0  0  0  0  0  0  0  0  0  0  0
   19.3790   63.8170  -10.0040 N   0  0  0  0  0  0  0  0  0  0  0  0
   19.8730   63.8260  -11.2780 H   0  0  0  0  0  0  0  0  0  0  0  0
   20.6310   64.0080   -9.5670 C   0  0  0  0  0  0  0  0  0  0  0  0
   21.7070   63.5370  -10.3310 C   0  0  0  0  0  0  0  0  0  0  0  0
   22.9600   63.5010   -9.8140 C   0  0  0  0  0  3  0  0  0  0  0  0
   23.1980   63.9330   -8.5320 C   0  0  0  0  0  3  0  0  0  0  0  0
   22.1850   64.4130   -7.7330 C   0  0  0  0  0  3  0  0  0  0  0  0
   20.9230   64.4370   -8.2780 C   0  0  0  0  0  3  0  0  0  0  0  0
   21.5600   63.2060  -11.7540 C   0  0  0  0  0  0  0  0  0  0  0  0
   20.5000   62.6340  -12.1130 O   0  0  0  0  0  0  0  0  0  0  0  0
   22.4820   63.4620  -12.7270 O   0  0  0  0  0  0  0  0  0  0  0  0
   23.8280   63.0370  -12.6390 C   0  0  0  0  0  2  0  0  0  0  0  0
   24.6690   63.7140  -13.7250 C   0  0  0  0  0  2  0  0  0  0  0  0
   26.1250   63.6250  -13.3340 C   0  0  0  0  0  1  0  0  0  0  0  0
  2  1  1  0  0  0  0
  3  2  1  0  0  0  0
  4  3  1  0  0  0  0
  5  4  1  0  0  0  0
  5 15  1  0  0  0  0
  6  5  2  0  0  0  0
  7  8  1  0  0  0  0
  7  6  1  0  0  0  0
  8 13  1  0  0  0  0
  9  8  2  0  0  0  0
 10  9  1  0  0  0  0
 11 10  2  0  0  0  0
 11 12  1  0  0  0  0
 12  7  2  0  0  0  0
 13 14  2  0  0  0  0
 13  4  1  0  0  0  0
 15 16  1  0  0  0  0
 16  2  2  0  0  0  0
 16 18  1  0  0  0  0
 17 15  1  0  0  0  0
 18 20  1  0  0  0  0
 19 18  1  0  0  0  0
 20 25  1  0  0  0  0
 21 22  1  0  0  0  0
 21 20  2  0  0  0  0
 22 23  2  0  0  0  0
 23 24  1  0  0  0  0
 25 24  2  0  0  0  0
 26 21  1  0  0  0  0
 27 26  2  0  0  0  0
 28 29  1  0  0  0  0
 28 26  1  0  0  0  0
 30 31  1  0  0  0  0
 30 29  1  0  0  0  0
M  END
>  <Pose>
1

>  <Score>
-7.239

$$$$
