/Users/jonathanwahrer/Desktop/Msc/3_Semester/Drug_Design_Praktikum/waehrer_HTS_screening/HTS_experiment/out/docking_results/vina_output/3sx0/0827_docked.pdbqt
 OpenBabel03192222043D

 29 32  0  0  1  0  0  0  0  0999 V2000
   12.4290   63.9210  -15.7450 C   0  0  2  0  0  0  0  0  0  0  0  0
   11.1820   64.6820  -15.7610 N   0  0  0  0  0  4  0  0  0  0  0  0
   10.1200   63.8360  -15.5570 C   0  0  0  0  0  0  0  0  0  0  0  0
    8.8450   64.0140  -15.8030 C   0  0  0  0  0  3  0  0  0  0  0  0
    7.6220   63.1810  -15.6190 C   0  0  0  0  0  2  0  0  0  0  0  0
    7.8980   61.7700  -15.2030 C   0  0  0  0  0  2  0  0  0  0  0  0
    8.6950   61.7130  -13.9210 C   0  0  0  0  0  2  0  0  0  0  0  0
   10.1690   61.5520  -14.2350 C   0  0  0  0  0  2  0  0  0  0  0  0
   10.6600   62.5730  -15.1040 N   0  0  0  0  0  0  0  0  0  0  0  0
   11.9660   62.4290  -15.7620 C   0  0  0  0  0  2  0  0  0  0  0  0
   11.1110   64.8470  -16.8870 H   0  0  0  0  0  0  0  0  0  0  0  0
   11.2560   65.9720  -15.3060 C   0  0  0  0  0  0  0  0  0  0  0  0
   10.7470   66.4300  -14.1280 C   0  0  0  0  0  3  0  0  0  0  0  0
   10.6990   67.7940  -13.7940 C   0  0  0  0  0  3  0  0  0  0  0  0
   11.1730   68.7450  -14.6600 C   0  0  0  0  0  0  0  0  0  0  0  0
   11.6940   68.2860  -15.8610 C   0  0  0  0  0  3  0  0  0  0  0  0
   11.7390   66.9480  -16.1850 C   0  0  0  0  0  3  0  0  0  0  0  0
   11.1240   70.0940  -14.3530 O   0  0  0  0  0  0  0  0  0  0  0  0
   12.2160   70.8700  -13.9290 C   0  0  0  0  0  2  0  0  0  0  0  0
   12.1320   70.8980  -12.3910 C   0  0  0  0  0  1  0  0  0  0  0  0
   13.0960   64.0300  -14.4160 C   0  0  0  0  0  0  0  0  0  0  0  0
   12.9680   63.0700  -13.4400 C   0  0  0  0  0  3  0  0  0  0  0  0
   13.6100   63.2090  -12.2280 C   0  0  0  0  0  3  0  0  0  0  0  0
   14.3930   64.3200  -11.9760 C   0  0  0  0  0  0  0  0  0  0  0  0
   15.2540   64.4900  -10.2980 Br  0  0  0  0  0  0  0  0  0  0  0  0
   14.5300   65.2860  -12.9400 C   0  0  0  0  0  3  0  0  0  0  0  0
   13.8690   65.1240  -14.1650 C   0  0  0  0  0  3  0  0  0  0  0  0
   13.1930   64.1150  -16.8290 O   0  0  0  0  0  0  0  0  0  0  0  0
   13.0590   64.8860  -17.4000 H   0  0  0  0  0  0  0  0  0  0  0  0
  1 28  1  6  0  0  0
  1 21  1  0  0  0  0
  2  1  1  0  0  0  0
  2  3  1  0  0  0  0
  2 12  1  0  0  0  0
  3  9  1  0  0  0  0
  4  5  1  0  0  0  0
  4  3  2  0  0  0  0
  5  6  1  0  0  0  0
  6  7  1  0  0  0  0
  8  7  1  0  0  0  0
  9  8  1  0  0  0  0
 10  1  1  0  0  0  0
 10  9  1  0  0  0  0
 11  2  1  0  0  0  0
 12 13  1  0  0  0  0
 13 14  2  0  0  0  0
 15 18  1  0  0  0  0
 15 14  1  0  0  0  0
 16 15  2  0  0  0  0
 17 16  1  0  0  0  0
 17 12  2  0  0  0  0
 18 19  1  0  0  0  0
 19 20  1  0  0  0  0
 21 27  2  0  0  0  0
 21 22  1  0  0  0  0
 22 23  2  0  0  0  0
 23 24  1  0  0  0  0
 24 25  1  0  0  0  0
 26 24  2  0  0  0  0
 27 26  1  0  0  0  0
 29 28  1  0  0  0  0
M  END
>  <Pose>
1

>  <Score>
-4.850

$$$$
