MODEL 1
REMARK VINA RESULT:    -7.298      0.000      0.000
REMARK INTER + INTRA:          -9.490
REMARK INTER:                  -8.791
REMARK INTRA:                  -0.699
REMARK UNBOUND:                -0.699
REMARK  4 active torsions:
REMARK  status: ('A' for Active; 'I' for Inactive)
REMARK    1  A    between atoms: C_5  and  C_8 
REMARK    2  A    between atoms: C_8  and  O_26 
REMARK    3  A    between atoms: N_16  and  C_18 
REMARK    4  A    between atoms: C_19  and  O_24 
ROOT
ATOM      1  C   UNK d   1      19.662  62.396  -9.400  0.00  0.00     0.189 C 
ATOM      2  N   UNK d   1      20.717  62.996 -10.205  0.00  0.00    -0.324 N 
ATOM      3  C   UNK d   1      20.558  63.274 -11.628  0.00  0.00     0.128 C 
ATOM      4  C   UNK d   1      21.838  63.594 -12.309  0.00  0.00     0.020 C 
ATOM      5  C   UNK d   1      22.932  62.586 -12.069  0.00  0.00     0.005 C 
ATOM      6  C   UNK d   1      23.773  63.144 -10.937  0.00  0.00     0.031 C 
ATOM      7  C   UNK d   1      23.112  63.269  -9.671  0.00  0.00     0.030 C 
ATOM      8  C   UNK d   1      21.799  63.205  -9.353  0.00  0.00     0.208 C 
ATOM      9  N   UNK d   1      21.371  63.374  -8.021  0.00  0.00     0.011 N 
ATOM     10  C   UNK d   1      19.997  62.968  -8.066  0.00  0.00     0.316 C 
ATOM     11  H   UNK d   1      21.874  62.777  -7.325  0.00  0.00     0.295 HD
ENDROOT
BRANCH   1  12
ATOM     12  C   UNK d   1      18.333  62.795  -9.904  0.00  0.00    -0.001 A 
ATOM     13  C   UNK d   1      17.988  64.149  -9.858  0.00  0.00     0.013 A 
ATOM     14  C   UNK d   1      16.712  64.492 -10.307  0.00  0.00     0.020 A 
ATOM     15  C   UNK d   1      15.846  63.528 -10.768  0.00  0.00     0.011 A 
ATOM     16 Br   UNK d   1      14.105  64.043 -11.375  0.00  0.00    -0.051 Br
ATOM     17  C   UNK d   1      16.224  62.196 -10.800  0.00  0.00     0.020 A 
ATOM     18  C   UNK d   1      17.486  61.835 -10.359  0.00  0.00     0.013 A 
ENDBRANCH   1  12
BRANCH   1  19
ATOM     19  O   UNK d   1      19.808  61.035  -9.482  0.00  0.00    -0.365 OA
ATOM     20  H   UNK d   1      20.526  60.743 -10.082  0.00  0.00     0.213 HD
ENDBRANCH   1  19
BRANCH   9  21
ATOM     21  C   UNK d   1      21.519  64.765  -7.731  0.00  0.00     0.175 A 
ATOM     22  C   UNK d   1      22.292  65.188  -6.663  0.00  0.00     0.103 A 
ATOM     23  C   UNK d   1      22.308  66.555  -6.419  0.00  0.00     0.039 A 
ATOM     24  C   UNK d   1      21.612  67.486  -7.167  0.00  0.00     0.003 A 
ATOM     25  C   UNK d   1      20.839  67.007  -8.245  0.00  0.00     0.002 A 
ATOM     26  C   UNK d   1      20.833  65.678  -8.472  0.00  0.00     0.041 A 
BRANCH  22  27
ATOM     27  O   UNK d   1      22.984  64.281  -5.920  0.00  0.00    -0.354 OA
ATOM     28  C   UNK d   1      24.263  63.842  -6.297  0.00  0.00     0.210 C 
ENDBRANCH  22  27
ENDBRANCH   9  21
TORSDOF 4
ENDMDL
