MODEL 1
REMARK VINA RESULT:    -6.430      0.000      0.000
REMARK INTER + INTRA:          -7.554
REMARK INTER:                  -7.746
REMARK INTRA:                   0.191
REMARK UNBOUND:                 0.191
REMARK  4 active torsions:
REMARK  status: ('A' for Active; 'I' for Inactive)
REMARK    1  A    between atoms: C_5  and  C_8 
REMARK    2  A    between atoms: C_8  and  O_26 
REMARK    3  A    between atoms: N_16  and  C_18 
REMARK    4  A    between atoms: C_21  and  O_24 
ROOT
ATOM      1  C   UNK d   1      20.489  63.438 -10.971  0.00  0.00     0.189 C 
ATOM      2  N   UNK d   1      20.387  64.131  -9.727  0.00  0.00    -0.324 N 
ATOM      3  C   UNK d   1      20.659  65.510  -9.464  0.00  0.00     0.128 C 
ATOM      4  C   UNK d   1      21.466  65.829  -8.265  0.00  0.00     0.020 C 
ATOM      5  C   UNK d   1      21.888  64.693  -7.406  0.00  0.00     0.005 C 
ATOM      6  C   UNK d   1      20.723  64.113  -6.603  0.00  0.00     0.031 C 
ATOM      7  C   UNK d   1      20.057  63.105  -7.485  0.00  0.00     0.030 C 
ATOM      8  C   UNK d   1      19.917  63.116  -8.800  0.00  0.00     0.208 C 
ATOM      9  N   UNK d   1      19.275  62.086  -9.542  0.00  0.00     0.009 N 
ATOM     10  C   UNK d   1      20.168  61.973 -10.656  0.00  0.00     0.316 C 
ATOM     11  H   UNK d   1      19.263  61.221  -8.945  0.00  0.00     0.295 HD
ENDROOT
BRANCH   1  12
ATOM     12  C   UNK d   1      21.794  63.399 -11.628  0.00  0.00    -0.001 A 
ATOM     13  C   UNK d   1      22.062  63.310 -12.953  0.00  0.00     0.013 A 
ATOM     14  C   UNK d   1      23.360  63.285 -13.447  0.00  0.00     0.020 A 
ATOM     15  C   UNK d   1      24.433  63.352 -12.583  0.00  0.00     0.011 A 
ATOM     16 Br   UNK d   1      26.230  63.324 -13.236  0.00  0.00    -0.051 Br
ATOM     17  C   UNK d   1      24.165  63.442 -11.238  0.00  0.00     0.020 A 
ATOM     18  C   UNK d   1      22.888  63.468 -10.739  0.00  0.00     0.013 A 
ENDBRANCH   1  12
BRANCH   1  19
ATOM     19  O   UNK d   1      19.589  63.930 -11.935  0.00  0.00    -0.365 OA
ATOM     20  H   UNK d   1      20.161  64.264 -12.673  0.00  0.00     0.213 HD
ENDBRANCH   1  19
BRANCH   9  21
ATOM     21  C   UNK d   1      17.984  62.510  -9.895  0.00  0.00     0.142 A 
ATOM     22  C   UNK d   1      17.069  61.619 -10.486  0.00  0.00     0.040 A 
ATOM     23  C   UNK d   1      15.806  62.003 -10.845  0.00  0.00     0.039 A 
ATOM     24  C   UNK d   1      15.372  63.295 -10.638  0.00  0.00     0.068 A 
ATOM     25  C   UNK d   1      16.245  64.182 -10.063  0.00  0.00     0.039 A 
ATOM     26  C   UNK d   1      17.519  63.794  -9.702  0.00  0.00     0.040 A 
BRANCH  24  27
ATOM     27  O   UNK d   1      14.070  63.680 -11.011  0.00  0.00    -0.356 OA
ATOM     28  C   UNK d   1      13.818  64.133 -12.314  0.00  0.00     0.210 C 
ENDBRANCH  24  27
ENDBRANCH   9  21
TORSDOF 4
ENDMDL
