/Users/jonathanwahrer/Desktop/Msc/3_Semester/Drug_Design_Praktikum/waehrer_HTS_screening/HTS_experiment/out/docking_results/vina_output/3sx0/0835_docked.pdbqt
 OpenBabel03192222053D

 27 30  0  0  1  0  0  0  0  0999 V2000
   20.0520   63.6840   -9.4920 C   0  0  2  0  0  0  0  0  0  0  0  0
   21.0940   63.3050  -10.4210 N   0  0  0  0  0  0  0  0  0  0  0  0
   21.2210   63.0390  -11.8390 C   0  0  0  0  0  2  0  0  0  0  0  0
   22.5590   63.4900  -12.3880 C   0  0  0  0  0  2  0  0  0  0  0  0
   23.6360   62.7900  -11.6310 C   0  0  0  0  0  2  0  0  0  0  0  0
   23.4560   62.9300  -10.1710 C   0  0  0  0  0  3  0  0  0  0  0  0
   22.2640   63.1710   -9.6170 C   0  0  0  0  0  0  0  0  0  0  0  0
   21.9580   63.2990   -8.2470 N   0  0  0  0  0  4  0  0  0  0  0  0
   20.5060   63.0260   -8.2210 C   0  0  0  0  0  2  0  0  0  0  0  0
   22.3500   62.4720   -7.6870 H   0  0  0  0  0  0  0  0  0  0  0  0
   18.7040   63.2290   -9.9090 C   0  0  0  0  0  0  0  0  0  0  0  0
   17.7130   64.1530  -10.1630 C   0  0  0  0  0  3  0  0  0  0  0  0
   16.4300   63.7880  -10.5670 C   0  0  0  0  0  3  0  0  0  0  0  0
   16.1380   62.4520  -10.7190 C   0  0  0  0  0  0  0  0  0  0  0  0
   14.3720   61.9330  -11.2670 Br  0  0  0  0  0  0  0  0  0  0  0  0
   17.1170   61.5150  -10.4680 C   0  0  0  0  0  3  0  0  0  0  0  0
   18.3850   61.8930  -10.0680 C   0  0  0  0  0  3  0  0  0  0  0  0
   20.0010   65.0570   -9.2720 O   0  0  0  0  0  0  0  0  0  0  0  0
   20.3240   65.4890  -10.0990 H   0  0  0  0  0  0  0  0  0  0  0  0
   22.2510   64.5160   -7.6410 C   0  0  0  0  0  0  0  0  0  0  0  0
   23.4490   64.7930   -7.0290 C   0  0  0  0  0  0  0  0  0  0  0  0
   23.6680   66.0320   -6.4230 C   0  0  0  0  0  3  0  0  0  0  0  0
   22.6960   66.9990   -6.4250 C   0  0  0  0  0  3  0  0  0  0  0  0
   21.4920   66.7310   -7.0390 C   0  0  0  0  0  3  0  0  0  0  0  0
   21.2820   65.5120   -7.6330 C   0  0  0  0  0  3  0  0  0  0  0  0
   24.4820   63.8800   -6.9820 O   0  0  0  0  0  0  0  0  0  0  0  0
   24.6840   63.0750   -5.8680 C   0  0  0  0  0  1  0  0  0  0  0  0
  1 18  1  1  0  0  0
  1  9  1  0  0  0  0
  2  7  1  0  0  0  0
  2  1  1  0  0  0  0
  3  2  1  0  0  0  0
  4  3  1  0  0  0  0
  4  5  1  0  0  0  0
  5  6  1  0  0  0  0
  6  7  2  0  0  0  0
  7  8  1  0  0  0  0
  8  9  1  0  0  0  0
  8 10  1  0  0  0  0
  8 20  1  0  0  0  0
 11  1  1  0  0  0  0
 12 11  2  0  0  0  0
 13 12  1  0  0  0  0
 14 13  2  0  0  0  0
 14 16  1  0  0  0  0
 15 14  1  0  0  0  0
 16 17  2  0  0  0  0
 17 11  1  0  0  0  0
 19 18  1  0  0  0  0
 20 25  2  0  0  0  0
 20 21  1  0  0  0  0
 21 26  1  0  0  0  0
 21 22  2  0  0  0  0
 23 22  1  0  0  0  0
 24 23  2  0  0  0  0
 25 24  1  0  0  0  0
 26 27  1  0  0  0  0
M  END
>  <Pose>
1

>  <Score>
-9.028

$$$$
