MODEL 1
REMARK VINA RESULT:    -9.028      0.000      0.000
REMARK INTER + INTRA:          -9.144
REMARK INTER:                 -10.875
REMARK INTRA:                   1.732
REMARK UNBOUND:                 1.732
REMARK  4 active torsions:
REMARK  status: ('A' for Active; 'I' for Inactive)
REMARK    1  A    between atoms: C_5  and  C_8 
REMARK    2  A    between atoms: C_8  and  O_25 
REMARK    3  A    between atoms: N_15  and  C_17 
REMARK    4  A    between atoms: C_18  and  O_23 
ROOT
ATOM      1  C   UNK d   1      20.052  63.684  -9.492  0.00  0.00     0.189 C 
ATOM      2  N   UNK d   1      21.094  63.305 -10.421  0.00  0.00    -0.324 N 
ATOM      3  C   UNK d   1      21.221  63.039 -11.839  0.00  0.00     0.128 C 
ATOM      4  C   UNK d   1      22.559  63.490 -12.388  0.00  0.00     0.024 C 
ATOM      5  C   UNK d   1      23.636  62.790 -11.631  0.00  0.00     0.032 C 
ATOM      6  C   UNK d   1      23.456  62.930 -10.171  0.00  0.00     0.030 C 
ATOM      7  C   UNK d   1      22.264  63.171  -9.617  0.00  0.00     0.208 C 
ATOM      8  N   UNK d   1      21.958  63.299  -8.247  0.00  0.00     0.011 N 
ATOM      9  C   UNK d   1      20.506  63.026  -8.221  0.00  0.00     0.316 C 
ATOM     10  H   UNK d   1      22.350  62.472  -7.687  0.00  0.00     0.295 HD
ENDROOT
BRANCH   1  11
ATOM     11  C   UNK d   1      18.704  63.229  -9.909  0.00  0.00    -0.001 A 
ATOM     12  C   UNK d   1      17.713  64.153 -10.163  0.00  0.00     0.013 A 
ATOM     13  C   UNK d   1      16.430  63.788 -10.567  0.00  0.00     0.020 A 
ATOM     14  C   UNK d   1      16.138  62.452 -10.719  0.00  0.00     0.011 A 
ATOM     15 Br   UNK d   1      14.372  61.933 -11.267  0.00  0.00    -0.051 Br
ATOM     16  C   UNK d   1      17.117  61.515 -10.468  0.00  0.00     0.020 A 
ATOM     17  C   UNK d   1      18.385  61.893 -10.068  0.00  0.00     0.013 A 
ENDBRANCH   1  11
BRANCH   1  18
ATOM     18  O   UNK d   1      20.001  65.057  -9.272  0.00  0.00    -0.365 OA
ATOM     19  H   UNK d   1      20.324  65.489 -10.099  0.00  0.00     0.213 HD
ENDBRANCH   1  18
BRANCH   8  20
ATOM     20  C   UNK d   1      22.251  64.516  -7.641  0.00  0.00     0.175 A 
ATOM     21  C   UNK d   1      23.449  64.793  -7.029  0.00  0.00     0.103 A 
ATOM     22  C   UNK d   1      23.668  66.032  -6.423  0.00  0.00     0.039 A 
ATOM     23  C   UNK d   1      22.696  66.999  -6.425  0.00  0.00     0.003 A 
ATOM     24  C   UNK d   1      21.492  66.731  -7.039  0.00  0.00     0.002 A 
ATOM     25  C   UNK d   1      21.282  65.512  -7.633  0.00  0.00     0.041 A 
BRANCH  21  26
ATOM     26  O   UNK d   1      24.482  63.880  -6.982  0.00  0.00    -0.354 OA
ATOM     27  C   UNK d   1      24.684  63.075  -5.868  0.00  0.00     0.210 C 
ENDBRANCH  21  26
ENDBRANCH   8  20
TORSDOF 4
ENDMDL
