/Users/jonathanwahrer/Desktop/Msc/3_Semester/Drug_Design_Praktikum/waehrer_HTS_screening/HTS_experiment/out/docking_results/vina_output/3sx0/0836_docked.pdbqt
 OpenBabel03192222053D

 27 30  0  0  1  0  0  0  0  0999 V2000
   11.0700   65.0510  -16.0490 C   0  0  2  0  0  0  0  0  0  0  0  0
   10.3880   64.2230  -15.0850 N   0  0  0  0  0  0  0  0  0  0  0  0
    9.1970   64.3510  -14.2560 C   0  0  0  0  0  2  0  0  0  0  0  0
    8.5050   63.0780  -13.9570 C   0  0  0  0  0  2  0  0  0  0  0  0
    9.0570   61.8550  -14.6450 C   0  0  0  0  0  2  0  0  0  0  0  0
   10.5090   61.8820  -14.7940 C   0  0  0  0  0  3  0  0  0  0  0  0
   11.1410   63.0220  -15.0040 C   0  0  0  0  0  0  0  0  0  0  0  0
   12.5140   63.3530  -15.1830 N   0  0  0  0  0  4  0  0  0  0  0  0
   12.4950   64.5560  -15.9560 C   0  0  0  0  0  2  0  0  0  0  0  0
   12.9450   62.5640  -15.7370 H   0  0  0  0  0  0  0  0  0  0  0  0
   10.9450   66.4890  -15.8200 C   0  0  0  0  0  0  0  0  0  0  0  0
   11.7750   67.1260  -14.9210 C   0  0  0  0  0  3  0  0  0  0  0  0
   11.7030   68.4790  -14.6650 C   0  0  0  0  0  3  0  0  0  0  0  0
   10.7760   69.2760  -15.3100 C   0  0  0  0  0  0  0  0  0  0  0  0
   10.6540   71.1490  -14.9710 Br  0  0  0  0  0  0  0  0  0  0  0  0
    9.9380   68.6560  -16.2130 C   0  0  0  0  0  3  0  0  0  0  0  0
   10.0180   67.2980  -16.4640 C   0  0  0  0  0  3  0  0  0  0  0  0
   10.5160   64.7560  -17.3110 O   0  0  0  0  0  0  0  0  0  0  0  0
   11.2520   64.8730  -17.9610 H   0  0  0  0  0  0  0  0  0  0  0  0
   13.1240   63.4480  -13.9390 C   0  0  0  0  0  0  0  0  0  0  0  0
   13.2620   62.3400  -13.1370 C   0  0  0  0  0  3  0  0  0  0  0  0
   13.8780   62.4390  -11.8790 C   0  0  0  0  0  3  0  0  0  0  0  0
   14.3590   63.6280  -11.4070 C   0  0  0  0  0  0  0  0  0  0  0  0
   14.2160   64.7600  -12.2300 C   0  0  0  0  0  3  0  0  0  0  0  0
   13.6060   64.6300  -13.4610 C   0  0  0  0  0  3  0  0  0  0  0  0
   14.9800   63.7980  -10.1710 O   0  0  0  0  0  0  0  0  0  0  0  0
   15.8630   64.8140   -9.8230 C   0  0  0  0  0  1  0  0  0  0  0  0
  1 18  1  6  0  0  0
  1  9  1  0  0  0  0
  1 11  1  0  0  0  0
  1  2  1  0  0  0  0
  2  7  1  0  0  0  0
  2  3  1  0  0  0  0
  3  4  1  0  0  0  0
  5  4  1  0  0  0  0
  6  5  1  0  0  0  0
  7  6  2  0  0  0  0
  8  7  1  0  0  0  0
  8 20  1  0  0  0  0
  9  8  1  0  0  0  0
 10  8  1  0  0  0  0
 11 12  1  0  0  0  0
 12 13  2  0  0  0  0
 14 15  1  0  0  0  0
 14 13  1  0  0  0  0
 16 14  2  0  0  0  0
 17 16  1  0  0  0  0
 17 11  2  0  0  0  0
 19 18  1  0  0  0  0
 20 25  2  0  0  0  0
 20 21  1  0  0  0  0
 21 22  2  0  0  0  0
 22 23  1  0  0  0  0
 23 26  1  0  0  0  0
 24 23  2  0  0  0  0
 25 24  1  0  0  0  0
 26 27  1  0  0  0  0
M  END
>  <Pose>
1

>  <Score>
-5.001

$$$$
