MODEL 1
REMARK VINA RESULT:    -7.294      0.000      0.000
REMARK INTER + INTRA:          -9.643
REMARK INTER:                  -9.000
REMARK INTRA:                  -0.643
REMARK UNBOUND:                -0.643
REMARK  4 active torsions:
REMARK  status: ('A' for Active; 'I' for Inactive)
REMARK    1  A    between atoms: C_12  and  C_15 
REMARK    2  A    between atoms: C_12  and  C_22 
REMARK    3  A    between atoms: C_15  and  N_16 
REMARK    4  A    between atoms: C_22  and  N_23 
ROOT
ATOM      1 Br   UNK d   1      23.115  63.045 -11.821  0.00  0.00    -0.048 Br
ATOM      2  C   UNK d   1      21.685  63.312 -10.619  0.00  0.00     0.052 A 
ATOM      3  C   UNK d   1      21.987  63.509  -9.294  0.00  0.00     0.100 A 
ATOM      4  C   UNK d   1      21.009  63.719  -8.307  0.00  0.00     0.047 A 
ATOM      5  C   UNK d   1      19.663  63.727  -8.692  0.00  0.00     0.038 A 
ATOM      6  C   UNK d   1      19.375  63.528 -10.023  0.00  0.00     0.019 A 
ATOM      7  C   UNK d   1      20.353  63.323 -10.979  0.00  0.00    -0.024 A 
ATOM      8  C   UNK d   1      20.007  63.108 -12.425  0.00  0.00     0.051 C 
ATOM      9 Br   UNK d   1      17.542  63.541 -10.546  0.00  0.00    -0.051 Br
ATOM     10  C   UNK d   1      21.388  63.914  -6.920  0.00  0.00     0.176 C 
ATOM     11  O   UNK d   1      20.577  63.495  -6.057  0.00  0.00    -0.291 OA
ATOM     12  C   UNK d   1      22.678  64.581  -6.659  0.00  0.00     0.095 C 
ATOM     13  C   UNK d   1      23.648  63.610  -7.472  0.00  0.00     0.197 C 
ATOM     14  O   UNK d   1      23.279  63.520  -8.801  0.00  0.00    -0.347 OA
ENDROOT
BRANCH  12  15
ATOM     15  C   UNK d   1      23.167  64.563  -5.295  0.00  0.00     0.256 C 
BRANCH  15  16
ATOM     16  N   UNK d   1      23.369  63.478  -4.457  0.00  0.00    -0.070 N 
ATOM     17  C   UNK d   1      23.161  63.534  -3.063  0.00  0.00     0.235 C 
ATOM     18  C   UNK d   1      24.025  62.558  -2.274  0.00  0.00     0.028 C 
ATOM     19  C   UNK d   1      25.478  62.898  -2.371  0.00  0.00     0.003 C 
ATOM     20  C   UNK d   1      25.739  63.462  -3.733  0.00  0.00     0.028 C 
ATOM     21  C   UNK d   1      24.724  62.933  -4.692  0.00  0.00     0.235 C 
ATOM     22  H   UNK d   1      22.780  62.606  -4.792  0.00  0.00     0.279 HD
ENDBRANCH  15  16
ENDBRANCH  12  15
BRANCH  12  23
ATOM     23  C   UNK d   1      22.713  65.898  -7.336  0.00  0.00     0.256 C 
BRANCH  23  24
ATOM     24  N   UNK d   1      22.503  67.084  -6.618  0.00  0.00    -0.070 N 
ATOM     25  C   UNK d   1      23.706  67.918  -6.746  0.00  0.00     0.235 C 
ATOM     26  C   UNK d   1      23.700  69.080  -5.776  0.00  0.00     0.028 C 
ATOM     27  C   UNK d   1      22.527  69.974  -6.210  0.00  0.00     0.003 C 
ATOM     28  C   UNK d   1      21.310  69.091  -6.055  0.00  0.00     0.028 C 
ATOM     29  C   UNK d   1      21.432  67.951  -7.081  0.00  0.00     0.235 C 
ATOM     30  H   UNK d   1      22.360  67.023  -5.589  0.00  0.00     0.279 HD
ENDBRANCH  23  24
ENDBRANCH  12  23
TORSDOF 4
ENDMDL
