/Users/jonathanwahrer/Desktop/Msc/3_Semester/Drug_Design_Praktikum/waehrer_HTS_screening/HTS_experiment/out/docking_results/vina_output/3sx0/0865_docked.pdbqt
 OpenBabel03192222063D

 30 33  0  0  0  0  0  0  0  0999 V2000
   22.9570   63.8700   -8.2720 C   0  0  0  0  0  0  0  0  0  0  0  0
   22.6560   65.1790   -8.1320 N   0  0  0  0  0  4  0  0  0  0  0  0
   22.9260   65.8780   -7.0010 C   0  0  0  0  0  0  0  0  0  0  0  0
   23.5120   65.2020   -6.0100 N   0  0  0  0  0  0  0  0  0  0  0  0
   23.8390   63.9000   -6.0790 C   0  0  0  0  0  0  0  0  0  0  0  0
   23.5470   63.2640   -7.2270 N   0  0  0  0  0  2  0  0  0  0  0  0
   22.6470   63.2030   -9.4800 N   0  0  0  0  0  0  0  0  0  0  0  0
   23.4150   62.8330  -10.0650 H   0  0  0  0  0  0  0  0  0  0  0  0
   21.3290   63.0460   -9.8860 N   0  0  0  0  0  0  0  0  0  0  0  0
   20.3710   62.7230   -9.0940 C   0  0  0  0  0  3  0  0  0  0  0  0
   19.0100   62.5760   -9.5920 C   0  0  0  0  0  0  0  0  0  0  0  0
   18.1400   63.6490   -9.6910 C   0  0  0  0  0  3  0  0  0  0  0  0
   16.8530   63.5050  -10.1640 C   0  0  0  0  0  0  0  0  0  0  0  0
   16.3790   62.2720  -10.5600 C   0  0  0  0  0  0  0  0  0  0  0  0
   15.6750   65.0040  -10.2880 Br  0  0  0  0  0  0  0  0  0  0  0  0
   15.1120   62.1070  -11.0300 F   0  0  0  0  0  0  0  0  0  0  0  0
   17.2320   61.1970  -10.4680 C   0  0  0  0  0  3  0  0  0  0  0  0
   18.5270   61.3470   -9.9900 C   0  0  0  0  0  3  0  0  0  0  0  0
   22.5870   67.2570   -6.9070 N   0  0  0  0  0  0  0  0  0  0  0  0
   23.5550   68.3280   -6.8670 C   0  0  0  0  0  2  0  0  0  0  0  0
   23.1890   69.1070   -5.6050 C   0  0  0  0  0  2  0  0  0  0  0  0
   21.9960   69.7020   -5.7880 O   0  0  0  0  0  0  0  0  0  0  0  0
   20.9700   69.0160   -6.3070 C   0  0  0  0  0  2  0  0  0  0  0  0
   21.2020   67.6600   -6.8450 C   0  0  0  0  0  2  0  0  0  0  0  0
   24.4630   63.2470   -4.9820 N   0  0  0  0  0  0  0  0  0  0  0  0
   25.6940   62.5150   -5.2080 C   0  0  0  0  0  2  0  0  0  0  0  0
   26.1440   61.8740   -3.9150 C   0  0  0  0  0  2  0  0  0  0  0  0
   26.1610   62.7190   -2.8420 O   0  0  0  0  0  0  0  0  0  0  0  0
   25.1080   63.5850   -2.7220 C   0  0  0  0  0  2  0  0  0  0  0  0
   23.9460   63.2620   -3.6460 C   0  0  0  0  0  2  0  0  0  0  0  0
  1  2  2  0  0  0  0
  1  6  1  0  0  0  0
  2  3  2  0  0  0  0
  3 19  1  0  0  0  0
  3  4  1  0  0  0  0
  5  4  2  0  0  0  0
  5 25  1  0  0  0  0
  6  5  1  0  0  0  0
  7  1  1  0  0  0  0
  8  7  1  0  0  0  0
  9  7  1  0  0  0  0
  9 10  2  0  0  0  0
 11 10  1  0  0  0  0
 12 11  1  0  0  0  0
 13 12  2  0  0  0  0
 14 17  2  0  0  0  0
 14 13  1  0  0  0  0
 15 13  1  0  0  0  0
 16 14  1  0  0  0  0
 17 18  1  0  0  0  0
 18 11  2  0  0  0  0
 19 20  1  0  0  0  0
 19 24  1  0  0  0  0
 20 21  1  0  0  0  0
 22 21  1  0  0  0  0
 23 22  1  0  0  0  0
 24 23  1  0  0  0  0
 25 30  1  0  0  0  0
 26 25  1  0  0  0  0
 26 27  1  0  0  0  0
 27 28  1  0  0  0  0
 28 29  1  0  0  0  0
 30 29  1  0  0  0  0
M  END
>  <Pose>
1

>  <Score>
-8.584

$$$$
