MODEL 1
REMARK VINA RESULT:    -8.584      0.000      0.000
REMARK INTER + INTRA:         -11.904
REMARK INTER:                 -11.093
REMARK INTRA:                  -0.811
REMARK UNBOUND:                -0.811
REMARK  5 active torsions:
REMARK  status: ('A' for Active; 'I' for Inactive)
REMARK    1  A    between atoms: C_5  and  C_8 
REMARK    2  A    between atoms: N_9  and  N_10 
REMARK    3  A    between atoms: N_10  and  C_11 
REMARK    4  A    between atoms: C_13  and  N_23 
REMARK    5  A    between atoms: C_15  and  N_17 
ROOT
ATOM      1  C   UNK d   1      22.957  63.870  -8.272  0.00  0.00     0.774 A 
ATOM      2  N   UNK d   1      22.656  65.179  -8.132  0.00  0.00     0.133 NA
ATOM      3  C   UNK d   1      22.926  65.878  -7.001  0.00  0.00     0.756 A 
ATOM      4  N   UNK d   1      23.512  65.202  -6.010  0.00  0.00     0.131 NA
ATOM      5  C   UNK d   1      23.839  63.900  -6.079  0.00  0.00     0.756 A 
ATOM      6  N   UNK d   1      23.547  63.264  -7.227  0.00  0.00     0.133 NA
ENDROOT
BRANCH   1   7
ATOM      7  N   UNK d   1      22.647  63.203  -9.480  0.00  0.00    -0.105 N 
ATOM      8  H   UNK d   1      23.415  62.833 -10.065  0.00  0.00     0.208 HD
BRANCH   7   9
ATOM      9  N   UNK d   1      21.329  63.046  -9.886  0.00  0.00    -0.172 NA
ATOM     10  C   UNK d   1      20.371  62.723  -9.094  0.00  0.00     0.150 C 
BRANCH  10  11
ATOM     11  C   UNK d   1      19.010  62.576  -9.592  0.00  0.00    -0.016 A 
ATOM     12  C   UNK d   1      18.140  63.649  -9.691  0.00  0.00     0.035 A 
ATOM     13  C   UNK d   1      16.853  63.505 -10.164  0.00  0.00     0.050 A 
ATOM     14  C   UNK d   1      16.379  62.272 -10.560  0.00  0.00     0.133 A 
ATOM     15 Br   UNK d   1      15.675  65.004 -10.288  0.00  0.00    -0.048 Br
ATOM     16  F   UNK d   1      15.112  62.107 -11.030  0.00  0.00    -0.205 F 
ATOM     17  C   UNK d   1      17.232  61.197 -10.468  0.00  0.00     0.044 A 
ATOM     18  C   UNK d   1      18.527  61.347  -9.990  0.00  0.00     0.016 A 
ENDBRANCH  10  11
ENDBRANCH   7   9
ENDBRANCH   1   7
BRANCH   3  19
ATOM     19  N   UNK d   1      22.587  67.257  -6.907  0.00  0.00    -0.209 N 
ATOM     20  C   UNK d   1      23.555  68.328  -6.867  0.00  0.00     0.167 C 
ATOM     21  C   UNK d   1      23.189  69.107  -5.605  0.00  0.00     0.188 C 
ATOM     22  O   UNK d   1      21.996  69.702  -5.788  0.00  0.00    -0.388 OA
ATOM     23  C   UNK d   1      20.970  69.016  -6.307  0.00  0.00     0.188 C 
ATOM     24  C   UNK d   1      21.202  67.660  -6.845  0.00  0.00     0.167 C 
ENDBRANCH   3  19
BRANCH   5  25
ATOM     25  N   UNK d   1      24.463  63.247  -4.982  0.00  0.00    -0.209 N 
ATOM     26  C   UNK d   1      25.694  62.515  -5.208  0.00  0.00     0.167 C 
ATOM     27  C   UNK d   1      26.144  61.874  -3.915  0.00  0.00     0.188 C 
ATOM     28  O   UNK d   1      26.161  62.719  -2.842  0.00  0.00    -0.388 OA
ATOM     29  C   UNK d   1      25.108  63.585  -2.722  0.00  0.00     0.188 C 
ATOM     30  C   UNK d   1      23.946  63.262  -3.646  0.00  0.00     0.167 C 
ENDBRANCH   5  25
TORSDOF 5
ENDMDL
