MODEL 1
REMARK VINA RESULT:    -4.874      0.000      0.000
REMARK INTER + INTRA:          -7.122
REMARK INTER:                  -6.299
REMARK INTRA:                  -0.824
REMARK UNBOUND:                -0.824
REMARK  5 active torsions:
REMARK  status: ('A' for Active; 'I' for Inactive)
REMARK    1  A    between atoms: C_3  and  C_8 
REMARK    2  A    between atoms: N_9  and  C_24 
REMARK    3  A    between atoms: C_15  and  C_17 
REMARK    4  A    between atoms: C_24  and  C_25 
REMARK    5  A    between atoms: C_25  and  N_26 
ROOT
ATOM      1  C   UNK d   1      10.311  66.565 -16.437  0.00  0.00     0.164 C 
ATOM      2  N   UNK d   1       9.035  65.872 -16.348  0.00  0.00    -0.330 N 
ATOM      3  C   UNK d   1       8.833  65.826 -14.919  0.00  0.00     0.295 C 
ATOM      4  O   UNK d   1       7.749  65.844 -14.278  0.00  0.00    -0.264 OA
ATOM      5  C   UNK d   1      10.164  65.750 -14.253  0.00  0.00     0.250 C 
ATOM      6  O   UNK d   1      10.496  65.692 -13.070  0.00  0.00    -0.282 OA
ATOM      7  C   UNK d   1      11.093  65.759 -15.421  0.00  0.00     0.062 C 
ATOM      8  C   UNK d   1      12.276  65.201 -15.492  0.00  0.00     0.130 C 
ATOM      9  O   UNK d   1      13.023  65.322 -16.681  0.00  0.00    -0.190 OA
ENDROOT
BRANCH   2  10
ATOM     10  C   UNK d   1       8.138  65.339 -17.281  0.00  0.00     0.155 C 
BRANCH  10  11
ATOM     11  C   UNK d   1       8.167  63.891 -17.614  0.00  0.00     0.255 C 
BRANCH  11  12
ATOM     12  N   UNK d   1       8.928  63.089 -16.699  0.00  0.00    -0.066 N 
ATOM     13  C   UNK d   1       9.555  62.009 -17.431  0.00  0.00     0.261 C 
ATOM     14  C   UNK d   1      10.467  61.203 -16.524  0.00  0.00     0.195 C 
ATOM     15  O   UNK d   1       9.723  60.685 -15.482  0.00  0.00    -0.388 OA
ATOM     16  C   UNK d   1       9.077  61.704 -14.788  0.00  0.00     0.195 C 
ATOM     17  C   UNK d   1       8.070  62.409 -15.707  0.00  0.00     0.261 C 
ATOM     18  H   UNK d   1       9.590  63.630 -16.106  0.00  0.00     0.280 HD
ENDBRANCH  11  12
ENDBRANCH  10  11
ENDBRANCH   2  10
BRANCH   1  19
ATOM     19  C   UNK d   1      10.284  67.965 -15.984  0.00  0.00     0.008 A 
ATOM     20  C   UNK d   1       9.326  68.870 -16.394  0.00  0.00     0.125 A 
ATOM     21  F   UNK d   1       8.341  68.526 -17.209  0.00  0.00    -0.205 F 
ATOM     22  C   UNK d   1       9.351  70.200 -15.964  0.00  0.00     0.043 A 
ATOM     23  C   UNK d   1      10.318  70.650 -15.126  0.00  0.00     0.003 A 
ATOM     24  C   UNK d   1      11.284  69.785 -14.699  0.00  0.00     0.001 A 
ATOM     25  C   UNK d   1      11.240  68.471 -15.139  0.00  0.00     0.012 A 
ENDBRANCH   1  19
BRANCH   8  26
ATOM     26  C   UNK d   1      12.844  64.456 -14.378  0.00  0.00     0.001 A 
ATOM     27  C   UNK d   1      12.541  63.119 -14.244  0.00  0.00     0.015 A 
ATOM     28  C   UNK d   1      13.024  62.357 -13.193  0.00  0.00     0.020 A 
ATOM     29  C   UNK d   1      13.836  62.938 -12.243  0.00  0.00     0.011 A 
ATOM     30  C   UNK d   1      14.148  64.258 -12.354  0.00  0.00     0.020 A 
ATOM     31 Br   UNK d   1      14.523  61.902 -10.769  0.00  0.00    -0.051 Br
ATOM     32  C   UNK d   1      13.651  65.021 -13.426  0.00  0.00     0.015 A 
ENDBRANCH   8  26
TORSDOF 5
ENDMDL
