MODEL 1
REMARK VINA RESULT:    -8.905      0.000      0.000
REMARK INTER + INTRA:         -11.834
REMARK INTER:                 -10.988
REMARK INTRA:                  -0.846
REMARK UNBOUND:                -0.846
REMARK  4 active torsions:
REMARK  status: ('A' for Active; 'I' for Inactive)
REMARK    1  A    between atoms: C_5  and  N_8 
REMARK    2  A    between atoms: N_15  and  C_16 
REMARK    3  A    between atoms: C_16  and  C_17 
REMARK       I    between atoms: C_17  and  N_19 
REMARK    4  A    between atoms: N_19  and  C_20 
ROOT
ATOM      1  N   UNK d   1      18.397  62.525 -10.245  0.00  0.00    -0.241 N 
ATOM      2  C   UNK d   1      17.359  63.263 -10.672  0.00  0.00     0.286 A 
ATOM      3  O   UNK d   1      17.475  64.501 -10.887  0.00  0.00    -0.265 OA
ATOM      4  C   UNK d   1      16.212  62.509 -10.833  0.00  0.00     0.155 A 
ATOM      5  C   UNK d   1      16.567  61.274 -10.491  0.00  0.00     0.152 A 
ATOM      6  N   UNK d   1      15.481  60.507 -10.628  0.00  0.00    -0.279 N 
ATOM      7  N   UNK d   1      14.485  61.265 -11.046  0.00  0.00    -0.239 N 
ATOM      8  N   UNK d   1      14.902  62.519 -11.185  0.00  0.00    -0.261 N 
ATOM      9  C   UNK d   1      17.897  61.268 -10.130  0.00  0.00     0.286 A 
ATOM     10  O   UNK d   1      18.613  60.300  -9.745  0.00  0.00    -0.265 OA
ATOM     11  H   UNK d   1      15.466  59.469 -10.426  0.00  0.00     0.189 HD
ATOM     12  H   UNK d   1      13.523  60.953 -11.241  0.00  0.00     0.208 HD
ENDROOT
BRANCH   8  13
ATOM     13  C   UNK d   1      14.173  63.677 -11.614  0.00  0.00     0.254 C 
BRANCH  13  14
ATOM     14  C   UNK d   1      13.244  63.463 -12.730  0.00  0.00     0.242 C 
ATOM     15  O   UNK d   1      13.266  62.355 -13.288  0.00  0.00    -0.271 OA
ATOM     16  N   UNK d   1      12.372  64.477 -13.136  0.00  0.00    -0.326 N 
ATOM     17  H   UNK d   1      12.407  65.418 -12.600  0.00  0.00     0.169 HD
BRANCH  16  18
ATOM     18  C   UNK d   1      11.414  64.468 -14.176  0.00  0.00     0.034 A 
ATOM     19  C   UNK d   1      11.770  64.598 -15.497  0.00  0.00     0.031 A 
ATOM     20  C   UNK d   1      10.852  64.595 -16.552  0.00  0.00     0.021 A 
ATOM     21  C   UNK d   1       9.530  64.451 -16.212  0.00  0.00     0.011 A 
ATOM     22  C   UNK d   1       9.148  64.319 -14.901  0.00  0.00     0.021 A 
ATOM     23 Br   UNK d   1       8.209  64.436 -17.616  0.00  0.00    -0.051 Br
ATOM     24  C   UNK d   1      10.068  64.326 -13.885  0.00  0.00     0.031 A 
ENDBRANCH  16  18
ENDBRANCH  13  14
ENDBRANCH   8  13
BRANCH   1  25
ATOM     25  C   UNK d   1      19.731  62.944  -9.960  0.00  0.00     0.046 A 
ATOM     26  C   UNK d   1      20.187  63.270  -8.703  0.00  0.00     0.033 A 
ATOM     27  C   UNK d   1      21.504  63.681  -8.483  0.00  0.00     0.044 A 
ATOM     28  C   UNK d   1      22.381  63.772  -9.526  0.00  0.00     0.116 A 
ATOM     29  F   UNK d   1      23.666  64.177  -9.300  0.00  0.00    -0.206 F 
ATOM     30  C   UNK d   1      21.946  63.451 -10.791  0.00  0.00     0.044 A 
ATOM     31  C   UNK d   1      20.646  63.046 -10.996  0.00  0.00     0.033 A 
ENDBRANCH   1  25
TORSDOF 4
ENDMDL
