MODEL 1
REMARK VINA RESULT:    -2.677      0.000      0.000
REMARK INTER + INTRA:          -1.929
REMARK INTER:                  -2.833
REMARK INTRA:                   0.905
REMARK UNBOUND:                 0.905
REMARK  1 active torsions:
REMARK  status: ('A' for Active; 'I' for Inactive)
REMARK    1  A    between atoms: C_4  and  C_9 
ROOT
ATOM      1  C   UNK d   1      21.789  63.045  -9.306  0.00  0.00     0.222 C 
ATOM      2  N   UNK d   1      20.753  62.056  -9.109  0.00  0.00    -0.358 N 
ATOM      3  C   UNK d   1      19.419  62.334  -9.551  0.00  0.00     0.088 A 
ATOM      4  S   UNK d   1      18.084  61.321 -10.015  0.00  0.00    -0.074 SA
ATOM      5  C   UNK d   1      16.937  62.522 -10.374  0.00  0.00     0.018 A 
ATOM      6  C   UNK d   1      17.612  63.667 -10.129  0.00  0.00    -0.023 A 
ATOM      7  C   UNK d   1      18.884  63.580  -9.707  0.00  0.00     0.073 A 
ATOM      8  C   UNK d   1      19.871  64.641  -9.357  0.00  0.00     0.256 C 
ATOM      9  O   UNK d   1      19.571  65.855  -9.431  0.00  0.00    -0.267 OA
ATOM     10  N   UNK d   1      21.176  64.308  -8.929  0.00  0.00    -0.331 N 
ATOM     11  C   UNK d   1      16.807  64.938 -10.372  0.00  0.00     0.068 C 
ATOM     12  C   UNK d   1      15.355  64.595 -10.288  0.00  0.00     0.239 C 
ATOM     13  N   UNK d   1      15.109  63.644 -11.384  0.00  0.00    -0.070 N 
ATOM     14  C   UNK d   1      15.539  62.373 -10.841  0.00  0.00     0.281 C 
ATOM     15  C   UNK d   1      13.719  63.639 -11.773  0.00  0.00     0.270 C 
ATOM     16  H   UNK d   1      20.922  61.133  -8.653  0.00  0.00     0.162 HD
ATOM     17  H   UNK d   1      21.731  64.968  -8.329  0.00  0.00     0.165 HD
ATOM     18  H   UNK d   1      15.745  63.876 -12.176  0.00  0.00     0.279 HD
ENDROOT
BRANCH   1  19
ATOM     19  C   UNK d   1      22.113  63.036 -10.756  0.00  0.00     0.023 A 
ATOM     20  C   UNK d   1      23.356  63.323 -11.269  0.00  0.00     0.134 A 
ATOM     21  C   UNK d   1      23.606  63.313 -12.642  0.00  0.00     0.044 A 
ATOM     22  O   UNK d   1      24.387  63.631 -10.410  0.00  0.00    -0.190 OA
ATOM     23  I   UNK d   1      25.530  63.763 -13.363  0.00  0.00    -0.042 I 
ATOM     24  C   UNK d   1      22.622  63.014 -13.534  0.00  0.00     0.040 A 
ATOM     25  C   UNK d   1      21.372  62.722 -13.042  0.00  0.00     0.013 A 
ATOM     26  C   UNK d   1      21.117  62.731 -11.695  0.00  0.00     0.033 A 
ATOM     27 Br   UNK d   1      19.993  62.303 -14.286  0.00  0.00    -0.051 Br
ENDBRANCH   1  19
TORSDOF 1
ENDMDL
