/Users/jonathanwahrer/Desktop/Msc/3_Semester/Drug_Design_Praktikum/waehrer_HTS_screening/HTS_experiment/out/docking_results/vina_output/3sx0/0892_docked.pdbqt
 OpenBabel03192222073D

 27 30  0  0  1  0  0  0  0  0999 V2000
   21.7890   63.0450   -9.3060 C   0  0  2  0  0  3  0  0  0  0  0  0
   20.7530   62.0560   -9.1090 N   0  0  0  0  0  0  0  0  0  0  0  0
   19.4190   62.3340   -9.5510 C   0  0  0  0  0  0  0  0  0  0  0  0
   18.0840   61.3210  -10.0150 S   0  0  0  0  0  0  0  0  0  0  0  0
   16.9370   62.5220  -10.3740 C   0  0  0  0  0  0  0  0  0  0  0  0
   17.6120   63.6670  -10.1290 C   0  0  0  0  0  0  0  0  0  0  0  0
   18.8840   63.5800   -9.7070 C   0  0  0  0  0  0  0  0  0  0  0  0
   19.8710   64.6410   -9.3570 C   0  0  0  0  0  0  0  0  0  0  0  0
   19.5710   65.8550   -9.4310 O   0  0  0  0  0  0  0  0  0  0  0  0
   21.1760   64.3080   -8.9290 N   0  0  0  0  0  0  0  0  0  0  0  0
   16.8070   64.9380  -10.3720 C   0  0  0  0  0  2  0  0  0  0  0  0
   15.3550   64.5950  -10.2880 C   0  0  0  0  0  2  0  0  0  0  0  0
   15.1090   63.6440  -11.3840 N   0  0  0  0  0  4  0  0  0  0  0  0
   15.5390   62.3730  -10.8410 C   0  0  0  0  0  2  0  0  0  0  0  0
   13.7190   63.6390  -11.7730 C   0  0  0  0  0  1  0  0  0  0  0  0
   20.9220   61.1330   -8.6530 H   0  0  0  0  0  0  0  0  0  0  0  0
   21.7310   64.9680   -8.3290 H   0  0  0  0  0  0  0  0  0  0  0  0
   15.7450   63.8760  -12.1760 H   0  0  0  0  0  0  0  0  0  0  0  0
   22.1130   63.0360  -10.7560 C   0  0  0  0  0  0  0  0  0  0  0  0
   23.3560   63.3230  -11.2690 C   0  0  0  0  0  0  0  0  0  0  0  0
   23.6060   63.3130  -12.6420 C   0  0  0  0  0  0  0  0  0  0  0  0
   24.3870   63.6310  -10.4100 O   0  0  0  0  0  1  0  0  0  0  0  0
   25.5300   63.7630  -13.3630 I   0  0  0  0  0  0  0  0  0  0  0  0
   22.6220   63.0140  -13.5340 C   0  0  0  0  0  3  0  0  0  0  0  0
   21.3720   62.7220  -13.0420 C   0  0  0  0  0  0  0  0  0  0  0  0
   21.1170   62.7310  -11.6950 C   0  0  0  0  0  3  0  0  0  0  0  0
   19.9930   62.3030  -14.2860 Br  0  0  0  0  0  0  0  0  0  0  0  0
  1 19  1  6  0  0  0
  1  2  1  0  0  0  0
  1 10  1  0  0  0  0
  2 16  1  0  0  0  0
  3  2  1  0  0  0  0
  4  3  1  0  0  0  0
  5  6  2  0  0  0  0
  5  4  1  0  0  0  0
  6  7  1  0  0  0  0
  7  3  2  0  0  0  0
  7  8  1  0  0  0  0
  8 10  1  0  0  0  0
  9  8  2  0  0  0  0
 10 17  1  0  0  0  0
 11 12  1  0  0  0  0
 11  6  1  0  0  0  0
 13 14  1  0  0  0  0
 13 12  1  0  0  0  0
 14  5  1  0  0  0  0
 15 13  1  0  0  0  0
 18 13  1  0  0  0  0
 20 19  1  0  0  0  0
 20 22  1  0  0  0  0
 21 20  2  0  0  0  0
 23 21  1  0  0  0  0
 24 25  2  0  0  0  0
 24 21  1  0  0  0  0
 25 26  1  0  0  0  0
 26 19  2  0  0  0  0
 27 25  1  0  0  0  0
M  END
>  <Pose>
1

>  <Score>
-2.677

$$$$
