/Users/jonathanwahrer/Desktop/Msc/3_Semester/Drug_Design_Praktikum/waehrer_HTS_screening/HTS_experiment/out/docking_results/vina_output/3sx0/0895_docked.pdbqt
 OpenBabel03192222083D

 28 31  0  0  1  0  0  0  0  0999 V2000
   13.4100   63.3540  -11.9560 C   0  0  2  0  0  3  0  0  0  0  0  0
   14.5450   64.2660  -11.8150 N   0  0  0  0  0  0  0  0  0  0  0  0
   15.7450   63.8600  -11.1100 C   0  0  0  0  0  0  0  0  0  0  0  0
   17.0940   64.7350  -10.5020 S   0  0  0  0  0  0  0  0  0  0  0  0
   17.9770   63.4440   -9.8470 C   0  0  0  0  0  0  0  0  0  0  0  0
   17.1960   62.3530  -10.1190 C   0  0  0  0  0  0  0  0  0  0  0  0
   16.0380   62.5770  -10.7770 C   0  0  0  0  0  0  0  0  0  0  0  0
   15.0200   61.5670  -11.1870 C   0  0  0  0  0  0  0  0  0  0  0  0
   15.1710   60.3330  -10.9360 O   0  0  0  0  0  0  0  0  0  0  0  0
   13.8650   61.9930  -11.8710 N   0  0  0  0  0  0  0  0  0  0  0  0
   17.8250   61.0630   -9.6020 C   0  0  0  0  0  2  0  0  0  0  0  0
   19.2550   60.9860  -10.0670 C   0  0  0  0  0  2  0  0  0  0  0  0
   19.9790   62.2050   -9.9250 N   0  0  0  0  0  4  0  0  0  0  0  0
   19.2700   63.1880   -9.1130 C   0  0  0  0  0  2  0  0  0  0  0  0
   20.0810   62.8070  -11.2640 C   0  0  0  0  0  1  0  0  0  0  0  0
   14.5290   65.2240  -12.2110 H   0  0  0  0  0  0  0  0  0  0  0  0
   13.2750   61.2730  -12.3640 H   0  0  0  0  0  0  0  0  0  0  0  0
   20.9560   62.0780   -9.5510 H   0  0  0  0  0  0  0  0  0  0  0  0
   12.8900   63.5630  -13.3350 C   0  0  0  0  0  0  0  0  0  0  0  0
   13.1130   64.7940  -13.9390 C   0  0  0  0  0  3  0  0  0  0  0  0
   12.6840   65.0990  -15.1950 C   0  0  0  0  0  0  0  0  0  0  0  0
   11.9880   64.1160  -15.8960 C   0  0  0  0  0  0  0  0  0  0  0  0
   11.7540   62.8830  -15.3200 C   0  0  0  0  0  0  0  0  0  0  0  0
   11.5370   64.3870  -17.1750 O   0  0  0  0  0  1  0  0  0  0  0  0
   10.7000   61.4090  -16.4000 I   0  0  0  0  0  0  0  0  0  0  0  0
   12.2060   62.6110  -14.0390 C   0  0  0  0  0  3  0  0  0  0  0  0
   12.8910   66.3190  -15.8250 O   0  0  0  0  0  0  0  0  0  0  0  0
   14.2200   66.7290  -16.0840 C   0  0  0  0  0  1  0  0  0  0  0  0
  1 19  1  6  0  0  0
  1 10  1  0  0  0  0
  1  2  1  0  0  0  0
  2  3  1  0  0  0  0
  3  7  2  0  0  0  0
  3  4  1  0  0  0  0
  4  5  1  0  0  0  0
  5 14  1  0  0  0  0
  6  5  2  0  0  0  0
  6 11  1  0  0  0  0
  7  6  1  0  0  0  0
  8  9  2  0  0  0  0
  8  7  1  0  0  0  0
 10  8  1  0  0  0  0
 12 13  1  0  0  0  0
 12 11  1  0  0  0  0
 13 18  1  0  0  0  0
 13 14  1  0  0  0  0
 15 13  1  0  0  0  0
 16  2  1  0  0  0  0
 17 10  1  0  0  0  0
 20 19  1  0  0  0  0
 21 20  2  0  0  0  0
 22 23  2  0  0  0  0
 22 21  1  0  0  0  0
 23 26  1  0  0  0  0
 24 22  1  0  0  0  0
 25 23  1  0  0  0  0
 26 19  2  0  0  0  0
 27 21  1  0  0  0  0
 28 27  1  0  0  0  0
M  END
>  <Pose>
1

>  <Score>
-7.218

$$$$
