MODEL 1
REMARK VINA RESULT:    -7.218      0.000      0.000
REMARK INTER + INTRA:          -8.511
REMARK INTER:                  -8.062
REMARK INTRA:                  -0.449
REMARK UNBOUND:                -0.449
REMARK  2 active torsions:
REMARK  status: ('A' for Active; 'I' for Inactive)
REMARK    1  A    between atoms: C_4  and  O_23 
REMARK    2  A    between atoms: C_6  and  C_8 
ROOT
ATOM      1  C   UNK d   1      13.410  63.354 -11.956  0.00  0.00     0.219 C 
ATOM      2  N   UNK d   1      14.545  64.266 -11.815  0.00  0.00    -0.358 N 
ATOM      3  C   UNK d   1      15.745  63.860 -11.110  0.00  0.00     0.088 A 
ATOM      4  S   UNK d   1      17.094  64.735 -10.502  0.00  0.00    -0.074 SA
ATOM      5  C   UNK d   1      17.977  63.444  -9.847  0.00  0.00     0.018 A 
ATOM      6  C   UNK d   1      17.196  62.353 -10.119  0.00  0.00    -0.023 A 
ATOM      7  C   UNK d   1      16.038  62.577 -10.777  0.00  0.00     0.073 A 
ATOM      8  C   UNK d   1      15.020  61.567 -11.187  0.00  0.00     0.256 C 
ATOM      9  O   UNK d   1      15.171  60.333 -10.936  0.00  0.00    -0.267 OA
ATOM     10  N   UNK d   1      13.865  61.993 -11.871  0.00  0.00    -0.332 N 
ATOM     11  C   UNK d   1      17.825  61.063  -9.602  0.00  0.00     0.068 C 
ATOM     12  C   UNK d   1      19.255  60.986 -10.067  0.00  0.00     0.239 C 
ATOM     13  N   UNK d   1      19.979  62.205  -9.925  0.00  0.00    -0.070 N 
ATOM     14  C   UNK d   1      19.270  63.188  -9.113  0.00  0.00     0.281 C 
ATOM     15  C   UNK d   1      20.081  62.807 -11.264  0.00  0.00     0.270 C 
ATOM     16  H   UNK d   1      14.529  65.224 -12.211  0.00  0.00     0.162 HD
ATOM     17  H   UNK d   1      13.275  61.273 -12.364  0.00  0.00     0.165 HD
ATOM     18  H   UNK d   1      20.956  62.078  -9.551  0.00  0.00     0.279 HD
ENDROOT
BRANCH   1  19
ATOM     19  C   UNK d   1      12.890  63.563 -13.335  0.00  0.00    -0.012 A 
ATOM     20  C   UNK d   1      13.113  64.794 -13.939  0.00  0.00     0.050 A 
ATOM     21  C   UNK d   1      12.684  65.099 -15.195  0.00  0.00     0.106 A 
ATOM     22  C   UNK d   1      11.988  64.116 -15.896  0.00  0.00     0.157 A 
ATOM     23  C   UNK d   1      11.754  62.883 -15.320  0.00  0.00     0.046 A 
ATOM     24  O   UNK d   1      11.537  64.387 -17.175  0.00  0.00    -0.188 OA
ATOM     25  I   UNK d   1      10.700  61.409 -16.400  0.00  0.00    -0.041 I 
ATOM     26  C   UNK d   1      12.206  62.611 -14.039  0.00  0.00     0.032 A 
BRANCH  21  27
ATOM     27  O   UNK d   1      12.891  66.319 -15.825  0.00  0.00    -0.353 OA
ATOM     28  C   UNK d   1      14.220  66.729 -16.084  0.00  0.00     0.210 C 
ENDBRANCH  21  27
ENDBRANCH   1  19
TORSDOF 2
ENDMDL
