/Users/jonathanwahrer/Desktop/Msc/3_Semester/Drug_Design_Praktikum/waehrer_HTS_screening/HTS_experiment/out/docking_results/vina_output/3sx0/0906_docked.pdbqt
 OpenBabel03192222083D

 27 30  0  0  1  0  0  0  0  0999 V2000
   19.6910   63.3910  -10.4700 C   0  0  1  0  0  3  0  0  0  0  0  0
   20.3920   63.2710  -11.5910 N   0  0  0  0  0  0  0  0  0  0  0  0
   21.7320   63.2740  -11.6850 C   0  0  0  0  0  0  0  0  0  0  0  0
   22.6670   63.1780  -12.6370 N   0  0  0  0  0  2  0  0  0  0  0  0
   23.8570   63.2500  -12.1150 O   0  0  0  0  0  0  0  0  0  0  0  0
   23.7580   63.3940  -10.8240 N   0  0  0  0  0  0  0  0  0  0  0  0
   22.4570   63.4150  -10.4960 C   0  0  0  0  0  0  0  0  0  0  0  0
   21.8130   63.5400   -9.3500 N   0  0  0  0  0  0  0  0  0  0  0  0
   20.4780   63.5310   -9.3090 C   0  0  0  0  0  0  0  0  0  0  0  0
   20.1400   63.6710   -8.0370 N   0  0  0  0  0  0  0  0  0  0  0  0
   21.2520   63.7650   -7.2880 N   0  0  0  0  0  0  0  0  0  0  0  0
   22.3210   63.6860   -8.0940 C   0  0  0  0  0  0  0  0  0  0  0  0
   18.2860   63.3900  -10.3600 N   0  0  0  0  0  0  0  0  0  0  0  0
   17.8000   64.3430  -10.2040 H   0  0  0  0  0  0  0  0  0  0  0  0
   17.4080   62.2900  -10.4280 C   0  0  0  0  0  0  0  0  0  0  0  0
   16.0460   62.5240  -10.7210 C   0  0  0  0  0  0  0  0  0  0  0  0
   15.3820   64.5000  -11.0620 I   0  0  0  0  0  0  0  0  0  0  0  0
   15.1600   61.4770  -10.7890 C   0  0  0  0  0  3  0  0  0  0  0  0
   15.6040   60.1760  -10.5650 C   0  0  0  0  0  3  0  0  0  0  0  0
   16.9270   59.9790  -10.2820 C   0  0  0  0  0  3  0  0  0  0  0  0
   17.8570   61.0190  -10.2080 C   0  0  0  0  0  3  0  0  0  0  0  0
   23.7680   63.7330   -7.7510 C   0  0  0  0  0  2  0  0  0  0  0  0
   24.0280   63.5910   -6.2980 C   0  0  0  0  0  0  0  0  0  0  0  0
   23.6510   64.4280   -5.4530 O   0  0  0  0  0  0  0  0  0  0  0  0
   24.7160   62.4940   -5.8600 O   0  0  0  0  0  0  0  0  0  0  0  0
   25.4960   62.4420   -4.7190 C   0  0  0  0  0  2  0  0  0  0  0  0
   26.9620   62.4960   -4.9210 C   0  0  0  0  0  1  0  0  0  0  0  0
  1 13  1  6  0  0  0
  1  9  1  0  0  0  0
  2  1  1  0  0  0  0
  3  2  2  0  0  0  0
  3  7  1  0  0  0  0
  4  5  1  0  0  0  0
  4  3  1  0  0  0  0
  5  6  1  0  0  0  0
  6  7  2  0  0  0  0
  7  8  1  0  0  0  0
  8  9  1  0  0  0  0
  8 12  1  0  0  0  0
  9 10  2  0  0  0  0
 10 11  1  0  0  0  0
 12 22  1  0  0  0  0
 12 11  2  0  0  0  0
 13 14  1  0  0  0  0
 15 13  1  0  0  0  0
 15 21  1  0  0  0  0
 16 15  2  0  0  0  0
 17 16  1  0  0  0  0
 18 16  1  0  0  0  0
 18 19  2  0  0  0  0
 19 20  1  0  0  0  0
 20 21  2  0  0  0  0
 22 23  1  0  0  0  0
 23 25  1  0  0  0  0
 23 24  2  0  0  0  0
 25 26  1  0  0  0  0
 27 26  1  0  0  0  0
M  END
>  <Pose>
1

>  <Score>
-9.757

$$$$
