MODEL 1
REMARK VINA RESULT:    -9.757      0.000      0.000
REMARK INTER + INTRA:         -13.793
REMARK INTER:                 -13.180
REMARK INTRA:                  -0.613
REMARK UNBOUND:                -0.613
REMARK  6 active torsions:
REMARK  status: ('A' for Active; 'I' for Inactive)
REMARK    1  A    between atoms: C_3  and  N_8 
REMARK    2  A    between atoms: N_8  and  C_9 
REMARK    3  A    between atoms: C_20  and  C_21 
REMARK    4  A    between atoms: C_21  and  C_22 
REMARK    5  A    between atoms: C_22  and  O_24 
REMARK    6  A    between atoms: O_24  and  C_25 
ROOT
ATOM      1  C   UNK d   1      19.691  63.391 -10.470  0.00  0.00     0.179 A 
ATOM      2  N   UNK d   1      20.392  63.271 -11.591  0.00  0.00    -0.202 NA
ATOM      3  C   UNK d   1      21.732  63.274 -11.685  0.00  0.00     0.230 A 
ATOM      4  N   UNK d   1      22.667  63.178 -12.637  0.00  0.00    -0.081 NA
ATOM      5  O   UNK d   1      23.857  63.250 -12.115  0.00  0.00    -0.103 OA
ATOM      6  N   UNK d   1      23.758  63.394 -10.824  0.00  0.00    -0.082 NA
ATOM      7  C   UNK d   1      22.457  63.415 -10.496  0.00  0.00     0.217 A 
ATOM      8  N   UNK d   1      21.813  63.540  -9.350  0.00  0.00    -0.256 N 
ATOM      9  C   UNK d   1      20.478  63.531  -9.309  0.00  0.00     0.206 A 
ATOM     10  N   UNK d   1      20.140  63.671  -8.037  0.00  0.00    -0.126 NA
ATOM     11  N   UNK d   1      21.252  63.765  -7.288  0.00  0.00    -0.133 NA
ATOM     12  C   UNK d   1      22.321  63.686  -8.094  0.00  0.00     0.145 A 
ENDROOT
BRANCH   1  13
ATOM     13  N   UNK d   1      18.286  63.390 -10.360  0.00  0.00    -0.337 N 
ATOM     14  H   UNK d   1      17.800  64.343 -10.204  0.00  0.00     0.167 HD
BRANCH  13  15
ATOM     15  C   UNK d   1      17.408  62.290 -10.428  0.00  0.00     0.050 A 
ATOM     16  C   UNK d   1      16.046  62.524 -10.721  0.00  0.00     0.033 A 
ATOM     17  I   UNK d   1      15.382  64.500 -11.062  0.00  0.00    -0.042 I 
ATOM     18  C   UNK d   1      15.160  61.477 -10.789  0.00  0.00     0.020 A 
ATOM     19  C   UNK d   1      15.604  60.176 -10.565  0.00  0.00     0.001 A 
ATOM     20  C   UNK d   1      16.927  59.979 -10.282  0.00  0.00     0.002 A 
ATOM     21  C   UNK d   1      17.857  61.019 -10.208  0.00  0.00     0.031 A 
ENDBRANCH  13  15
ENDBRANCH   1  13
BRANCH  12  22
ATOM     22  C   UNK d   1      23.768  63.733  -7.751  0.00  0.00     0.192 C 
BRANCH  22  23
ATOM     23  C   UNK d   1      24.028  63.591  -6.298  0.00  0.00     0.266 C 
ATOM     24  O   UNK d   1      23.651  64.428  -5.453  0.00  0.00    -0.265 OA
BRANCH  23  25
ATOM     25  O   UNK d   1      24.716  62.494  -5.860  0.00  0.00    -0.322 OA
BRANCH  25  26
ATOM     26  C   UNK d   1      25.496  62.442  -4.719  0.00  0.00     0.174 C 
ATOM     27  C   UNK d   1      26.962  62.496  -4.921  0.00  0.00     0.034 C 
ENDBRANCH  25  26
ENDBRANCH  23  25
ENDBRANCH  22  23
ENDBRANCH  12  22
TORSDOF 6
ENDMDL
