MODEL 1
REMARK VINA RESULT:    -9.344      0.000      0.000
REMARK INTER + INTRA:         -10.865
REMARK INTER:                 -10.436
REMARK INTRA:                  -0.428
REMARK UNBOUND:                -0.428
REMARK  2 active torsions:
REMARK  status: ('A' for Active; 'I' for Inactive)
REMARK    1  A    between atoms: C_3  and  N_8 
REMARK    2  A    between atoms: N_15  and  C_16 
ROOT
ATOM      1  N   UNK d   1      19.111  62.358 -10.482  0.00  0.00    -0.240 N 
ATOM      2  C   UNK d   1      19.841  62.778  -9.434  0.00  0.00     0.286 A 
ATOM      3  O   UNK d   1      19.496  62.683  -8.218  0.00  0.00    -0.265 OA
ATOM      4  C   UNK d   1      21.035  63.337  -9.843  0.00  0.00     0.160 A 
ATOM      5  C   UNK d   1      21.031  63.254 -11.163  0.00  0.00     0.152 A 
ATOM      6  N   UNK d   1      22.206  63.805 -11.549  0.00  0.00    -0.278 N 
ATOM      7  N   UNK d   1      22.897  64.206 -10.499  0.00  0.00    -0.234 N 
ATOM      8  N   UNK d   1      22.192  63.928  -9.433  0.00  0.00    -0.234 N 
ATOM      9  C   UNK d   1      19.850  62.652 -11.567  0.00  0.00     0.286 A 
ATOM     10  O   UNK d   1      19.536  62.424 -12.781  0.00  0.00    -0.265 OA
ATOM     11  H   UNK d   1      22.539  63.907 -12.531  0.00  0.00     0.189 HD
ATOM     12  H   UNK d   1      23.832  64.663 -10.513  0.00  0.00     0.209 HD
ENDROOT
BRANCH   1  13
ATOM     13  C   UNK d   1      17.828  61.730 -10.484  0.00  0.00     0.062 A 
ATOM     14  C   UNK d   1      16.669  62.456 -10.667  0.00  0.00     0.034 A 
ATOM     15  I   UNK d   1      16.866  64.545 -10.947  0.00  0.00    -0.042 I 
ATOM     16  C   UNK d   1      15.419  61.871 -10.672  0.00  0.00     0.020 A 
ATOM     17  C   UNK d   1      15.278  60.510 -10.491  0.00  0.00     0.001 A 
ATOM     18  C   UNK d   1      16.430  59.775 -10.307  0.00  0.00     0.002 A 
ATOM     19  C   UNK d   1      17.679  60.370 -10.304  0.00  0.00     0.031 A 
ENDBRANCH   1  13
BRANCH   8  20
ATOM     20  C   UNK d   1      22.519  64.170  -8.071  0.00  0.00     0.058 A 
ATOM     21  C   UNK d   1      21.791  65.038  -7.287  0.00  0.00     0.031 A 
ATOM     22  C   UNK d   1      22.135  65.252  -5.962  0.00  0.00     0.002 A 
ATOM     23  C   UNK d   1      23.209  64.615  -5.376  0.00  0.00     0.000 A 
ATOM     24  C   UNK d   1      23.938  63.745  -6.159  0.00  0.00     0.002 A 
ATOM     25  C   UNK d   1      23.604  63.527  -7.474  0.00  0.00     0.031 A 
ENDBRANCH   8  20
TORSDOF 2
ENDMDL
