MODEL 1
REMARK VINA RESULT:    -7.600      0.000      0.000
REMARK INTER + INTRA:          -7.854
REMARK INTER:                  -8.932
REMARK INTRA:                   1.078
REMARK UNBOUND:                 1.078
REMARK  3 active torsions:
REMARK  status: ('A' for Active; 'I' for Inactive)
REMARK    1  A    between atoms: C_3  and  C_8 
REMARK       I    between atoms: C_8  and  N_10 
REMARK    2  A    between atoms: N_10  and  C_11 
REMARK    3  A    between atoms: C_17  and  N_20 
ROOT
ATOM      1  C   UNK d   1      17.774  63.632 -10.316  0.00  0.00     0.069 A 
ATOM      2  C   UNK d   1      17.102  62.392 -10.412  0.00  0.00     0.146 A 
ATOM      3  N   UNK d   1      17.491  61.158 -10.111  0.00  0.00    -0.101 NA
ATOM      4  O   UNK d   1      16.514  60.346 -10.380  0.00  0.00    -0.106 OA
ATOM      5  N   UNK d   1      15.507  60.994 -10.844  0.00  0.00    -0.101 NA
ATOM      6  C   UNK d   1      15.834  62.292 -10.882  0.00  0.00     0.146 A 
ATOM      7  C   UNK d   1      15.162  63.426 -11.283  0.00  0.00     0.064 A 
ATOM      8  C   UNK d   1      15.786  64.644 -11.205  0.00  0.00     0.034 A 
ATOM      9  C   UNK d   1      17.077  64.759 -10.728  0.00  0.00     0.034 A 
ENDROOT
BRANCH   1  10
ATOM     10  N   UNK d   1      19.027  63.572  -9.742  0.00  0.00    -0.319 N 
ATOM     11  C   UNK d   1      20.237  63.514  -9.187  0.00  0.00     0.275 C 
ATOM     12  O   UNK d   1      20.447  63.424  -7.909  0.00  0.00    -0.266 OA
ATOM     13  H   UNK d   1      18.452  63.697  -8.514  0.00  0.00     0.169 HD
BRANCH  11  14
ATOM     14  C   UNK d   1      21.536  63.545  -9.912  0.00  0.00     0.138 A 
ATOM     15  C   UNK d   1      22.754  63.842  -9.341  0.00  0.00     0.059 A 
ATOM     16  I   UNK d   1      23.100  64.392  -7.314  0.00  0.00    -0.040 I 
ATOM     17  C   UNK d   1      23.711  63.714 -10.317  0.00  0.00     0.159 A 
ATOM     18  N   UNK d   1      23.065  63.353 -11.424  0.00  0.00    -0.183 NA
ATOM     19  N   UNK d   1      21.762  63.247 -11.194  0.00  0.00    -0.268 N 
ATOM     20  C   UNK d   1      20.796  62.814 -12.221  0.00  0.00     0.180 C 
ENDBRANCH  11  14
ENDBRANCH   1  10
BRANCH   7  21
ATOM     21  N   UNK d   1      13.855  63.280 -11.770  0.00  0.00    -0.375 N 
ATOM     22  C   UNK d   1      13.331  62.004 -12.261  0.00  0.00     0.149 C 
ATOM     23  C   UNK d   1      13.019  62.256 -13.722  0.00  0.00     0.187 C 
ATOM     24  O   UNK d   1      13.269  63.557 -14.128  0.00  0.00    -0.388 OA
ATOM     25  C   UNK d   1      12.668  64.538 -13.368  0.00  0.00     0.187 C 
ATOM     26  C   UNK d   1      12.843  64.307 -11.877  0.00  0.00     0.149 C 
ENDBRANCH   7  21
TORSDOF 3
ENDMDL
