/Users/jonathanwahrer/Desktop/Msc/3_Semester/Drug_Design_Praktikum/waehrer_HTS_screening/HTS_experiment/out/docking_results/vina_output/3sx0/0920_docked.pdbqt
 OpenBabel03192222083D

 24 27  0  0  1  0  0  0  0  0999 V2000
   14.2470   62.8650  -11.4380 N   0  0  0  0  0  0  0  0  0  0  0  0
   13.6070   63.1070  -12.5390 C   0  0  1  0  0  3  0  0  0  0  0  0
   12.7470   62.2530  -13.8700 S   0  0  0  0  0  0  0  0  0  0  0  0
   12.3430   63.7540  -14.7340 C   0  0  0  0  0  3  0  0  0  0  0  0
   12.8220   64.7740  -14.0580 C   0  0  0  0  0  0  0  0  0  0  0  0
   13.5120   64.4620  -12.8610 N   0  0  0  0  0  0  0  0  0  0  0  0
   14.2080   65.1940  -11.7720 C   0  0  0  0  0  3  0  0  0  0  0  0
   14.7240   64.1060  -10.8950 C   0  0  0  0  0  3  0  0  0  0  0  0
   14.4780   61.5830  -10.8850 C   0  0  0  0  0  2  0  0  0  0  0  0
   15.8070   61.0890  -10.6410 C   0  0  2  0  0  3  0  0  0  0  0  0
   15.8390   59.7960  -10.4540 O   0  0  0  0  0  1  0  0  0  0  0  0
   17.0960   61.7220  -10.5610 C   0  0  0  0  0  0  0  0  0  0  0  0
   17.3960   62.8680  -11.2310 C   0  0  0  0  0  3  0  0  0  0  0  0
   18.6390   63.4350  -11.1470 C   0  0  0  0  0  3  0  0  0  0  0  0
   19.6600   62.8930  -10.3900 C   0  0  0  0  0  0  0  0  0  0  0  0
   21.5660   63.7160  -10.2300 I   0  0  0  0  0  0  0  0  0  0  0  0
   19.3450   61.7190   -9.7060 C   0  0  0  0  0  3  0  0  0  0  0  0
   18.1130   61.1590   -9.7920 C   0  0  0  0  0  3  0  0  0  0  0  0
   12.6010   66.1430  -14.6110 C   0  0  0  0  0  0  0  0  0  0  0  0
   11.5660   66.9410  -14.2000 C   0  0  0  0  0  3  0  0  0  0  0  0
   11.3670   68.2350  -14.7190 C   0  0  0  0  0  3  0  0  0  0  0  0
   12.2250   68.7390  -15.6690 C   0  0  0  0  0  3  0  0  0  0  0  0
   13.2640   67.9440  -16.0840 C   0  0  0  0  0  3  0  0  0  0  0  0
   13.4520   66.6690  -15.5670 C   0  0  0  0  0  3  0  0  0  0  0  0
  1  8  1  0  0  0  0
  1  9  1  0  0  0  0
  2  3  1  1  0  0  0
  2  1  1  0  0  0  0
  4  5  2  0  0  0  0
  4  3  1  0  0  0  0
  5  6  1  0  0  0  0
  6  2  1  0  0  0  0
  6  7  1  0  0  0  0
  7  8  2  0  0  0  0
  9 10  1  0  0  0  0
 10 12  1  0  0  0  0
 10 11  1  1  0  0  0
 12 18  1  0  0  0  0
 13 14  1  0  0  0  0
 13 12  2  0  0  0  0
 14 15  2  0  0  0  0
 15 16  1  0  0  0  0
 15 17  1  0  0  0  0
 18 17  2  0  0  0  0
 19 20  1  0  0  0  0
 19  5  1  0  0  0  0
 21 20  2  0  0  0  0
 22 21  1  0  0  0  0
 23 22  2  0  0  0  0
 23 24  1  0  0  0  0
 24 19  2  0  0  0  0
M  END
>  <Pose>
1

>  <Score>
-7.498

$$$$
