/Users/jonathanwahrer/Desktop/Msc/3_Semester/Drug_Design_Praktikum/waehrer_HTS_screening/HTS_experiment/out/docking_results/vina_output/3sx0/0924_docked.pdbqt
 OpenBabel03192222083D

 29 32  0  0  0  0  0  0  0  0999 V2000
   20.9530   63.1370  -10.6270 C   0  0  0  0  0  0  0  0  0  0  0  0
   21.4530   63.4140   -9.4110 N   0  0  0  0  0  4  0  0  0  0  0  0
   22.7530   63.6870   -9.2410 C   0  0  0  0  0  0  0  0  0  0  0  0
   23.5240   63.6680  -10.3400 N   0  0  0  0  0  0  0  0  0  0  0  0
   23.0590   63.3940  -11.5760 C   0  0  0  0  0  0  0  0  0  0  0  0
   21.7460   63.1260  -11.7040 N   0  0  0  0  0  2  0  0  0  0  0  0
   19.5440   62.8460  -10.7860 N   0  0  0  0  0  0  0  0  0  0  0  0
   19.0180   63.2480  -11.5920 H   0  0  0  0  0  0  0  0  0  0  0  0
   18.9180   62.0730   -9.8640 N   0  0  0  0  0  0  0  0  0  0  0  0
   17.6670   61.9950   -9.7340 C   0  0  0  0  0  3  0  0  0  0  0  0
   16.6500   62.6700  -10.4920 C   0  0  0  0  0  0  0  0  0  0  0  0
   16.6490   63.9680  -10.9100 C   0  0  0  0  0  3  0  0  0  0  0  0
   15.6000   64.5340  -11.6510 C   0  0  0  0  0  3  0  0  0  0  0  0
   14.5190   63.7780  -11.9850 C   0  0  0  0  0  0  0  0  0  0  0  0
   12.9080   64.5300  -13.0870 I   0  0  0  0  0  0  0  0  0  0  0  0
   14.4950   62.4630  -11.5760 C   0  0  0  0  0  3  0  0  0  0  0  0
   15.5240   61.9140  -10.8510 C   0  0  0  0  0  3  0  0  0  0  0  0
   23.3070   63.9830   -7.9590 N   0  0  0  0  0  0  0  0  0  0  0  0
   24.0230   63.0250   -7.1720 C   0  0  0  0  0  2  0  0  0  0  0  0
   24.2930   63.6580   -5.8050 C   0  0  0  0  0  2  0  0  0  0  0  0
   23.1450   64.2130   -5.2650 O   0  0  0  0  0  0  0  0  0  0  0  0
   22.6580   65.2750   -5.9870 C   0  0  0  0  0  2  0  0  0  0  0  0
   23.1430   65.3210   -7.4130 C   0  0  0  0  0  2  0  0  0  0  0  0
   23.9440   63.3940  -12.6870 N   0  0  0  0  0  0  0  0  0  0  0  0
   25.3610   63.2100  -12.4720 C   0  0  0  0  0  2  0  0  0  0  0  0
   26.0490   64.0870  -13.5270 C   0  0  0  0  0  2  0  0  0  0  0  0
   25.7570   63.5570  -14.7570 O   0  0  0  0  0  0  0  0  0  0  0  0
   24.4370   63.5310  -15.1100 C   0  0  0  0  0  3  0  0  0  0  0  0
   23.4440   63.5750  -14.0060 C   0  0  0  0  0  3  0  0  0  0  0  0
  1  2  2  0  0  0  0
  2  3  2  0  0  0  0
  3 18  1  0  0  0  0
  4  3  1  0  0  0  0
  5  4  2  0  0  0  0
  6  5  1  0  0  0  0
  6  1  1  0  0  0  0
  7  1  1  0  0  0  0
  7  9  1  0  0  0  0
  8  7  1  0  0  0  0
  9 10  2  0  0  0  0
 11 10  1  0  0  0  0
 12 11  2  0  0  0  0
 13 12  1  0  0  0  0
 14 13  2  0  0  0  0
 14 16  1  0  0  0  0
 15 14  1  0  0  0  0
 16 17  2  0  0  0  0
 17 11  1  0  0  0  0
 18 23  1  0  0  0  0
 18 19  1  0  0  0  0
 19 20  1  0  0  0  0
 20 21  1  0  0  0  0
 22 21  1  0  0  0  0
 23 22  1  0  0  0  0
 24 25  1  0  0  0  0
 24  5  1  0  0  0  0
 26 25  1  0  0  0  0
 27 26  1  0  0  0  0
 28 27  1  0  0  0  0
 28 29  2  0  0  0  0
 29 24  1  0  0  0  0
M  END
>  <Pose>
1

>  <Score>
-8.642

$$$$
