MODEL 1
REMARK VINA RESULT:    -4.465      0.000      0.000
REMARK INTER + INTRA:          -3.086
REMARK INTER:                  -5.248
REMARK INTRA:                   2.162
REMARK UNBOUND:                 2.162
REMARK  3 active torsions:
REMARK  status: ('A' for Active; 'I' for Inactive)
REMARK    1  A    between atoms: C_5  and  N_8 
REMARK    2  A    between atoms: C_10  and  C_16 
REMARK    3  A    between atoms: C_22  and  O_29 
ROOT
ATOM      1  N   UNK d   1      11.309  63.216 -15.232  0.00  0.00    -0.241 N 
ATOM      2  C   UNK d   1      10.857  64.266 -15.940  0.00  0.00     0.204 A 
ATOM      3  C   UNK d   1      11.486  65.491 -15.931  0.00  0.00     0.100 A 
ATOM      4  C   UNK d   1      12.620  65.582 -15.147  0.00  0.00     0.262 A 
ATOM      5  O   UNK d   1      13.312  66.638 -15.030  0.00  0.00    -0.267 OA
ATOM      6  N   UNK d   1      13.091  64.520 -14.421  0.00  0.00    -0.274 N 
ATOM      7  C   UNK d   1      12.416  63.360 -14.485  0.00  0.00     0.336 A 
ATOM      8  O   UNK d   1      12.810  62.358 -13.836  0.00  0.00    -0.246 OA
ATOM      9  O   UNK d   1       9.729  64.134 -16.709  0.00  0.00    -0.171 OA
ATOM     10  H   UNK d   1      13.942  64.593 -13.833  0.00  0.00     0.173 HD
ENDROOT
BRANCH   3  11
ATOM     11  C   UNK d   1      11.051  66.672 -16.654  0.00  0.00     0.267 C 
ATOM     12  N   UNK d   1       9.651  66.818 -16.896  0.00  0.00    -0.062 N 
ATOM     13  C   UNK d   1       8.851  66.971 -15.712  0.00  0.00     0.240 C 
ATOM     14  C   UNK d   1       9.518  68.111 -17.616  0.00  0.00     0.270 C 
ATOM     15  H   UNK d   1       9.229  66.165 -17.577  0.00  0.00     0.280 HD
ATOM     16  C   UNK d   1       9.671  67.192 -14.458  0.00  0.00     0.067 C 
ATOM     17  C   UNK d   1      10.753  68.198 -14.769  0.00  0.00    -0.042 A 
ATOM     18  C   UNK d   1      11.447  67.928 -15.921  0.00  0.00     0.020 A 
ATOM     19  C   UNK d   1      11.014  69.294 -14.014  0.00  0.00     0.047 A 
ATOM     20  C   UNK d   1      12.441  68.774 -16.351  0.00  0.00     0.113 A 
ATOM     21  C   UNK d   1      12.703  69.894 -15.575  0.00  0.00     0.139 A 
ATOM     22  C   UNK d   1      12.015  70.179 -14.413  0.00  0.00     0.108 A 
ATOM     23  O   UNK d   1      13.627  70.940 -15.719  0.00  0.00    -0.320 OA
ATOM     24  O   UNK d   1      12.516  71.358 -13.884  0.00  0.00    -0.323 OA
ATOM     25  C   UNK d   1      13.781  71.646 -14.502  0.00  0.00     0.352 C 
BRANCH  20  26
ATOM     26  O   UNK d   1      13.126  68.498 -17.500  0.00  0.00    -0.352 OA
ATOM     27  C   UNK d   1      14.466  68.142 -17.616  0.00  0.00     0.210 C 
ENDBRANCH  20  26
ENDBRANCH   3  11
BRANCH   1  28
ATOM     28  C   UNK d   1      10.643  61.963 -15.256  0.00  0.00     0.046 A 
ATOM     29  C   UNK d   1      10.786  61.064 -16.301  0.00  0.00     0.031 A 
ATOM     30  C   UNK d   1      10.147  59.859 -16.326  0.00  0.00     0.020 A 
ATOM     31  C   UNK d   1       9.311  59.484 -15.280  0.00  0.00     0.006 A 
ATOM     32  I   UNK d   1       8.333  57.628 -15.332  0.00  0.00    -0.045 I 
ATOM     33  C   UNK d   1       9.167  60.374 -14.241  0.00  0.00     0.020 A 
ATOM     34  C   UNK d   1       9.809  61.594 -14.207  0.00  0.00     0.031 A 
ENDBRANCH   1  28
TORSDOF 3
ENDMDL
