/Users/jonathanwahrer/Desktop/Msc/3_Semester/Drug_Design_Praktikum/waehrer_HTS_screening/HTS_experiment/out/docking_results/vina_output/3sx0/0950_docked.pdbqt
 OpenBabel03192222093D

 26 29  0  0  0  0  0  0  0  0999 V2000
   18.0980   63.4260   -9.7350 C   0  0  0  0  0  0  0  0  0  0  0  0
   17.4360   62.2360  -10.0540 C   0  0  0  0  0  0  0  0  0  0  0  0
   17.7490   60.9510   -9.8140 N   0  0  0  0  0  0  0  0  0  0  0  0
   16.8120   60.1990  -10.3110 O   0  0  0  0  0  0  0  0  0  0  0  0
   15.8960   60.9300  -10.8690 N   0  0  0  0  0  0  0  0  0  0  0  0
   16.2450   62.2240  -10.7320 C   0  0  0  0  0  0  0  0  0  0  0  0
   15.6650   63.4120  -11.1210 C   0  0  0  0  0  0  0  0  0  0  0  0
   16.3220   64.5730  -10.8020 C   0  0  0  0  0  3  0  0  0  0  0  0
   17.5400   64.5970  -10.1100 C   0  0  0  0  0  3  0  0  0  0  0  0
   19.3200   63.3190   -9.0330 N   0  0  0  0  0  0  0  0  0  0  0  0
   20.4770   64.0560   -9.2450 C   0  0  0  0  0  0  0  0  0  0  0  0
   20.5070   64.9440  -10.1650 O   0  0  0  0  0  0  0  0  0  0  0  0
   19.3880   62.5880   -8.2560 H   0  0  0  0  0  0  0  0  0  0  0  0
   21.7270   63.9030   -8.4770 C   0  0  0  0  0  0  0  0  0  0  0  0
   22.9900   63.5950   -8.8460 C   0  0  0  0  0  0  0  0  0  0  0  0
   23.7120   63.1300  -10.7460 I   0  0  0  0  0  0  0  0  0  0  0  0
   23.7760   63.6180   -7.6940 C   0  0  0  0  0  3  0  0  0  0  0  0
   22.9960   63.9340   -6.6590 N   0  0  0  0  0  0  0  0  0  0  0  0
   21.7860   64.1010   -7.1160 N   0  0  0  0  0  0  0  0  0  0  0  0
   23.4570   64.0590   -5.2690 C   0  0  0  0  0  1  0  0  0  0  0  0
   14.4330   63.3780  -11.8220 N   0  0  0  0  0  0  0  0  0  0  0  0
   13.9180   64.5680  -12.4670 C   0  0  0  0  0  2  0  0  0  0  0  0
   12.6630   64.2230  -13.1900 C   0  0  0  0  0  2  0  0  0  0  0  0
   12.7580   63.1020  -13.9910 O   0  0  0  0  0  0  0  0  0  0  0  0
   13.1500   61.9670  -13.3540 C   0  0  0  0  0  2  0  0  0  0  0  0
   13.6260   62.1790  -11.9390 C   0  0  0  0  0  2  0  0  0  0  0  0
  1 10  1  0  0  0  0
  2  3  2  0  0  0  0
  2  1  1  0  0  0  0
  4  3  1  0  0  0  0
  5  6  2  0  0  0  0
  5  4  1  0  0  0  0
  6  2  1  0  0  0  0
  7  8  2  0  0  0  0
  7  6  1  0  0  0  0
  8  9  1  0  0  0  0
  9  1  2  0  0  0  0
 10 13  1  0  0  0  0
 11 10  1  0  0  0  0
 11 14  1  0  0  0  0
 12 11  2  0  0  0  0
 14 19  2  0  0  0  0
 15 14  1  0  0  0  0
 15 17  2  0  0  0  0
 16 15  1  0  0  0  0
 17 18  1  0  0  0  0
 18 20  1  0  0  0  0
 19 18  1  0  0  0  0
 21  7  1  0  0  0  0
 22 21  1  0  0  0  0
 23 22  1  0  0  0  0
 24 25  1  0  0  0  0
 24 23  1  0  0  0  0
 25 26  1  0  0  0  0
 26 21  1  0  0  0  0
M  END
>  <Pose>
1

>  <Score>
-7.599

$$$$
