MODEL 1
REMARK VINA RESULT:    -7.599      0.000      0.000
REMARK INTER + INTRA:          -8.539
REMARK INTER:                  -8.932
REMARK INTRA:                   0.392
REMARK UNBOUND:                 0.392
REMARK  3 active torsions:
REMARK  status: ('A' for Active; 'I' for Inactive)
REMARK    1  A    between atoms: C_6  and  C_7 
REMARK       I    between atoms: C_7  and  N_9 
REMARK    2  A    between atoms: N_9  and  C_10 
REMARK    3  A    between atoms: C_16  and  N_19 
ROOT
ATOM      1  C   UNK d   1      18.098  63.426  -9.735  0.00  0.00     0.069 A 
ATOM      2  C   UNK d   1      17.436  62.236 -10.054  0.00  0.00     0.146 A 
ATOM      3  N   UNK d   1      17.749  60.951  -9.814  0.00  0.00    -0.101 NA
ATOM      4  O   UNK d   1      16.812  60.199 -10.311  0.00  0.00    -0.106 OA
ATOM      5  N   UNK d   1      15.896  60.930 -10.869  0.00  0.00    -0.101 NA
ATOM      6  C   UNK d   1      16.245  62.224 -10.732  0.00  0.00     0.146 A 
ATOM      7  C   UNK d   1      15.665  63.412 -11.121  0.00  0.00     0.064 A 
ATOM      8  C   UNK d   1      16.322  64.573 -10.802  0.00  0.00     0.034 A 
ATOM      9  C   UNK d   1      17.540  64.597 -10.110  0.00  0.00     0.034 A 
ENDROOT
BRANCH   1  10
ATOM     10  N   UNK d   1      19.320  63.319  -9.033  0.00  0.00    -0.319 N 
ATOM     11  C   UNK d   1      20.477  64.056  -9.245  0.00  0.00     0.278 C 
ATOM     12  O   UNK d   1      20.507  64.944 -10.165  0.00  0.00    -0.265 OA
ATOM     13  H   UNK d   1      19.388  62.588  -8.256  0.00  0.00     0.169 HD
BRANCH  11  14
ATOM     14  C   UNK d   1      21.727  63.903  -8.477  0.00  0.00     0.162 A 
ATOM     15  C   UNK d   1      22.990  63.595  -8.846  0.00  0.00     0.059 A 
ATOM     16  I   UNK d   1      23.712  63.130 -10.746  0.00  0.00    -0.040 I 
ATOM     17  C   UNK d   1      23.776  63.618  -7.694  0.00  0.00     0.132 A 
ATOM     18  N   UNK d   1      22.996  63.934  -6.659  0.00  0.00    -0.283 N 
ATOM     19  N   UNK d   1      21.786  64.101  -7.116  0.00  0.00    -0.166 NA
ATOM     20  C   UNK d   1      23.457  64.059  -5.269  0.00  0.00     0.179 C 
ENDBRANCH  11  14
ENDBRANCH   1  10
BRANCH   7  21
ATOM     21  N   UNK d   1      14.433  63.378 -11.822  0.00  0.00    -0.375 N 
ATOM     22  C   UNK d   1      13.918  64.568 -12.467  0.00  0.00     0.149 C 
ATOM     23  C   UNK d   1      12.663  64.223 -13.190  0.00  0.00     0.187 C 
ATOM     24  O   UNK d   1      12.758  63.102 -13.991  0.00  0.00    -0.388 OA
ATOM     25  C   UNK d   1      13.150  61.967 -13.354  0.00  0.00     0.187 C 
ATOM     26  C   UNK d   1      13.626  62.179 -11.939  0.00  0.00     0.149 C 
ENDBRANCH   7  21
TORSDOF 3
ENDMDL
