MODEL 1
REMARK VINA RESULT:    -5.244      0.000      0.000
REMARK INTER + INTRA:          -7.635
REMARK INTER:                  -6.777
REMARK INTRA:                  -0.858
REMARK UNBOUND:                -0.858
REMARK  6 active torsions:
REMARK  status: ('A' for Active; 'I' for Inactive)
REMARK    1  A    between atoms: N_5  and  C_7 
REMARK    2  A    between atoms: C_9  and  C_13 
REMARK    3  A    between atoms: C_10  and  O_12 
REMARK    4  A    between atoms: C_13  and  O_14 
REMARK    5  A    between atoms: C_18  and  N_19 
REMARK       I    between atoms: N_19  and  C_20 
REMARK    6  A    between atoms: C_20  and  C_22 
ROOT
ATOM      1  I   UNK d   1      14.750  65.320 -11.728  0.00  0.00    -0.042 I 
ATOM      2  C   UNK d   1      16.160  63.890 -11.086  0.00  0.00     0.040 A 
ATOM      3  C   UNK d   1      15.940  62.555 -10.920  0.00  0.00     0.074 A 
ATOM      4  C   UNK d   1      17.166  62.049 -10.488  0.00  0.00     0.148 A 
ATOM      5  N   UNK d   1      18.090  63.007 -10.392  0.00  0.00    -0.312 N 
ATOM      6  C   UNK d   1      17.482  64.136 -10.756  0.00  0.00     0.114 A 
ATOM      7  N   UNK d   1      17.244  60.731 -10.241  0.00  0.00    -0.223 NA
ATOM      8  C   UNK d   1      16.179  59.931 -10.405  0.00  0.00     0.237 A 
ATOM      9  N   UNK d   1      15.005  60.419 -10.818  0.00  0.00    -0.223 NA
ATOM     10  C   UNK d   1      14.838  61.750 -11.092  0.00  0.00     0.147 A 
ENDROOT
BRANCH   5  11
ATOM     11  C   UNK d   1      19.459  62.897  -9.988  0.00  0.00     0.232 C 
ATOM     12  O   UNK d   1      19.696  63.336  -8.691  0.00  0.00    -0.356 OA
ATOM     13  C   UNK d   1      21.082  63.256  -8.597  0.00  0.00     0.176 C 
ATOM     14  C   UNK d   1      21.642  63.730  -9.918  0.00  0.00     0.153 C 
ATOM     15  C   UNK d   1      20.377  63.834 -10.778  0.00  0.00     0.088 C 
BRANCH  13  16
ATOM     16  C   UNK d   1      21.591  64.242  -7.536  0.00  0.00     0.198 C 
BRANCH  16  17
ATOM     17  O   UNK d   1      22.692  64.936  -8.056  0.00  0.00    -0.398 OA
ATOM     18  H   UNK d   1      23.512  64.778  -7.491  0.00  0.00     0.209 HD
ENDBRANCH  16  17
ENDBRANCH  13  16
BRANCH  14  19
ATOM     19  O   UNK d   1      22.442  62.757 -10.519  0.00  0.00    -0.393 OA
ATOM     20  H   UNK d   1      21.875  61.926 -10.544  0.00  0.00     0.210 HD
ENDBRANCH  14  19
ENDBRANCH   5  11
BRANCH  10  21
ATOM     21  N   UNK d   1      13.565  62.213 -11.530  0.00  0.00    -0.306 N 
ATOM     22  C   UNK d   1      13.232  62.090 -12.910  0.00  0.00     0.257 C 
ATOM     23  O   UNK d   1      14.092  61.572 -13.666  0.00  0.00    -0.267 OA
ATOM     24  H   UNK d   1      12.847  62.637 -10.936  0.00  0.00     0.170 HD
BRANCH  22  25
ATOM     25  C   UNK d   1      11.985  62.516 -13.485  0.00  0.00     0.032 A 
ATOM     26  C   UNK d   1      11.727  63.838 -13.721  0.00  0.00     0.017 A 
ATOM     27  C   UNK d   1      10.522  64.268 -14.283  0.00  0.00     0.001 A 
ATOM     28  C   UNK d   1       9.570  63.348 -14.608  0.00  0.00     0.000 A 
ATOM     29  C   UNK d   1       9.801  62.015 -14.383  0.00  0.00     0.001 A 
ATOM     30  C   UNK d   1      11.015  61.607 -13.819  0.00  0.00     0.017 A 
ENDBRANCH  22  25
ENDBRANCH  10  21
TORSDOF 6
ENDMDL
