/Users/jonathanwahrer/Desktop/Msc/3_Semester/Drug_Design_Praktikum/waehrer_HTS_screening/HTS_experiment/out/docking_results/vina_output/3sx0/0961_docked.pdbqt
 OpenBabel03192222103D

 29 33  0  0  1  0  0  0  0  0999 V2000
   21.4180   63.3800  -10.2840 C   0  0  1  0  0  3  0  0  0  0  0  0
   21.8560   63.4010   -9.0490 N   0  0  0  0  0  0  0  0  0  0  0  0
   23.2000   63.4320   -8.8010 C   0  0  0  0  0  3  0  0  0  0  0  0
   24.1490   63.4460   -9.7770 C   0  0  0  0  0  3  0  0  0  0  0  0
   23.7270   63.4280  -11.0880 C   0  0  0  0  0  0  0  0  0  0  0  0
   24.3700   63.4340  -12.3070 N   0  0  0  0  0  0  0  0  0  0  0  0
   23.4720   63.4060  -13.2770 C   0  0  0  0  0  0  0  0  0  0  0  0
   22.2580   63.3840  -12.6620 N   0  0  0  0  0  0  0  0  0  0  0  0
   22.3850   63.3960  -11.3300 C   0  0  0  0  0  0  0  0  0  0  0  0
   25.8030   63.4880  -12.3670 C   0  0  0  0  0  1  0  0  0  0  0  0
   20.9720   63.4680   -7.9220 C   0  0  0  0  0  1  0  0  0  0  0  0
   20.0390   63.2450  -10.7180 C   0  0  0  0  0  3  0  0  0  0  0  0
   19.0210   62.6600  -10.1940 C   0  0  0  0  0  3  0  0  0  0  0  0
   17.6460   62.5330  -10.6190 C   0  0  0  0  0  0  0  0  0  0  0  0
   16.8370   61.4580  -10.4460 C   0  0  0  0  0  0  0  0  0  0  0  0
   17.5200   59.8430   -9.7010 Br  0  0  0  0  0  0  0  0  0  0  0  0
   15.4780   61.4660  -10.8480 C   0  0  0  0  0  3  0  0  0  0  0  0
   14.9300   62.5740  -11.4350 C   0  0  0  0  0  0  0  0  0  0  0  0
   15.7290   63.6810  -11.6260 C   0  0  0  0  0  0  0  0  0  0  0  0
   13.6650   62.9020  -11.9320 O   0  0  0  0  0  0  0  0  0  0  0  0
   17.0470   63.6630  -11.2310 C   0  0  0  0  0  3  0  0  0  0  0  0
   14.9330   64.6620  -12.2390 O   0  0  0  0  0  0  0  0  0  0  0  0
   13.5950   64.3270  -11.9330 C   0  0  0  0  0  2  0  0  0  0  0  0
   23.6720   63.4190  -14.7310 C   0  0  0  0  0  0  0  0  0  0  0  0
   22.7130   63.6880  -15.6500 C   0  0  0  0  0  3  0  0  0  0  0  0
   23.0170   63.6430  -17.0240 C   0  0  0  0  0  3  0  0  0  0  0  0
   24.2890   63.3260  -17.4440 C   0  0  0  0  0  3  0  0  0  0  0  0
   25.2900   63.0490  -16.5220 C   0  0  0  0  0  3  0  0  0  0  0  0
   24.9540   63.1030  -15.2100 C   0  0  0  0  0  3  0  0  0  0  0  0
  1 12  1  1  0  0  0
  1  2  1  0  0  0  0
  2  3  1  0  0  0  0
  2 11  1  0  0  0  0
  4  3  2  0  0  0  0
  5  4  1  0  0  0  0
  6  5  1  0  0  0  0
  7  8  2  0  0  0  0
  7  6  1  0  0  0  0
  8  9  1  0  0  0  0
  9  5  2  0  0  0  0
  9  1  1  0  0  0  0
 10  6  1  0  0  0  0
 12 13  2  0  0  0  0
 14 15  1  0  0  0  0
 14 13  1  0  0  0  0
 15 16  1  0  0  0  0
 17 15  2  0  0  0  0
 18 17  1  0  0  0  0
 19 18  2  0  0  0  0
 19 21  1  0  0  0  0
 20 18  1  0  0  0  0
 21 14  2  0  0  0  0
 22 23  1  0  0  0  0
 22 19  1  0  0  0  0
 23 20  1  0  0  0  0
 24  7  1  0  0  0  0
 25 24  2  0  0  0  0
 26 25  1  0  0  0  0
 27 26  2  0  0  0  0
 27 28  1  0  0  0  0
 28 29  2  0  0  0  0
 29 24  1  0  0  0  0
M  END
>  <Pose>
1

>  <Score>
-8.076

$$$$
