MODEL 1
REMARK VINA RESULT:    -8.076      0.000      0.000
REMARK INTER + INTRA:          -9.188
REMARK INTER:                  -9.493
REMARK INTRA:                   0.304
REMARK UNBOUND:                 0.304
REMARK  3 active torsions:
REMARK  status: ('A' for Active; 'I' for Inactive)
REMARK    1  A    between atoms: C_7  and  C_8 
REMARK    2  A    between atoms: C_9  and  C_10 
REMARK    3  A    between atoms: C_16  and  C_19 
ROOT
ATOM      1  C   UNK d   1      21.418  63.380 -10.284  0.00  0.00     0.065 A 
ATOM      2  N   UNK d   1      21.856  63.401  -9.049  0.00  0.00    -0.359 N 
ATOM      3  C   UNK d   1      23.200  63.432  -8.801  0.00  0.00     0.093 A 
ATOM      4  C   UNK d   1      24.149  63.446  -9.777  0.00  0.00     0.049 A 
ATOM      5  C   UNK d   1      23.727  63.428 -11.088  0.00  0.00     0.068 A 
ATOM      6  N   UNK d   1      24.370  63.434 -12.307  0.00  0.00    -0.333 N 
ATOM      7  C   UNK d   1      23.472  63.406 -13.277  0.00  0.00     0.141 A 
ATOM      8  N   UNK d   1      22.258  63.384 -12.662  0.00  0.00    -0.226 NA
ATOM      9  C   UNK d   1      22.385  63.396 -11.330  0.00  0.00     0.113 A 
ATOM     10  C   UNK d   1      25.803  63.488 -12.367  0.00  0.00     0.158 C 
ATOM     11  C   UNK d   1      20.972  63.468  -7.922  0.00  0.00     0.156 C 
ENDROOT
BRANCH   1  12
ATOM     12  C   UNK d   1      20.039  63.245 -10.718  0.00  0.00     0.033 C 
ATOM     13  C   UNK d   1      19.021  62.660 -10.194  0.00  0.00     0.015 C 
BRANCH  13  14
ATOM     14  C   UNK d   1      17.646  62.533 -10.619  0.00  0.00    -0.016 A 
ATOM     15  C   UNK d   1      16.837  61.458 -10.446  0.00  0.00     0.024 A 
ATOM     16 Br   UNK d   1      17.520  59.843  -9.701  0.00  0.00    -0.050 Br
ATOM     17  C   UNK d   1      15.478  61.466 -10.848  0.00  0.00     0.059 A 
ATOM     18  C   UNK d   1      14.930  62.574 -11.435  0.00  0.00     0.106 A 
ATOM     19  C   UNK d   1      15.729  63.681 -11.626  0.00  0.00     0.105 A 
ATOM     20  O   UNK d   1      13.665  62.902 -11.932  0.00  0.00    -0.323 OA
ATOM     21  C   UNK d   1      17.047  63.663 -11.231  0.00  0.00     0.052 A 
ATOM     22  O   UNK d   1      14.933  64.662 -12.239  0.00  0.00    -0.323 OA
ATOM     23  C   UNK d   1      13.595  64.327 -11.933  0.00  0.00     0.352 C 
ENDBRANCH  13  14
ENDBRANCH   1  12
BRANCH   7  24
ATOM     24  C   UNK d   1      23.672  63.419 -14.731  0.00  0.00     0.010 A 
ATOM     25  C   UNK d   1      22.713  63.688 -15.650  0.00  0.00     0.015 A 
ATOM     26  C   UNK d   1      23.017  63.643 -17.024  0.00  0.00     0.001 A 
ATOM     27  C   UNK d   1      24.289  63.326 -17.444  0.00  0.00     0.000 A 
ATOM     28  C   UNK d   1      25.290  63.049 -16.522  0.00  0.00     0.001 A 
ATOM     29  C   UNK d   1      24.954  63.103 -15.210  0.00  0.00     0.015 A 
ENDBRANCH   7  24
TORSDOF 3
ENDMDL
