MODEL 1
REMARK VINA RESULT:    -0.492      0.000      0.000
REMARK INTER + INTRA:          -1.244
REMARK INTER:                  -0.549
REMARK INTRA:                  -0.694
REMARK UNBOUND:                -0.694
REMARK  2 active torsions:
REMARK  status: ('A' for Active; 'I' for Inactive)
REMARK    1  A    between atoms: C_10  and  C_21 
REMARK    2  A    between atoms: C_26  and  C_27 
ROOT
ATOM      1 Br   UNK d   1      12.352  68.680 -14.257  0.00  0.00    -0.045 Br
ATOM      2  C   UNK d   1      11.570  67.055 -14.858  0.00  0.00     0.083 A 
ATOM      3  C   UNK d   1      11.948  65.803 -14.381  0.00  0.00     0.107 A 
ATOM      4  C   UNK d   1      11.347  64.647 -14.853  0.00  0.00     0.013 A 
ATOM      5  C   UNK d   1      10.357  64.723 -15.810  0.00  0.00     0.037 A 
ATOM      6  C   UNK d   1       9.979  65.949 -16.284  0.00  0.00     0.049 A 
ATOM      7  C   UNK d   1      10.578  67.089 -15.812  0.00  0.00     0.144 A 
ATOM      8  O   UNK d   1      10.136  68.314 -16.346  0.00  0.00    -0.189 OA
ATOM      9 Br   UNK d   1       8.594  65.984 -17.613  0.00  0.00    -0.048 Br
ATOM     10  C   UNK d   1      11.703  63.395 -14.398  0.00  0.00     0.003 A 
ATOM     11  C   UNK d   1      12.693  63.327 -13.440  0.00  0.00     0.013 A 
ATOM     12  C   UNK d   1      13.274  64.602 -13.000  0.00  0.00     0.108 A 
ATOM     13  C   UNK d   1      14.276  64.516 -12.031  0.00  0.00     0.097 A 
ATOM     14  C   UNK d   1      14.673  63.295 -11.538  0.00  0.00     0.209 A 
ATOM     15  O   UNK d   1      15.578  63.268 -10.666  0.00  0.00    -0.285 OA
ATOM     16  C   UNK d   1      14.103  62.105 -11.977  0.00  0.00     0.063 A 
ATOM     17  C   UNK d   1      13.118  62.114 -12.922  0.00  0.00     0.038 A 
ATOM     18 Br   UNK d   1      14.715  60.451 -11.238  0.00  0.00    -0.047 Br
ATOM     19 Br   UNK d   1      15.082  66.145 -11.409  0.00  0.00    -0.044 Br
ATOM     20  O   UNK d   1      12.890  65.763 -13.474  0.00  0.00    -0.306 OA
ENDROOT
BRANCH  10  21
ATOM     21  C   UNK d   1      11.073  62.175 -14.903  0.00  0.00     0.016 A 
ATOM     22  C   UNK d   1       9.858  61.749 -14.399  0.00  0.00     0.046 A 
ATOM     23  C   UNK d   1       9.247  60.600 -14.855  0.00  0.00     0.026 A 
ATOM     24 Cl   UNK d   1       9.073  62.708 -13.139  0.00  0.00    -0.083 Cl
ATOM     25  C   UNK d   1       9.874  59.865 -15.840  0.00  0.00     0.026 A 
ATOM     26  C   UNK d   1      11.070  60.248 -16.364  0.00  0.00     0.052 A 
ATOM     27  C   UNK d   1      11.667  61.399 -15.896  0.00  0.00     0.075 A 
ATOM     28 Cl   UNK d   1      11.797  59.254 -17.616  0.00  0.00    -0.083 Cl
BRANCH  27  29
ATOM     29  C   UNK d   1      12.938  61.809 -16.442  0.00  0.00     0.212 C 
ATOM     30  O   UNK d   1      14.010  61.192 -16.194  0.00  0.00    -0.644 OA
ATOM     31  O   UNK d   1      13.020  62.922 -17.276  0.00  0.00    -0.644 OA
ENDBRANCH  27  29
ENDBRANCH  10  21
TORSDOF 2
ENDMDL
