/Users/jonathanwahrer/Desktop/Msc/3_Semester/Drug_Design_Praktikum/waehrer_HTS_screening/HTS_experiment/out/docking_results/vina_output/3sx0/0971_docked.pdbqt
 OpenBabel03192222103D

 29 33  0  0  1  0  0  0  0  0999 V2000
    7.6240   68.2510  -16.4380 Br  0  0  0  0  0  0  0  0  0  0  0  0
    9.4140   68.1670  -15.7850 C   0  0  0  0  0  0  0  0  0  0  0  0
   10.1530   66.9700  -15.8190 C   0  0  0  0  0  0  0  0  0  0  0  0
   11.4340   66.8680  -15.3630 C   0  0  0  0  0  0  0  0  0  0  0  0
   12.0250   68.0200  -14.8390 C   0  0  0  0  0  3  0  0  0  0  0  0
   11.3090   69.1790  -14.8040 C   0  0  0  0  0  0  0  0  0  0  0  0
   10.0130   69.2890  -15.2660 C   0  0  0  0  0  0  0  0  0  0  0  0
    9.3360   70.5180  -15.1990 O   0  0  0  0  0  1  0  0  0  0  0  0
   12.1090   70.7570  -14.0900 Br  0  0  0  0  0  0  0  0  0  0  0  0
   12.1730   65.6140  -15.4130 C   0  0  1  0  0  0  0  0  0  0  0  0
   13.2870   65.8320  -16.2760 O   0  0  0  0  0  0  0  0  0  0  0  0
   14.4810   65.6530  -15.6320 C   0  0  0  0  0  0  0  0  0  0  0  0
   15.6140   65.7800  -16.1490 O   0  0  0  0  0  0  0  0  0  0  0  0
   14.1460   65.2960  -14.2670 C   0  0  0  0  0  0  0  0  0  0  0  0
   12.7810   65.2630  -14.0970 C   0  0  0  0  0  0  0  0  0  0  0  0
   12.2950   64.9430  -12.8720 C   0  0  0  0  0  3  0  0  0  0  0  0
   13.1640   64.6640  -11.8380 C   0  0  0  0  0  3  0  0  0  0  0  0
   14.5320   64.6970  -12.0030 C   0  0  0  0  0  3  0  0  0  0  0  0
   15.0380   65.0170  -13.2350 C   0  0  0  0  0  3  0  0  0  0  0  0
   11.4160   64.5070  -15.9880 C   0  0  0  0  0  0  0  0  0  0  0  0
   10.1330   64.6710  -16.4290 C   0  0  0  0  0  0  0  0  0  0  0  0
    9.4170   63.5890  -16.9820 C   0  0  0  0  0  0  0  0  0  0  0  0
   10.0330   62.3630  -17.0700 C   0  0  0  0  0  0  0  0  0  0  0  0
   11.3350   62.1890  -16.6250 C   0  0  0  0  0  0  0  0  0  0  0  0
   12.0230   63.2420  -16.0900 C   0  0  0  0  0  3  0  0  0  0  0  0
   12.2020   60.4960  -16.7410 Br  0  0  0  0  0  0  0  0  0  0  0  0
    9.3180   61.3080  -17.6160 O   0  0  0  0  0  1  0  0  0  0  0  0
    7.6220   63.8580  -17.5880 Br  0  0  0  0  0  0  0  0  0  0  0  0
    9.4620   65.8840  -16.3650 O   0  0  0  0  0  0  0  0  0  0  0  0
  1  2  1  0  0  0  0
  2  7  1  0  0  0  0
  3  2  2  0  0  0  0
  3  4  1  0  0  0  0
  4  5  2  0  0  0  0
  5  6  1  0  0  0  0
  6  9  1  0  0  0  0
  7  8  1  0  0  0  0
  7  6  2  0  0  0  0
 10 11  1  6  0  0  0
 10  4  1  0  0  0  0
 10 15  1  0  0  0  0
 11 12  1  0  0  0  0
 12 14  1  0  0  0  0
 13 12  2  0  0  0  0
 14 15  2  0  0  0  0
 14 19  1  0  0  0  0
 15 16  1  0  0  0  0
 16 17  2  0  0  0  0
 18 17  1  0  0  0  0
 19 18  2  0  0  0  0
 20 10  1  0  0  0  0
 21 29  1  0  0  0  0
 21 20  2  0  0  0  0
 22 21  1  0  0  0  0
 23 22  2  0  0  0  0
 23 24  1  0  0  0  0
 24 25  2  0  0  0  0
 25 20  1  0  0  0  0
 26 24  1  0  0  0  0
 27 23  1  0  0  0  0
 28 22  1  0  0  0  0
 29  3  1  0  0  0  0
M  END
>  <Pose>
1

>  <Score>
-0.534

$$$$
