MODEL 1
REMARK VINA RESULT:    -0.534      0.000      0.000
REMARK INTER + INTRA:          -0.534
REMARK INTER:                  -0.534
REMARK INTRA:                   0.000
REMARK UNBOUND:                 0.000
REMARK  0 active torsions:
REMARK  status: ('A' for Active; 'I' for Inactive)
ROOT
ATOM      1 Br   UNK d   1       7.624  68.251 -16.438  0.00  0.00    -0.045 Br
ATOM      2  C   UNK d   1       9.414  68.167 -15.785  0.00  0.00     0.083 A 
ATOM      3  C   UNK d   1      10.153  66.970 -15.819  0.00  0.00     0.106 A 
ATOM      4  C   UNK d   1      11.434  66.868 -15.363  0.00  0.00     0.023 A 
ATOM      5  C   UNK d   1      12.025  68.020 -14.839  0.00  0.00     0.036 A 
ATOM      6  C   UNK d   1      11.309  69.179 -14.804  0.00  0.00     0.049 A 
ATOM      7  C   UNK d   1      10.013  69.289 -15.266  0.00  0.00     0.144 A 
ATOM      8  O   UNK d   1       9.336  70.518 -15.199  0.00  0.00    -0.189 OA
ATOM      9 Br   UNK d   1      12.109  70.757 -14.090  0.00  0.00    -0.048 Br
ATOM     10  C   UNK d   1      12.173  65.614 -15.413  0.00  0.00     0.159 A 
ATOM     11  O   UNK d   1      13.287  65.832 -16.276  0.00  0.00    -0.291 OA
ATOM     12  C   UNK d   1      14.481  65.653 -15.632  0.00  0.00     0.295 A 
ATOM     13  O   UNK d   1      15.614  65.780 -16.149  0.00  0.00    -0.259 OA
ATOM     14  C   UNK d   1      14.146  65.296 -14.267  0.00  0.00     0.049 A 
ATOM     15  C   UNK d   1      12.781  65.263 -14.097  0.00  0.00     0.003 A 
ATOM     16  C   UNK d   1      12.295  64.943 -12.872  0.00  0.00     0.012 A 
ATOM     17  C   UNK d   1      13.164  64.664 -11.838  0.00  0.00     0.001 A 
ATOM     18  C   UNK d   1      14.532  64.697 -12.003  0.00  0.00     0.001 A 
ATOM     19  C   UNK d   1      15.038  65.017 -13.235  0.00  0.00     0.018 A 
ATOM     20  C   UNK d   1      11.416  64.507 -15.988  0.00  0.00     0.023 A 
ATOM     21  C   UNK d   1      10.133  64.671 -16.429  0.00  0.00     0.106 A 
ATOM     22  C   UNK d   1       9.417  63.589 -16.982  0.00  0.00     0.083 A 
ATOM     23  C   UNK d   1      10.033  62.363 -17.070  0.00  0.00     0.144 A 
ATOM     24  C   UNK d   1      11.335  62.189 -16.625  0.00  0.00     0.049 A 
ATOM     25  C   UNK d   1      12.023  63.242 -16.090  0.00  0.00     0.036 A 
ATOM     26 Br   UNK d   1      12.202  60.496 -16.741  0.00  0.00    -0.048 Br
ATOM     27  O   UNK d   1       9.318  61.308 -17.616  0.00  0.00    -0.189 OA
ATOM     28 Br   UNK d   1       7.622  63.858 -17.588  0.00  0.00    -0.045 Br
ATOM     29  O   UNK d   1       9.462  65.884 -16.365  0.00  0.00    -0.306 OA
ENDROOT
TORSDOF 0
ENDMDL
