MODEL 1
REMARK VINA RESULT:    15.664      0.000      0.000
REMARK INTER + INTRA:          15.664
REMARK INTER:                  15.664
REMARK INTRA:                   0.000
REMARK UNBOUND:                 0.000
REMARK  0 active torsions:
REMARK  status: ('A' for Active; 'I' for Inactive)
ROOT
ATOM      1  I   UNK d   1      13.296  60.814 -10.569  0.00  0.00    -0.038 I 
ATOM      2  C   UNK d   1      14.015  62.451 -11.693  0.00  0.00     0.078 A 
ATOM      3  C   UNK d   1      13.203  62.921 -12.721  0.00  0.00     0.105 A 
ATOM      4  C   UNK d   1      13.638  63.971 -13.460  0.00  0.00     0.023 A 
ATOM      5  C   UNK d   1      14.879  64.542 -13.167  0.00  0.00     0.035 A 
ATOM      6  C   UNK d   1      15.690  64.083 -12.152  0.00  0.00     0.045 A 
ATOM      7  C   UNK d   1      15.240  63.014 -11.403  0.00  0.00     0.143 A 
ATOM      8  O   UNK d   1      16.040  62.536 -10.376  0.00  0.00    -0.189 OA
ATOM      9  I   UNK d   1      17.566  64.984 -11.747  0.00  0.00    -0.042 I 
ATOM     10  C   UNK d   1      12.872  64.539 -14.554  0.00  0.00     0.161 A 
ATOM     11  O   UNK d   1      13.596  64.470 -15.791  0.00  0.00    -0.291 OA
ATOM     12  C   UNK d   1      13.777  65.706 -16.355  0.00  0.00     0.297 A 
ATOM     13  O   UNK d   1      14.361  66.025 -17.430  0.00  0.00    -0.259 OA
ATOM     14  C   UNK d   1      13.144  66.660 -15.455  0.00  0.00     0.074 A 
ATOM     15  C   UNK d   1      12.614  65.980 -14.401  0.00  0.00     0.028 A 
ATOM     16  C   UNK d   1      11.946  66.665 -13.385  0.00  0.00     0.068 A 
ATOM     17  C   UNK d   1      11.806  68.035 -13.424  0.00  0.00     0.080 A 
ATOM     18  C   UNK d   1      12.349  68.728 -14.503  0.00  0.00     0.080 A 
ATOM     19  C   UNK d   1      13.006  68.058 -15.504  0.00  0.00     0.074 A 
ATOM     20 Cl   UNK d   1      13.673  68.929 -16.832  0.00  0.00    -0.081 Cl
ATOM     21 Cl   UNK d   1      12.206  70.460 -14.612  0.00  0.00    -0.081 Cl
ATOM     22 Cl   UNK d   1      10.961  68.861 -12.134  0.00  0.00    -0.081 Cl
ATOM     23 Cl   UNK d   1      11.295  65.739 -12.074  0.00  0.00    -0.082 Cl
ATOM     24  C   UNK d   1      11.576  63.835 -14.753  0.00  0.00     0.023 A 
ATOM     25  C   UNK d   1      11.173  62.789 -13.996  0.00  0.00     0.105 A 
ATOM     26  C   UNK d   1       9.935  62.221 -14.290  0.00  0.00     0.078 A 
ATOM     27  C   UNK d   1       9.125  62.679 -15.305  0.00  0.00     0.143 A 
ATOM     28  C   UNK d   1       9.569  63.748 -16.056  0.00  0.00     0.045 A 
ATOM     29  C   UNK d   1      10.782  64.331 -15.795  0.00  0.00     0.035 A 
ATOM     30  I   UNK d   1       8.351  64.472 -17.616  0.00  0.00    -0.042 I 
ATOM     31  O   UNK d   1       7.907  62.121 -15.594  0.00  0.00    -0.189 OA
ATOM     32  I   UNK d   1       9.298  60.598 -13.123  0.00  0.00    -0.038 I 
ATOM     33  O   UNK d   1      11.961  62.303 -12.969  0.00  0.00    -0.307 OA
ENDROOT
TORSDOF 0
ENDMDL
