MODEL 1
REMARK VINA RESULT:     2.803      0.000      0.000
REMARK INTER + INTRA:           2.803
REMARK INTER:                   2.803
REMARK INTRA:                   0.000
REMARK UNBOUND:                 0.000
REMARK  0 active torsions:
REMARK  status: ('A' for Active; 'I' for Inactive)
ROOT
ATOM      1  I   UNK d   1      15.054  66.436 -11.268  0.00  0.00    -0.038 I 
ATOM      2  C   UNK d   1      14.338  64.532 -11.865  0.00  0.00     0.078 A 
ATOM      3  C   UNK d   1      13.310  64.528 -12.823  0.00  0.00     0.105 A 
ATOM      4  C   UNK d   1      12.833  63.320 -13.222  0.00  0.00     0.023 A 
ATOM      5  C   UNK d   1      13.380  62.148 -12.669  0.00  0.00     0.035 A 
ATOM      6  C   UNK d   1      14.384  62.154 -11.736  0.00  0.00     0.045 A 
ATOM      7  C   UNK d   1      14.867  63.380 -11.332  0.00  0.00     0.143 A 
ATOM      8  O   UNK d   1      15.882  63.423 -10.388  0.00  0.00    -0.189 OA
ATOM      9  I   UNK d   1      15.164  60.349 -10.945  0.00  0.00    -0.042 I 
ATOM     10  C   UNK d   1      11.760  63.211 -14.217  0.00  0.00     0.159 A 
ATOM     11  O   UNK d   1      10.690  62.412 -13.750  0.00  0.00    -0.291 OA
ATOM     12  C   UNK d   1      10.480  61.308 -14.534  0.00  0.00     0.295 A 
ATOM     13  O   UNK d   1       9.618  60.398 -14.404  0.00  0.00    -0.259 OA
ATOM     14  C   UNK d   1      11.466  61.350 -15.604  0.00  0.00     0.049 A 
ATOM     15  C   UNK d   1      12.223  62.462 -15.427  0.00  0.00     0.003 A 
ATOM     16  C   UNK d   1      13.249  62.720 -16.343  0.00  0.00     0.012 A 
ATOM     17  C   UNK d   1      13.474  61.859 -17.392  0.00  0.00     0.001 A 
ATOM     18  C   UNK d   1      12.707  60.727 -17.574  0.00  0.00     0.001 A 
ATOM     19  C   UNK d   1      11.697  60.464 -16.681  0.00  0.00     0.018 A 
ATOM     20  C   UNK d   1      11.285  64.516 -14.707  0.00  0.00     0.023 A 
ATOM     21  C   UNK d   1      11.801  65.687 -14.270  0.00  0.00     0.105 A 
ATOM     22  C   UNK d   1      11.302  66.883 -14.776  0.00  0.00     0.078 A 
ATOM     23  C   UNK d   1      10.302  66.883 -15.707  0.00  0.00     0.143 A 
ATOM     24  C   UNK d   1       9.755  65.711 -16.175  0.00  0.00     0.045 A 
ATOM     25  C   UNK d   1      10.260  64.549 -15.662  0.00  0.00     0.035 A 
ATOM     26  I   UNK d   1       8.207  65.719 -17.616  0.00  0.00    -0.042 I 
ATOM     27  O   UNK d   1       9.824  68.092 -16.197  0.00  0.00    -0.189 OA
ATOM     28  I   UNK d   1      12.120  68.719 -14.083  0.00  0.00    -0.038 I 
ATOM     29  O   UNK d   1      12.829  65.744 -13.314  0.00  0.00    -0.307 OA
ENDROOT
TORSDOF 0
ENDMDL
