MODEL 1
REMARK VINA RESULT:    -1.867      0.000      0.000
REMARK INTER + INTRA:          -2.799
REMARK INTER:                  -2.086
REMARK INTRA:                  -0.713
REMARK UNBOUND:                -0.713
REMARK  2 active torsions:
REMARK  status: ('A' for Active; 'I' for Inactive)
REMARK    1  A    between atoms: C_9  and  C_19 
REMARK    2  A    between atoms: C_20  and  C_25 
ROOT
ATOM      1  I   UNK d   1      13.762  61.183 -11.240  0.00  0.00    -0.038 I 
ATOM      2  C   UNK d   1      13.986  63.117 -12.046  0.00  0.00     0.077 A 
ATOM      3  C   UNK d   1      13.107  63.642 -12.972  0.00  0.00     0.106 A 
ATOM      4  C   UNK d   1      13.250  64.906 -13.503  0.00  0.00     0.011 A 
ATOM      5  C   UNK d   1      14.327  65.660 -13.075  0.00  0.00     0.018 A 
ATOM      6  C   UNK d   1      15.216  65.140 -12.145  0.00  0.00     0.042 A 
ATOM      7  C   UNK d   1      15.064  63.865 -11.616  0.00  0.00     0.126 A 
ATOM      8  O   UNK d   1      15.986  63.393 -10.686  0.00  0.00    -0.191 OA
ATOM      9  C   UNK d   1      12.381  65.448 -14.428  0.00  0.00     0.001 A 
ATOM     10  C   UNK d   1      11.321  64.633 -14.812  0.00  0.00     0.011 A 
ATOM     11  C   UNK d   1      11.204  63.300 -14.227  0.00  0.00     0.107 A 
ATOM     12  C   UNK d   1      10.133  62.540 -14.647  0.00  0.00     0.091 A 
ATOM     13  C   UNK d   1       9.209  62.988 -15.567  0.00  0.00     0.191 A 
ATOM     14  O   UNK d   1       8.231  62.275 -15.940  0.00  0.00    -0.287 OA
ATOM     15  C   UNK d   1       9.319  64.249 -16.121  0.00  0.00     0.057 A 
ATOM     16  C   UNK d   1      10.381  65.035 -15.720  0.00  0.00     0.019 A 
ATOM     17  I   UNK d   1       9.880  60.607 -13.861  0.00  0.00    -0.037 I 
ATOM     18  O   UNK d   1      12.098  62.902 -13.356  0.00  0.00    -0.306 OA
ENDROOT
BRANCH   9  19
ATOM     19  C   UNK d   1      12.529  66.786 -14.992  0.00  0.00    -0.007 A 
ATOM     20  C   UNK d   1      13.287  66.936 -16.149  0.00  0.00     0.051 A 
ATOM     21  C   UNK d   1      13.454  68.171 -16.716  0.00  0.00     0.019 A 
ATOM     22  C   UNK d   1      12.867  69.273 -16.132  0.00  0.00     0.001 A 
ATOM     23  C   UNK d   1      12.112  69.151 -14.987  0.00  0.00     0.001 A 
ATOM     24  C   UNK d   1      11.957  67.899 -14.435  0.00  0.00     0.013 A 
BRANCH  20  25
ATOM     25  C   UNK d   1      13.913  65.775 -16.777  0.00  0.00     0.210 C 
ATOM     26  O   UNK d   1      15.114  65.472 -16.598  0.00  0.00    -0.644 OA
ATOM     27  O   UNK d   1      13.182  64.947 -17.616  0.00  0.00    -0.644 OA
ENDBRANCH  20  25
ENDBRANCH   9  19
TORSDOF 2
ENDMDL
