/Users/jonathanwahrer/Desktop/Msc/3_Semester/Drug_Design_Praktikum/waehrer_HTS_screening/HTS_experiment/out/docking_results/vina_output/3sx0/0980_docked.pdbqt
 OpenBabel03192222103D

 27 30  0  0  1  0  0  0  0  0999 V2000
   13.7620   61.1830  -11.2400 I   0  0  0  0  0  0  0  0  0  0  0  0
   13.9860   63.1170  -12.0460 C   0  0  0  0  0  0  0  0  0  0  0  0
   13.1070   63.6420  -12.9720 C   0  0  0  0  0  0  0  0  0  0  0  0
   13.2500   64.9060  -13.5030 C   0  0  0  0  0  0  0  0  0  0  0  0
   14.3270   65.6600  -13.0750 C   0  0  0  0  0  2  0  0  0  0  0  0
   15.2160   65.1400  -12.1450 C   0  0  0  0  0  3  0  0  0  0  0  0
   15.0640   63.8650  -11.6160 C   0  0  0  0  0  0  0  0  0  0  0  0
   15.9860   63.3930  -10.6860 O   0  0  0  0  0  1  0  0  0  0  0  0
   12.3810   65.4480  -14.4280 C   0  0  0  0  0  0  0  0  0  0  0  0
   11.3210   64.6330  -14.8120 C   0  0  0  0  0  0  0  0  0  0  0  0
   11.2040   63.3000  -14.2270 C   0  0  0  0  0  0  0  0  0  0  0  0
   10.1330   62.5400  -14.6470 C   0  0  1  0  0  3  0  0  0  0  0  0
    9.2090   62.9880  -15.5670 C   0  0  0  0  0  0  0  0  0  0  0  0
    8.2310   62.2750  -15.9400 O   0  0  0  0  0  0  0  0  0  0  0  0
    9.3190   64.2490  -16.1210 C   0  0  0  0  0  3  0  0  0  0  0  0
   10.3810   65.0350  -15.7200 C   0  0  0  0  0  3  0  0  0  0  0  0
    9.8800   60.6070  -13.8610 I   0  0  0  0  0  0  0  0  0  0  0  0
   12.0980   62.9020  -13.3560 O   0  0  0  0  0  0  0  0  0  0  0  0
   12.5290   66.7860  -14.9920 C   0  0  0  0  0  0  0  0  0  0  0  0
   13.2870   66.9360  -16.1490 C   0  0  0  0  0  0  0  0  0  0  0  0
   13.4540   68.1710  -16.7160 C   0  0  0  0  0  3  0  0  0  0  0  0
   12.8670   69.2730  -16.1320 C   0  0  0  0  0  3  0  0  0  0  0  0
   12.1120   69.1510  -14.9870 C   0  0  0  0  0  3  0  0  0  0  0  0
   11.9570   67.8990  -14.4350 C   0  0  0  0  0  3  0  0  0  0  0  0
   13.9130   65.7750  -16.7770 C   0  0  0  0  0  0  0  0  0  0  0  0
   15.1140   65.4720  -16.5980 O   0  0  0  0  0  1  0  0  0  0  0  0
   13.1820   64.9470  -17.6160 O   0  0  0  0  0  0  0  0  0  0  0  0
  2  7  1  0  0  0  0
  2  1  1  0  0  0  0
  3  2  2  0  0  0  0
  4  5  1  0  0  0  0
  4  3  1  0  0  0  0
  5  6  1  0  0  0  0
  6  7  2  0  0  0  0
  7  8  1  0  0  0  0
  9  4  2  0  0  0  0
 10  9  1  0  0  0  0
 10 11  2  0  0  0  0
 11 18  1  0  0  0  0
 12 11  1  0  0  0  0
 12 17  1  6  0  0  0
 13 12  1  0  0  0  0
 14 13  2  0  0  0  0
 15 16  2  0  0  0  0
 15 13  1  0  0  0  0
 16 10  1  0  0  0  0
 18  3  1  0  0  0  0
 19 24  1  0  0  0  0
 19  9  1  0  0  0  0
 20 19  2  0  0  0  0
 21 20  1  0  0  0  0
 21 22  2  0  0  0  0
 22 23  1  0  0  0  0
 23 24  2  0  0  0  0
 25 26  1  0  0  0  0
 25 20  1  0  0  0  0
 27 25  2  0  0  0  0
M  END
>  <Pose>
1

>  <Score>
-1.867

$$$$
