/Users/jonathanwahrer/Desktop/Msc/3_Semester/Drug_Design_Praktikum/waehrer_HTS_screening/HTS_experiment/out/docking_results/vina_output/3sx0/0983_docked.pdbqt
 OpenBabel03192222113D

 34 37  0  0  0  0  0  0  0  0999 V2000
   10.9250   62.7450  -15.7720 C   0  0  0  0  0  0  0  0  0  0  0  0
   10.3940   61.4720  -15.5240 C   0  0  0  0  0  0  0  0  0  0  0  0
    9.5230   61.6540  -14.4730 C   0  0  0  0  0  0  0  0  0  0  0  0
    9.5380   62.9480  -14.1240 N   0  0  0  0  0  0  0  0  0  0  0  0
   10.3980   63.6680  -14.9080 C   0  0  0  0  0  0  0  0  0  0  0  0
    8.8270   60.5490  -13.9870 C   0  0  0  0  0  0  0  0  0  0  0  0
    9.0240   59.3240  -14.5620 C   0  0  0  0  0  3  0  0  0  0  0  0
    9.9070   59.1340  -15.6290 C   0  0  0  0  0  0  0  0  0  0  0  0
   10.6040   60.2450  -16.1140 C   0  0  0  0  0  3  0  0  0  0  0  0
   10.1360   57.4060  -16.3830 Br  0  0  0  0  0  0  0  0  0  0  0  0
    7.6230   60.7690  -12.5420 Br  0  0  0  0  0  0  0  0  0  0  0  0
    8.9660   63.3780  -13.3440 H   0  0  0  0  0  0  0  0  0  0  0  0
   10.6170   65.1060  -14.8160 C   0  0  0  0  0  0  0  0  0  0  0  0
   10.0730   65.9920  -15.6960 N   0  0  0  0  0  0  0  0  0  0  0  0
   10.4430   67.2470  -15.3970 C   0  0  0  0  0  0  0  0  0  0  0  0
    9.4500   65.7620  -16.5010 H   0  0  0  0  0  0  0  0  0  0  0  0
   11.2590   67.2190  -14.2870 C   0  0  0  0  0  0  0  0  0  0  0  0
   10.1800   68.4920  -15.9500 C   0  0  0  0  0  0  0  0  0  0  0  0
   11.3460   65.8630  -13.9540 C   0  0  0  0  0  0  0  0  0  0  0  0
   11.7980   68.3660  -13.7410 C   0  0  0  0  0  3  0  0  0  0  0  0
   11.5300   69.6040  -14.3020 C   0  0  0  0  0  0  0  0  0  0  0  0
   10.7100   69.6490  -15.4190 C   0  0  0  0  0  3  0  0  0  0  0  0
   12.2680   71.2110  -13.5610 Br  0  0  0  0  0  0  0  0  0  0  0  0
    9.0600   68.6250  -17.4870 Br  0  0  0  0  0  0  0  0  0  0  0  0
   12.0940   65.4120  -12.8820 O   0  0  0  0  0  0  0  0  0  0  0  0
   13.5400   64.5300  -13.0840 S   0  0  0  0  0  0  0  0  0  0  0  0
   13.2980   63.0580  -12.9200 O   0  0  0  0  0  1  0  0  0  0  0  0
   14.5800   64.9290  -12.0750 O   0  0  0  0  0  1  0  0  0  0  0  0
   14.2020   64.8750  -14.6080 O   0  0  0  0  0  1  0  0  0  0  0  0
   11.8600   62.9860  -16.7730 O   0  0  0  0  0  0  0  0  0  0  0  0
   13.3110   62.0830  -16.8670 S   0  0  0  0  0  0  0  0  0  0  0  0
   13.7140   61.7670  -15.4530 O   0  0  0  0  0  1  0  0  0  0  0  0
   13.0950   60.7910  -17.6160 O   0  0  0  0  0  1  0  0  0  0  0  0
   14.5450   62.9870  -17.5660 O   0  0  0  0  0  1  0  0  0  0  0  0
  1  2  1  0  0  0  0
  1  5  2  0  0  0  0
  2  3  1  0  0  0  0
  3  4  1  0  0  0  0
  3  6  2  0  0  0  0
  4 12  1  0  0  0  0
  5 13  1  0  0  0  0
  5  4  1  0  0  0  0
  6 11  1  0  0  0  0
  7  6  1  0  0  0  0
  8  7  2  0  0  0  0
  9  8  1  0  0  0  0
  9  2  2  0  0  0  0
 10  8  1  0  0  0  0
 13 19  2  0  0  0  0
 14 15  1  0  0  0  0
 14 13  1  0  0  0  0
 15 17  1  0  0  0  0
 16 14  1  0  0  0  0
 17 19  1  0  0  0  0
 17 20  2  0  0  0  0
 18 22  1  0  0  0  0
 18 15  2  0  0  0  0
 19 25  1  0  0  0  0
 21 20  1  0  0  0  0
 21 23  1  0  0  0  0
 22 21  2  0  0  0  0
 24 18  1  0  0  0  0
 26 27  1  0  0  0  0
 26 25  1  0  0  0  0
 26 28  1  0  0  0  0
 29 26  1  0  0  0  0
 30  1  1  0  0  0  0
 31 30  1  0  0  0  0
 31 32  1  0  0  0  0
 33 31  1  0  0  0  0
 34 31  1  0  0  0  0
M  END
>  <Pose>
1

>  <Score>
-3.318

$$$$
