MODEL 1
REMARK VINA RESULT:    -6.728      0.000      0.000
REMARK INTER + INTRA:          -7.901
REMARK INTER:                  -7.712
REMARK INTRA:                  -0.190
REMARK UNBOUND:                -0.190
REMARK  4 active torsions:
REMARK  status: ('A' for Active; 'I' for Inactive)
REMARK    1  A    between atoms: C_7  and  N_10 
REMARK    2  A    between atoms: C_8  and  O_9 
REMARK    3  A    between atoms: C_13  and  N_21 
REMARK    4  A    between atoms: C_15  and  O_20 
ROOT
ATOM      1  N   UNK d   1      21.111  63.557  -9.775  0.00  0.00    -0.277 N 
ATOM      2  C   UNK d   1      21.481  63.812  -8.514  0.00  0.00     0.186 A 
ATOM      3  N   UNK d   1      20.762  63.940  -7.365  0.00  0.00    -0.042 NA
ATOM      4  C   UNK d   1      21.315  64.199  -6.184  0.00  0.00     0.724 A 
ATOM      5  N   UNK d   1      22.651  64.342  -6.119  0.00  0.00    -0.036 NA
ATOM      6  C   UNK d   1      23.424  64.227  -7.219  0.00  0.00     0.214 A 
ATOM      7  C   UNK d   1      22.852  63.959  -8.445  0.00  0.00     0.159 A 
ATOM      8  N   UNK d   1      23.304  63.787  -9.696  0.00  0.00    -0.216 NA
ATOM      9  C   UNK d   1      22.243  63.544 -10.500  0.00  0.00     0.182 A 
ATOM     10 Br   UNK d   1      22.310  63.224 -12.388  0.00  0.00    -0.008 Br
ENDROOT
BRANCH   1  11
ATOM     11  C   UNK d   1      19.740  63.354 -10.174  0.00  0.00     0.263 C 
ATOM     12  O   UNK d   1      18.899  64.359  -9.697  0.00  0.00    -0.353 OA
ATOM     13  C   UNK d   1      17.671  63.902 -10.107  0.00  0.00     0.180 C 
ATOM     14  C   UNK d   1      17.658  62.483  -9.524  0.00  0.00     0.198 C 
ATOM     15  C   UNK d   1      16.504  64.635  -9.563  0.00  0.00     0.216 C 
ATOM     16  O   UNK d   1      16.942  61.706 -10.432  0.00  0.00    -0.279 OA
ATOM     17  C   UNK d   1      19.130  62.127  -9.500  0.00  0.00     0.199 C 
ATOM     18  P   UNK d   1      15.635  62.669 -10.958  0.00  0.00     0.408 P 
ATOM     19  O   UNK d   1      15.814  63.083 -12.402  0.00  0.00    -0.624 OA
ATOM     20  O   UNK d   1      15.341  63.952  -9.936  0.00  0.00    -0.287 OA
ATOM     21  O   UNK d   1      14.266  61.641 -10.930  0.00  0.00    -0.624 OA
BRANCH  17  22
ATOM     22  O   UNK d   1      19.419  60.960 -10.162  0.00  0.00    -0.388 OA
ATOM     23  H   UNK d   1      20.293  61.056 -10.658  0.00  0.00     0.210 HD
ENDBRANCH  17  22
ENDBRANCH   1  11
BRANCH   4  24
ATOM     24  N   UNK d   1      20.519  64.324  -5.009  0.00  0.00    -0.231 N 
ATOM     25  H   UNK d   1      19.486  64.265  -5.137  0.00  0.00     0.174 HD
ATOM     26  H   UNK d   1      20.939  64.470  -4.056  0.00  0.00     0.174 HD
ENDBRANCH   4  24
BRANCH   6  27
ATOM     27  O   UNK d   1      24.806  64.374  -7.156  0.00  0.00    -0.343 OA
ATOM     28  H   UNK d   1      25.283  64.531  -8.057  0.00  0.00     0.219 HD
ENDBRANCH   6  27
TORSDOF 4
ENDMDL
