/Users/jonathanwahrer/Desktop/Msc/3_Semester/Drug_Design_Praktikum/waehrer_HTS_screening/HTS_experiment/out/docking_results/vina_output/3sx0/0991_docked.pdbqt
 OpenBabel03192222113D

 34 39  0  0  1  0  0  0  0  0999 V2000
   13.9160   63.9930  -12.7040 N   0  0  0  0  0  0  0  0  0  0  0  0
   15.0420   63.6680  -12.0210 C   0  0  0  0  0  0  0  0  0  0  0  0
   14.9970   62.3540  -11.6060 C   0  0  0  0  0  0  0  0  0  0  0  0
   13.8140   61.8830  -12.0530 N   0  0  0  0  0  0  0  0  0  0  0  0
   13.1720   62.8720  -12.7090 C   0  0  0  0  0  0  0  0  0  0  0  0
   11.4580   62.7770  -13.5510 Br  0  0  0  0  0  0  0  0  0  0  0  0
   16.0540   61.8290  -10.8900 C   0  0  0  0  0  0  0  0  0  0  0  0
   16.0240   60.6380  -10.5090 O   0  0  0  0  0  0  0  0  0  0  0  0
   17.1470   62.5620  -10.5780 N   0  0  0  0  0  0  0  0  0  0  0  0
   17.1710   63.8420  -10.9920 C   0  0  0  0  0  0  0  0  0  0  0  0
   18.3420   64.3440  -10.5620 N   0  0  0  0  0  0  0  0  0  0  0  0
   19.0610   63.4270   -9.8900 C   0  0  0  0  0  0  0  0  0  0  0  0
   18.2940   62.2810   -9.8990 C   0  0  0  0  0  3  0  0  0  0  0  0
   16.1360   64.3790  -11.6990 N   0  0  0  0  0  0  0  0  0  0  0  0
   16.1590   65.3730  -12.0200 H   0  0  0  0  0  0  0  0  0  0  0  0
   13.5740   65.2780  -13.3070 C   0  0  2  0  0  3  0  0  0  0  0  0
   12.2610   65.6370  -13.0080 O   0  0  0  0  0  0  0  0  0  0  0  0
   11.8170   66.4780  -13.9910 C   0  0  1  0  0  3  0  0  0  0  0  0
   12.4620   65.9330  -15.2680 C   0  0  1  0  0  3  0  0  0  0  0  0
   10.3250   66.4270  -14.2150 C   0  0  0  0  0  2  0  0  0  0  0  0
   12.6880   67.0380  -16.0840 O   0  0  0  0  0  0  0  0  0  0  0  0
   13.7240   65.2820  -14.7890 C   0  0  1  0  0  3  0  0  0  0  0  0
   11.2900   67.9990  -15.9970 P   0  0  1  0  0  0  0  0  0  0  0  0
   10.8430   68.4390  -17.6160 S   0  0  0  0  0  1  0  0  0  0  0  0
    9.9900   67.1410  -15.3430 O   0  0  0  0  0  0  0  0  0  0  0  0
   11.5360   69.3650  -15.0340 O   0  0  0  0  0  0  0  0  0  0  0  0
   14.8420   66.0290  -15.1840 O   0  0  0  0  0  0  0  0  0  0  0  0
   15.0480   66.7470  -14.5520 H   0  0  0  0  0  0  0  0  0  0  0  0
   20.3830   63.6020   -9.2740 C   0  0  0  0  0  0  0  0  0  0  0  0
   21.5180   63.6010  -10.0530 C   0  0  0  0  0  3  0  0  0  0  0  0
   22.7810   63.7650   -9.4990 C   0  0  0  0  0  3  0  0  0  0  0  0
   22.8910   63.9320   -8.1370 C   0  0  0  0  0  3  0  0  0  0  0  0
   21.7730   63.9390   -7.3170 C   0  0  0  0  0  3  0  0  0  0  0  0
   20.5450   63.7720   -7.9210 C   0  0  0  0  0  3  0  0  0  0  0  0
  1  2  1  0  0  0  0
  2 14  1  0  0  0  0
  2  3  2  0  0  0  0
  3  7  1  0  0  0  0
  4  3  1  0  0  0  0
  5  1  1  0  0  0  0
  5  4  2  0  0  0  0
  6  5  1  0  0  0  0
  7  9  1  0  0  0  0
  7  8  2  0  0  0  0
  9 13  1  0  0  0  0
 10  9  1  0  0  0  0
 10 11  2  0  0  0  0
 11 12  1  0  0  0  0
 12 29  1  0  0  0  0
 13 12  2  0  0  0  0
 14 10  1  0  0  0  0
 15 14  1  0  0  0  0
 16 17  1  0  0  0  0
 16  1  1  6  0  0  0
 18 20  1  6  0  0  0
 18 17  1  0  0  0  0
 19 21  1  6  0  0  0
 19 22  1  0  0  0  0
 19 18  1  0  0  0  0
 21 23  1  0  0  0  0
 22 27  1  1  0  0  0
 22 16  1  0  0  0  0
 23 24  1  6  0  0  0
 23 25  1  0  0  0  0
 23 26  2  0  0  0  0
 25 20  1  0  0  0  0
 27 28  1  0  0  0  0
 29 34  1  0  0  0  0
 30 31  1  0  0  0  0
 30 29  2  0  0  0  0
 31 32  2  0  0  0  0
 32 33  1  0  0  0  0
 34 33  2  0  0  0  0
M  END
>  <Pose>
1

>  <Score>
-6.801

$$$$
