MODEL 1
REMARK VINA RESULT:    -6.801      0.000      0.000
REMARK INTER + INTRA:          -8.018
REMARK INTER:                  -7.795
REMARK INTRA:                  -0.224
REMARK UNBOUND:                -0.224
REMARK  3 active torsions:
REMARK  status: ('A' for Active; 'I' for Inactive)
REMARK    1  A    between atoms: C_7  and  N_10 
REMARK    2  A    between atoms: C_8  and  O_9 
REMARK    3  A    between atoms: C_21  and  C_23 
ROOT
ATOM      1  N   UNK d   1      13.916  63.993 -12.704  0.00  0.00    -0.279 N 
ATOM      2  C   UNK d   1      15.042  63.668 -12.021  0.00  0.00     0.162 A 
ATOM      3  C   UNK d   1      14.997  62.354 -11.606  0.00  0.00     0.173 A 
ATOM      4  N   UNK d   1      13.814  61.883 -12.053  0.00  0.00    -0.214 NA
ATOM      5  C   UNK d   1      13.172  62.872 -12.709  0.00  0.00     0.182 A 
ATOM      6 Br   UNK d   1      11.458  62.777 -13.551  0.00  0.00    -0.008 Br
ATOM      7  C   UNK d   1      16.054  61.829 -10.890  0.00  0.00     0.298 A 
ATOM      8  O   UNK d   1      16.024  60.638 -10.509  0.00  0.00    -0.264 OA
ATOM      9  N   UNK d   1      17.147  62.562 -10.578  0.00  0.00    -0.115 N 
ATOM     10  C   UNK d   1      17.171  63.842 -10.992  0.00  0.00     0.716 A 
ATOM     11  N   UNK d   1      18.342  64.344 -10.562  0.00  0.00    -0.062 NA
ATOM     12  C   UNK d   1      19.061  63.427  -9.890  0.00  0.00     0.102 A 
ATOM     13  C   UNK d   1      18.294  62.281  -9.899  0.00  0.00     0.152 A 
ATOM     14  N   UNK d   1      16.136  64.379 -11.699  0.00  0.00    -0.171 N 
ATOM     15  H   UNK d   1      16.159  65.373 -12.020  0.00  0.00     0.186 HD
ENDROOT
BRANCH   1  16
ATOM     16  C   UNK d   1      13.574  65.278 -13.307  0.00  0.00     0.263 C 
ATOM     17  O   UNK d   1      12.261  65.637 -13.008  0.00  0.00    -0.353 OA
ATOM     18  C   UNK d   1      11.817  66.478 -13.991  0.00  0.00     0.180 C 
ATOM     19  C   UNK d   1      12.462  65.933 -15.268  0.00  0.00     0.197 C 
ATOM     20  C   UNK d   1      10.325  66.427 -14.215  0.00  0.00     0.214 C 
ATOM     21  O   UNK d   1      12.688  67.038 -16.084  0.00  0.00    -0.292 OA
ATOM     22  C   UNK d   1      13.724  65.282 -14.789  0.00  0.00     0.199 C 
ATOM     23  P   UNK d   1      11.290  67.999 -15.997  0.00  0.00     0.422 P 
ATOM     24  S   UNK d   1      10.843  68.439 -17.616  0.00  0.00     0.009 SA
ATOM     25  O   UNK d   1       9.990  67.141 -15.343  0.00  0.00    -0.300 OA
ATOM     26  O   UNK d   1      11.536  69.365 -15.034  0.00  0.00    -0.240 OA
BRANCH  22  27
ATOM     27  O   UNK d   1      14.842  66.029 -15.184  0.00  0.00    -0.388 OA
ATOM     28  H   UNK d   1      15.048  66.747 -14.552  0.00  0.00     0.210 HD
ENDBRANCH  22  27
ENDBRANCH   1  16
BRANCH  12  29
ATOM     29  C   UNK d   1      20.383  63.602  -9.274  0.00  0.00    -0.005 A 
ATOM     30  C   UNK d   1      21.518  63.601 -10.053  0.00  0.00     0.014 A 
ATOM     31  C   UNK d   1      22.781  63.765  -9.499  0.00  0.00     0.001 A 
ATOM     32  C   UNK d   1      22.891  63.932  -8.137  0.00  0.00     0.000 A 
ATOM     33  C   UNK d   1      21.773  63.939  -7.317  0.00  0.00     0.001 A 
ATOM     34  C   UNK d   1      20.545  63.772  -7.921  0.00  0.00     0.014 A 
ENDBRANCH  12  29
TORSDOF 3
ENDMDL
