MODEL 1
REMARK VINA RESULT:    -7.411      0.000      0.000
REMARK INTER + INTRA:          -7.141
REMARK INTER:                  -8.277
REMARK INTRA:                   1.137
REMARK UNBOUND:                 1.137
REMARK  3 active torsions:
REMARK  status: ('A' for Active; 'I' for Inactive)
REMARK    1  A    between atoms: C_7  and  N_10 
REMARK    2  A    between atoms: C_8  and  O_9 
REMARK    3  A    between atoms: C_15  and  N_20 
ROOT
ATOM      1  P   UNK d   1      25.182  63.067  -3.326  0.00  0.00     0.422 P 
ATOM      2  S   UNK d   1      24.136  61.815  -2.708  0.00  0.00     0.009 SA
ATOM      3  O   UNK d   1      24.246  64.275  -4.086  0.00  0.00    -0.292 OA
ATOM      4  C   UNK d   1      23.788  63.740  -5.265  0.00  0.00     0.197 C 
ATOM      5  C   UNK d   1      24.994  63.411  -6.154  0.00  0.00     0.180 C 
ATOM      6  O   UNK d   1      24.352  63.230  -7.379  0.00  0.00    -0.353 OA
ATOM      7  C   UNK d   1      23.514  64.310  -7.523  0.00  0.00     0.263 C 
ATOM      8  C   UNK d   1      23.088  64.756  -6.147  0.00  0.00     0.199 C 
ATOM      9  C   UNK d   1      25.702  62.181  -5.677  0.00  0.00     0.214 C 
ATOM     10  O   UNK d   1      26.263  62.452  -4.442  0.00  0.00    -0.300 OA
ATOM     11  O   UNK d   1      25.978  63.763  -2.034  0.00  0.00    -0.240 OA
ENDROOT
BRANCH   7  12
ATOM     12  N   UNK d   1      22.311  63.995  -8.270  0.00  0.00    -0.278 N 
ATOM     13  C   UNK d   1      22.289  63.729  -9.600  0.00  0.00     0.168 A 
ATOM     14  N   UNK d   1      23.274  63.681 -10.534  0.00  0.00    -0.221 NA
ATOM     15  C   UNK d   1      20.987  63.473  -9.977  0.00  0.00     0.151 A 
ATOM     16  C   UNK d   1      23.000  63.389 -11.821  0.00  0.00     0.237 A 
ATOM     17  N   UNK d   1      21.722  63.137 -12.196  0.00  0.00    -0.222 NA
ATOM     18  C   UNK d   1      20.719  63.175 -11.300  0.00  0.00     0.155 A 
ATOM     19  N   UNK d   1      20.222  63.584  -8.876  0.00  0.00    -0.216 NA
ATOM     20  C   UNK d   1      21.039  63.902  -7.847  0.00  0.00     0.182 A 
ATOM     21 Br   UNK d   1      20.538  64.194  -6.017  0.00  0.00    -0.008 Br
BRANCH  18  22
ATOM     22  N   UNK d   1      19.375  62.906 -11.712  0.00  0.00    -0.382 N 
ATOM     23  H   UNK d   1      19.101  63.126 -12.709  0.00  0.00     0.157 HD
ATOM     24  H   UNK d   1      18.663  62.505 -11.070  0.00  0.00     0.157 HD
ENDBRANCH  18  22
ENDBRANCH   7  12
BRANCH   8  25
ATOM     25  O   UNK d   1      23.709  65.989  -5.905  0.00  0.00    -0.388 OA
ATOM     26  H   UNK d   1      23.311  66.480  -5.164  0.00  0.00     0.210 HD
ENDBRANCH   8  25
TORSDOF 3
ENDMDL
