/Users/jonathanwahrer/Desktop/Msc/3_Semester/Drug_Design_Praktikum/waehrer_HTS_screening/HTS_experiment/out/docking_results/vina_output/3sx0/0993_docked.pdbqt
 OpenBabel03192222113D

 26 29  0  0  1  0  0  0  0  0999 V2000
   25.1820   63.0670   -3.3260 P   0  0  2  0  0  0  0  0  0  0  0  0
   24.1360   61.8150   -2.7080 S   0  0  0  0  0  1  0  0  0  0  0  0
   24.2460   64.2750   -4.0860 O   0  0  0  0  0  0  0  0  0  0  0  0
   23.7880   63.7400   -5.2650 C   0  0  2  0  0  3  0  0  0  0  0  0
   24.9940   63.4110   -6.1540 C   0  0  2  0  0  3  0  0  0  0  0  0
   24.3520   63.2300   -7.3790 O   0  0  0  0  0  0  0  0  0  0  0  0
   23.5140   64.3100   -7.5230 C   0  0  2  0  0  3  0  0  0  0  0  0
   23.0880   64.7560   -6.1470 C   0  0  2  0  0  3  0  0  0  0  0  0
   25.7020   62.1810   -5.6770 C   0  0  0  0  0  2  0  0  0  0  0  0
   26.2630   62.4520   -4.4420 O   0  0  0  0  0  0  0  0  0  0  0  0
   25.9780   63.7630   -2.0340 O   0  0  0  0  0  0  0  0  0  0  0  0
   22.3110   63.9950   -8.2700 N   0  0  0  0  0  0  0  0  0  0  0  0
   22.2890   63.7290   -9.6000 C   0  0  0  0  0  0  0  0  0  0  0  0
   23.2740   63.6810  -10.5340 N   0  0  0  0  0  0  0  0  0  0  0  0
   20.9870   63.4730   -9.9770 C   0  0  0  0  0  0  0  0  0  0  0  0
   23.0000   63.3890  -11.8210 C   0  0  0  0  0  3  0  0  0  0  0  0
   21.7220   63.1370  -12.1960 N   0  0  0  0  0  0  0  0  0  0  0  0
   20.7190   63.1750  -11.3000 C   0  0  0  0  0  0  0  0  0  0  0  0
   20.2220   63.5840   -8.8760 N   0  0  0  0  0  0  0  0  0  0  0  0
   21.0390   63.9020   -7.8470 C   0  0  0  0  0  0  0  0  0  0  0  0
   20.5380   64.1940   -6.0170 Br  0  0  0  0  0  0  0  0  0  0  0  0
   19.3750   62.9060  -11.7120 N   0  0  0  0  0  0  0  0  0  0  0  0
   19.1010   63.1260  -12.7090 H   0  0  0  0  0  0  0  0  0  0  0  0
   18.6630   62.5050  -11.0700 H   0  0  0  0  0  0  0  0  0  0  0  0
   23.7090   65.9890   -5.9050 O   0  0  0  0  0  0  0  0  0  0  0  0
   23.3110   66.4800   -5.1640 H   0  0  0  0  0  0  0  0  0  0  0  0
  1  2  1  1  0  0  0
  1 11  2  0  0  0  0
  3  1  1  0  0  0  0
  4  3  1  1  0  0  0
  5  9  1  1  0  0  0
  5  4  1  0  0  0  0
  6  5  1  0  0  0  0
  7 12  1  6  0  0  0
  7  6  1  0  0  0  0
  7  8  1  0  0  0  0
  8 25  1  1  0  0  0
  8  4  1  0  0  0  0
  9 10  1  0  0  0  0
 10  1  1  0  0  0  0
 12 20  1  0  0  0  0
 13 12  1  0  0  0  0
 14 13  2  0  0  0  0
 15 13  1  0  0  0  0
 15 19  1  0  0  0  0
 16 14  1  0  0  0  0
 17 16  2  0  0  0  0
 17 18  1  0  0  0  0
 18 15  2  0  0  0  0
 19 20  2  0  0  0  0
 20 21  1  0  0  0  0
 22 18  1  0  0  0  0
 22 24  1  0  0  0  0
 23 22  1  0  0  0  0
 25 26  1  0  0  0  0
M  END
>  <Pose>
1

>  <Score>
-7.411

$$$$
