MODEL 1
REMARK VINA RESULT:    -5.778      0.000      0.000
REMARK INTER + INTRA:          -6.225
REMARK INTER:                  -6.454
REMARK INTRA:                   0.230
REMARK UNBOUND:                 0.230
REMARK  3 active torsions:
REMARK  status: ('A' for Active; 'I' for Inactive)
REMARK    1  A    between atoms: C_7  and  N_10 
REMARK    2  A    between atoms: C_8  and  O_9 
REMARK    3  A    between atoms: C_15  and  N_20 
ROOT
ATOM      1  P   UNK d   1      16.722  62.456 -10.801  0.00  0.00     0.408 P 
ATOM      2  O   UNK d   1      15.763  61.274 -10.645  0.00  0.00    -0.624 OA
ATOM      3  O   UNK d   1      18.221  61.836 -11.232  0.00  0.00    -0.279 OA
ATOM      4  C   UNK d   1      19.234  62.385 -10.489  0.00  0.00     0.198 C 
ATOM      5  C   UNK d   1      18.831  63.838 -10.204  0.00  0.00     0.180 C 
ATOM      6  O   UNK d   1      19.993  64.535 -10.060  0.00  0.00    -0.353 OA
ATOM      7  C   UNK d   1      21.003  63.908 -10.736  0.00  0.00     0.263 C 
ATOM      8  C   UNK d   1      20.513  62.600 -11.254  0.00  0.00     0.199 C 
ATOM      9  C   UNK d   1      17.955  63.795  -8.994  0.00  0.00     0.216 C 
ATOM     10  O   UNK d   1      16.731  63.286  -9.353  0.00  0.00    -0.287 OA
ATOM     11  O   UNK d   1      16.088  63.401 -12.078  0.00  0.00    -0.624 OA
ENDROOT
BRANCH   7  12
ATOM     12  N   UNK d   1      22.129  63.767  -9.822  0.00  0.00    -0.278 N 
ATOM     13  C   UNK d   1      22.103  64.009  -8.491  0.00  0.00     0.168 A 
ATOM     14  N   UNK d   1      21.106  64.419  -7.688  0.00  0.00    -0.221 NA
ATOM     15  C   UNK d   1      23.360  63.762  -7.980  0.00  0.00     0.151 A 
ATOM     16  C   UNK d   1      21.342  64.588  -6.377  0.00  0.00     0.237 A 
ATOM     17  N   UNK d   1      22.569  64.346  -5.881  0.00  0.00    -0.222 NA
ATOM     18  C   UNK d   1      23.610  63.935  -6.621  0.00  0.00     0.155 A 
ATOM     19  N   UNK d   1      24.141  63.374  -8.985  0.00  0.00    -0.216 NA
ATOM     20  C   UNK d   1      23.385  63.381 -10.097  0.00  0.00     0.182 A 
ATOM     21 Br   UNK d   1      23.952  62.912 -11.880  0.00  0.00    -0.008 Br
BRANCH  18  22
ATOM     22  N   UNK d   1      24.910  63.677  -6.109  0.00  0.00    -0.382 N 
ATOM     23  H   UNK d   1      25.608  63.194  -6.749  0.00  0.00     0.157 HD
ATOM     24  H   UNK d   1      25.223  63.925  -5.165  0.00  0.00     0.157 HD
ENDBRANCH  18  22
ENDBRANCH   7  12
BRANCH   8  25
ATOM     25  O   UNK d   1      20.269  62.593 -12.613  0.00  0.00    -0.388 OA
ATOM     26  H   UNK d   1      19.396  62.941 -12.858  0.00  0.00     0.210 HD
ENDBRANCH   8  25
TORSDOF 3
ENDMDL
