/Users/jonathanwahrer/Desktop/Msc/3_Semester/Drug_Design_Praktikum/waehrer_HTS_screening/HTS_experiment/out/docking_results/vina_output/3sx0/1001_docked.pdbqt
 OpenBabel03192222123D

 26 29  0  0  1  0  0  0  0  0999 V2000
   16.7220   62.4560  -10.8010 P   0  0  2  0  0  0  0  0  0  0  0  0
   15.7630   61.2740  -10.6450 O   0  0  0  0  0  1  0  0  0  0  0  0
   18.2210   61.8360  -11.2320 O   0  0  0  0  0  0  0  0  0  0  0  0
   19.2340   62.3850  -10.4890 C   0  0  2  0  0  3  0  0  0  0  0  0
   18.8310   63.8380  -10.2040 C   0  0  2  0  0  3  0  0  0  0  0  0
   19.9930   64.5350  -10.0600 O   0  0  0  0  0  0  0  0  0  0  0  0
   21.0030   63.9080  -10.7360 C   0  0  2  0  0  3  0  0  0  0  0  0
   20.5130   62.6000  -11.2540 C   0  0  2  0  0  3  0  0  0  0  0  0
   17.9550   63.7950   -8.9940 C   0  0  0  0  0  2  0  0  0  0  0  0
   16.7310   63.2860   -9.3530 O   0  0  0  0  0  0  0  0  0  0  0  0
   16.0880   63.4010  -12.0780 O   0  0  0  0  0  0  0  0  0  0  0  0
   22.1290   63.7670   -9.8220 N   0  0  0  0  0  0  0  0  0  0  0  0
   22.1030   64.0090   -8.4910 C   0  0  0  0  0  0  0  0  0  0  0  0
   21.1060   64.4190   -7.6880 N   0  0  0  0  0  0  0  0  0  0  0  0
   23.3600   63.7620   -7.9800 C   0  0  0  0  0  0  0  0  0  0  0  0
   21.3420   64.5880   -6.3770 C   0  0  0  0  0  3  0  0  0  0  0  0
   22.5690   64.3460   -5.8810 N   0  0  0  0  0  0  0  0  0  0  0  0
   23.6100   63.9350   -6.6210 C   0  0  0  0  0  0  0  0  0  0  0  0
   24.1410   63.3740   -8.9850 N   0  0  0  0  0  0  0  0  0  0  0  0
   23.3850   63.3810  -10.0970 C   0  0  0  0  0  0  0  0  0  0  0  0
   23.9520   62.9120  -11.8800 Br  0  0  0  0  0  0  0  0  0  0  0  0
   24.9100   63.6770   -6.1090 N   0  0  0  0  0  0  0  0  0  0  0  0
   25.6080   63.1940   -6.7490 H   0  0  0  0  0  0  0  0  0  0  0  0
   25.2230   63.9250   -5.1650 H   0  0  0  0  0  0  0  0  0  0  0  0
   20.2690   62.5930  -12.6130 O   0  0  0  0  0  0  0  0  0  0  0  0
   19.3960   62.9410  -12.8580 H   0  0  0  0  0  0  0  0  0  0  0  0
  1 11  2  6  0  0  0
  1  2  1  0  0  0  0
  1 10  1  0  0  0  0
  3  1  1  0  0  0  0
  4  3  1  6  0  0  0
  4  5  1  0  0  0  0
  5  6  1  0  0  0  0
  5  9  1  1  0  0  0
  7  6  1  0  0  0  0
  7 12  1  1  0  0  0
  8 25  1  6  0  0  0
  8  7  1  0  0  0  0
  8  4  1  0  0  0  0
 10  9  1  0  0  0  0
 12 13  1  0  0  0  0
 13 15  2  0  0  0  0
 13 14  1  0  0  0  0
 14 16  2  0  0  0  0
 15 18  1  0  0  0  0
 16 17  1  0  0  0  0
 18 22  1  0  0  0  0
 18 17  2  0  0  0  0
 19 15  1  0  0  0  0
 20 12  1  0  0  0  0
 20 19  2  0  0  0  0
 21 20  1  0  0  0  0
 22 24  1  0  0  0  0
 23 22  1  0  0  0  0
 26 25  1  0  0  0  0
M  END
>  <Pose>
1

>  <Score>
-5.778

$$$$
