MODEL 1
REMARK VINA RESULT:    -6.266      0.000      0.000
REMARK INTER + INTRA:          -7.722
REMARK INTER:                  -7.548
REMARK INTRA:                  -0.174
REMARK UNBOUND:                -0.174
REMARK  4 active torsions:
REMARK  status: ('A' for Active; 'I' for Inactive)
REMARK    1  A    between atoms: S_1  and  N_4 
REMARK    2  A    between atoms: S_1  and  C_5 
REMARK    3  A    between atoms: C_7  and  C_12 
REMARK       I    between atoms: C_12  and  N_14 
REMARK    4  A    between atoms: C_16  and  C_20 
ROOT
ATOM      1  C   UNK d   1      18.012  63.194  -9.623  0.00  0.00     0.255 C 
ATOM      2  O   UNK d   1      17.978  63.332  -8.375  0.00  0.00    -0.267 OA
ATOM      3  N   UNK d   1      19.138  63.665 -10.361  0.00  0.00    -0.347 N 
ATOM      4  C   UNK d   1      20.247  64.305  -9.686  0.00  0.00     0.138 C 
ATOM      5  C   UNK d   1      21.581  63.906 -10.235  0.00  0.00     0.075 C 
ATOM      6  C   UNK d   1      21.357  62.645 -11.073  0.00  0.00     0.015 C 
ATOM      7  C   UNK d   1      20.558  63.096 -12.277  0.00  0.00     0.021 C 
ATOM      8  C   UNK d   1      19.194  63.515 -11.792  0.00  0.00     0.126 C 
ENDROOT
BRANCH   1   9
ATOM      9  C   UNK d   1      16.900  62.552 -10.294  0.00  0.00     0.051 A 
ATOM     10  C   UNK d   1      15.935  63.296 -10.965  0.00  0.00     0.043 A 
ATOM     11  C   UNK d   1      14.874  62.700 -11.608  0.00  0.00     0.075 A 
ATOM     12  C   UNK d   1      14.744  61.323 -11.599  0.00  0.00     0.026 A 
ATOM     13  C   UNK d   1      15.690  60.570 -10.940  0.00  0.00     0.021 A 
ATOM     14  C   UNK d   1      16.763  61.182 -10.291  0.00  0.00     0.026 A 
ATOM     15 Br   UNK d   1      18.036  60.099  -9.398  0.00  0.00    -0.050 Br
BRANCH  11  16
ATOM     16  S   UNK d   1      13.701  63.688 -12.429  0.00  0.00     0.239 S 
ATOM     17  O   UNK d   1      12.760  64.282 -11.402  0.00  0.00    -0.206 OA
ATOM     18  O   UNK d   1      12.890  62.861 -13.396  0.00  0.00    -0.206 OA
BRANCH  16  19
ATOM     19  N   UNK d   1      14.474  64.997 -13.222  0.00  0.00    -0.225 NA
ATOM     20  H   UNK d   1      15.148  65.492 -12.589  0.00  0.00     0.136 HD
ATOM     21  H   UNK d   1      13.759  65.675 -13.586  0.00  0.00     0.136 HD
ENDBRANCH  16  19
ENDBRANCH  11  16
ENDBRANCH   1   9
BRANCH   5  22
ATOM     22  C   UNK d   1      22.607  63.662  -9.171  0.00  0.00     0.136 A 
ATOM     23  N   UNK d   1      22.599  64.167  -7.909  0.00  0.00    -0.320 N 
ATOM     24  C   UNK d   1      23.669  63.740  -7.233  0.00  0.00     0.130 A 
ATOM     25  C   UNK d   1      21.784  65.029  -7.073  0.00  0.00     0.132 C 
ATOM     26  N   UNK d   1      24.350  62.948  -8.115  0.00  0.00    -0.135 NA
ATOM     27  C   UNK d   1      23.706  64.269  -5.838  0.00  0.00     0.082 C 
ATOM     28  N   UNK d   1      23.712  62.906  -9.268  0.00  0.00    -0.134 NA
ATOM     29  C   UNK d   1      22.317  64.803  -5.674  0.00  0.00     0.028 C 
ENDBRANCH   5  22
TORSDOF 4
ENDMDL
