/Users/jonathanwahrer/Desktop/Msc/3_Semester/Drug_Design_Praktikum/waehrer_HTS_screening/HTS_experiment/out/docking_results/vina_output/3sx0/1008_docked.pdbqt
 OpenBabel03192222123D

 29 32  0  0  1  0  0  0  0  0999 V2000
   18.0120   63.1940   -9.6230 C   0  0  0  0  0  0  0  0  0  0  0  0
   17.9780   63.3320   -8.3750 O   0  0  0  0  0  0  0  0  0  0  0  0
   19.1380   63.6650  -10.3610 N   0  0  0  0  0  0  0  0  0  0  0  0
   20.2470   64.3050   -9.6860 C   0  0  0  0  0  2  0  0  0  0  0  0
   21.5810   63.9060  -10.2350 C   0  0  2  0  0  3  0  0  0  0  0  0
   21.3570   62.6450  -11.0730 C   0  0  0  0  0  2  0  0  0  0  0  0
   20.5580   63.0960  -12.2770 C   0  0  0  0  0  2  0  0  0  0  0  0
   19.1940   63.5150  -11.7920 C   0  0  0  0  0  2  0  0  0  0  0  0
   16.9000   62.5520  -10.2940 C   0  0  0  0  0  0  0  0  0  0  0  0
   15.9350   63.2960  -10.9650 C   0  0  0  0  0  3  0  0  0  0  0  0
   14.8740   62.7000  -11.6080 C   0  0  0  0  0  0  0  0  0  0  0  0
   14.7440   61.3230  -11.5990 C   0  0  0  0  0  3  0  0  0  0  0  0
   15.6900   60.5700  -10.9400 C   0  0  0  0  0  3  0  0  0  0  0  0
   16.7630   61.1820  -10.2910 C   0  0  0  0  0  0  0  0  0  0  0  0
   18.0360   60.0990   -9.3980 Br  0  0  0  0  0  0  0  0  0  0  0  0
   13.7010   63.6880  -12.4290 S   0  0  0  0  0  0  0  0  0  0  0  0
   12.7600   64.2820  -11.4020 O   0  0  0  0  0  0  0  0  0  0  0  0
   12.8900   62.8610  -13.3960 O   0  0  0  0  0  0  0  0  0  0  0  0
   14.4740   64.9970  -13.2220 N   0  0  0  0  0  0  0  0  0  0  0  0
   15.1480   65.4920  -12.5890 H   0  0  0  0  0  0  0  0  0  0  0  0
   13.7590   65.6750  -13.5860 H   0  0  0  0  0  0  0  0  0  0  0  0
   22.6070   63.6620   -9.1710 C   0  0  0  0  0  0  0  0  0  0  0  0
   22.5990   64.1670   -7.9090 N   0  0  0  0  0  0  0  0  0  0  0  0
   23.6690   63.7400   -7.2330 C   0  0  0  0  0  0  0  0  0  0  0  0
   21.7840   65.0290   -7.0730 C   0  0  0  0  0  2  0  0  0  0  0  0
   24.3500   62.9480   -8.1150 N   0  0  0  0  0  0  0  0  0  0  0  0
   23.7060   64.2690   -5.8380 C   0  0  0  0  0  2  0  0  0  0  0  0
   23.7120   62.9060   -9.2680 N   0  0  0  0  0  0  0  0  0  0  0  0
   22.3170   64.8030   -5.6740 C   0  0  0  0  0  2  0  0  0  0  0  0
  1  2  2  0  0  0  0
  3  4  1  0  0  0  0
  3  1  1  0  0  0  0
  5  4  1  0  0  0  0
  5 22  1  1  0  0  0
  6  5  1  0  0  0  0
  7  8  1  0  0  0  0
  7  6  1  0  0  0  0
  8  3  1  0  0  0  0
  9 14  1  0  0  0  0
  9  1  1  0  0  0  0
 10  9  2  0  0  0  0
 11 12  2  0  0  0  0
 11 10  1  0  0  0  0
 12 13  1  0  0  0  0
 13 14  2  0  0  0  0
 14 15  1  0  0  0  0
 16 11  1  0  0  0  0
 16 17  2  0  0  0  0
 18 16  2  0  0  0  0
 19 20  1  0  0  0  0
 19 16  1  0  0  0  0
 21 19  1  0  0  0  0
 22 23  1  0  0  0  0
 23 24  1  0  0  0  0
 23 25  1  0  0  0  0
 24 27  1  0  0  0  0
 25 29  1  0  0  0  0
 26 24  2  0  0  0  0
 27 29  1  0  0  0  0
 28 22  2  0  0  0  0
 28 26  1  0  0  0  0
M  END
>  <Pose>
1

>  <Score>
-6.266

$$$$
