/Users/jonathanwahrer/Desktop/Msc/3_Semester/Drug_Design_Praktikum/waehrer_HTS_screening/HTS_experiment/out/docking_results/vina_output/3sx0/1011_docked.pdbqt
 OpenBabel03192222133D

 29 32  0  0  0  0  0  0  0  0999 V2000
   14.5080   63.9730  -12.0190 C   0  0  0  0  0  0  0  0  0  0  0  0
   13.9430   64.8830  -12.9170 C   0  0  0  0  0  3  0  0  0  0  0  0
   12.9730   64.4780  -13.8070 C   0  0  0  0  0  0  0  0  0  0  0  0
   12.5150   63.1740  -13.8610 C   0  0  0  0  0  0  0  0  0  0  0  0
   13.0600   62.2760  -12.9860 C   0  0  0  0  0  3  0  0  0  0  0  0
   14.0450   62.6810  -12.0790 C   0  0  0  0  0  0  0  0  0  0  0  0
   14.8130   61.4120  -10.8630 Br  0  0  0  0  0  0  0  0  0  0  0  0
   11.4840   63.0590  -14.9300 C   0  0  0  0  0  2  0  0  0  0  0  0
   11.7890   64.3030  -15.7920 C   0  0  0  0  0  2  0  0  0  0  0  0
   12.2680   65.2490  -14.7970 N   0  0  0  0  0  0  0  0  0  0  0  0
   12.1090   66.6530  -14.7340 C   0  0  0  0  0  0  0  0  0  0  0  0
   12.5630   67.3470  -13.7960 O   0  0  0  0  0  0  0  0  0  0  0  0
   15.7300   64.5140  -10.8990 S   0  0  0  0  0  0  0  0  0  0  0  0
   15.5140   65.9870  -10.5700 O   0  0  0  0  0  0  0  0  0  0  0  0
   15.6590   63.7880   -9.5990 O   0  0  0  0  0  0  0  0  0  0  0  0
   17.2940   64.4210  -11.6150 N   0  0  0  0  0  0  0  0  0  0  0  0
   17.1740   64.4010  -12.6460 H   0  0  0  0  0  0  0  0  0  0  0  0
   18.0510   63.2740  -11.1570 C   0  0  0  0  0  2  0  0  0  0  0  0
   19.0290   63.7970  -10.1150 C   0  0  0  0  0  2  0  0  0  0  0  0
   20.4430   63.7430  -10.6280 C   0  0  0  0  0  2  0  0  0  0  0  0
   21.3300   64.0100   -9.5590 N   0  0  0  0  0  0  0  0  0  0  0  0
   20.8550   63.7210   -8.2530 C   0  0  0  0  0  2  0  0  0  0  0  0
   21.6810   64.5160   -7.2550 C   0  0  0  0  0  2  0  0  0  0  0  0
   23.0230   64.4950   -7.5780 O   0  0  0  0  0  0  0  0  0  0  0  0
   23.3700   63.4680   -8.4470 C   0  0  0  0  0  2  0  0  0  0  0  0
   22.7080   63.7830   -9.7920 C   0  0  0  0  0  2  0  0  0  0  0  0
   11.3730   67.3340  -15.8250 C   0  0  0  0  0  3  0  0  0  0  0  0
   10.9050   68.6950  -15.5040 C   0  0  0  0  0  2  0  0  0  0  0  0
    9.9130   67.5760  -15.7060 C   0  0  0  0  0  2  0  0  0  0  0  0
  1 13  1  0  0  0  0
  2  1  2  0  0  0  0
  3  2  1  0  0  0  0
  4  3  2  0  0  0  0
  4  5  1  0  0  0  0
  5  6  2  0  0  0  0
  6  1  1  0  0  0  0
  6  7  1  0  0  0  0
  8  4  1  0  0  0  0
  9  8  1  0  0  0  0
  9 10  1  0  0  0  0
 10 11  1  0  0  0  0
 10  3  1  0  0  0  0
 11 12  2  0  0  0  0
 13 14  2  0  0  0  0
 13 15  2  0  0  0  0
 16 18  1  0  0  0  0
 16 13  1  0  0  0  0
 17 16  1  0  0  0  0
 18 19  1  0  0  0  0
 20 19  1  0  0  0  0
 20 21  1  0  0  0  0
 21 22  1  0  0  0  0
 22 23  1  0  0  0  0
 24 23  1  0  0  0  0
 25 24  1  0  0  0  0
 26 21  1  0  0  0  0
 26 25  1  0  0  0  0
 27 29  1  0  0  0  0
 27 28  1  0  0  0  0
 27 11  1  0  0  0  0
 29 28  1  0  0  0  0
M  END
>  <Pose>
1

>  <Score>
-6.620

$$$$
