MODEL 1
REMARK VINA RESULT:    -7.202      0.000      0.000
REMARK INTER + INTRA:          -9.765
REMARK INTER:                  -9.307
REMARK INTRA:                  -0.458
REMARK UNBOUND:                -0.458
REMARK  5 active torsions:
REMARK  status: ('A' for Active; 'I' for Inactive)
REMARK    1  A    between atoms: S_1  and  N_4 
REMARK    2  A    between atoms: S_1  and  C_20 
REMARK    3  A    between atoms: N_8  and  C_12 
REMARK    4  A    between atoms: C_12  and  C_13 
REMARK    5  A    between atoms: C_13  and  C_14 
REMARK       I    between atoms: N_29  and  C_30 
ROOT
ATOM      1  N   UNK d   1      13.290  63.513 -11.819  0.00  0.00    -0.289 N 
ATOM      2  C   UNK d   1      13.733  64.403 -10.844  0.00  0.00     0.239 C 
ATOM      3  C   UNK d   1      15.194  64.414 -10.607  0.00  0.00     0.245 C 
ATOM      4  O   UNK d   1      15.770  65.440 -10.171  0.00  0.00    -0.271 OA
ATOM      5  N   UNK d   1      15.890  63.207 -10.898  0.00  0.00    -0.285 N 
ATOM      6  C   UNK d   1      15.096  62.052 -11.108  0.00  0.00     0.245 C 
ATOM      7  O   UNK d   1      15.611  60.924 -10.866  0.00  0.00    -0.271 OA
ATOM      8  C   UNK d   1      13.704  62.135 -11.596  0.00  0.00     0.239 C 
ENDROOT
BRANCH   1   9
ATOM      9  S   UNK d   1      13.250  63.937 -13.440  0.00  0.00     0.263 S 
ATOM     10  O   UNK d   1      13.568  62.681 -14.253  0.00  0.00    -0.200 OA
ATOM     11  O   UNK d   1      14.380  64.885 -13.769  0.00  0.00    -0.200 OA
BRANCH   9  12
ATOM     12  C   UNK d   1      11.742  64.549 -14.061  0.00  0.00     0.099 A 
ATOM     13  C   UNK d   1      11.648  65.918 -14.345  0.00  0.00     0.057 A 
ATOM     14  C   UNK d   1      10.495  66.534 -14.776  0.00  0.00     0.045 A 
ATOM     15  C   UNK d   1       9.345  65.795 -14.950  0.00  0.00    -0.028 A 
ATOM     16  N   UNK d   1      10.202  67.893 -15.110  0.00  0.00    -0.318 N 
ATOM     17  C   UNK d   1       9.419  64.452 -14.678  0.00  0.00     0.030 A 
ATOM     18  C   UNK d   1       8.236  66.660 -15.422  0.00  0.00     0.061 C 
ATOM     19  C   UNK d   1      10.598  63.828 -14.240  0.00  0.00     0.035 A 
ATOM     20 Br   UNK d   1      10.603  61.926 -13.991  0.00  0.00    -0.049 Br
ATOM     21  C   UNK d   1       8.996  67.885 -15.932  0.00  0.00     0.137 C 
ATOM     22  C   UNK d   1      10.906  69.049 -14.732  0.00  0.00     0.220 C 
ATOM     23  O   UNK d   1      10.493  70.183 -15.160  0.00  0.00    -0.273 OA
ATOM     24  C   UNK d   1      12.106  69.089 -13.863  0.00  0.00     0.117 C 
ENDBRANCH   9  12
ENDBRANCH   1   9
BRANCH   5  25
ATOM     25  C   UNK d   1      17.336  63.192 -10.963  0.00  0.00     0.139 C 
BRANCH  25  26
ATOM     26  C   UNK d   1      18.017  63.022  -9.649  0.00  0.00     0.059 C 
BRANCH  26  27
ATOM     27  C   UNK d   1      19.458  63.265  -9.639  0.00  0.00    -0.057 A 
ATOM     28  C   UNK d   1      20.168  63.395  -8.477  0.00  0.00     0.007 A 
ATOM     29  C   UNK d   1      21.513  63.627  -8.538  0.00  0.00     0.001 A 
ATOM     30  C   UNK d   1      22.188  63.735  -9.749  0.00  0.00     0.000 A 
ATOM     31  C   UNK d   1      21.456  63.601 -10.897  0.00  0.00     0.001 A 
ATOM     32  C   UNK d   1      20.102  63.368 -10.872  0.00  0.00     0.007 A 
ENDBRANCH  26  27
ENDBRANCH  25  26
ENDBRANCH   5  25
TORSDOF 5
ENDMDL
