/Users/jonathanwahrer/Desktop/Msc/3_Semester/Drug_Design_Praktikum/waehrer_HTS_screening/HTS_experiment/out/docking_results/vina_output/3sx0/1037_docked.pdbqt
 OpenBabel03192222133D

 31 34  0  0  0  0  0  0  0  0999 V2000
   11.0600   64.5250  -15.8110 N   0  0  0  0  0  0  0  0  0  0  0  0
   12.3430   65.1080  -16.0050 C   0  0  0  0  0  3  0  0  0  0  0  0
   13.2370   65.2320  -14.8610 C   0  0  0  0  0  3  0  0  0  0  0  0
   12.9260   64.4820  -13.6590 N   0  0  0  0  0  0  0  0  0  0  0  0
   11.6470   63.8630  -13.4950 C   0  0  0  0  0  2  0  0  0  0  0  0
   11.0120   63.5000  -14.8320 C   0  0  0  0  0  2  0  0  0  0  0  0
   13.9200   64.3660  -12.6860 C   0  0  0  0  0  0  0  0  0  0  0  0
   15.0770   64.9080  -13.1230 O   0  0  0  0  0  0  0  0  0  0  0  0
    9.7430   65.5920  -15.8140 S   0  0  0  0  0  0  0  0  0  0  0  0
    8.8360   65.2620  -14.6600 O   0  0  0  0  0  0  0  0  0  0  0  0
    8.9120   65.4050  -17.0710 O   0  0  0  0  0  0  0  0  0  0  0  0
   10.1800   67.2770  -15.6240 C   0  0  0  0  0  0  0  0  0  0  0  0
   10.7690   67.7150  -14.4390 C   0  0  0  0  0  3  0  0  0  0  0  0
   11.1230   69.0300  -14.2240 C   0  0  0  0  0  0  0  0  0  0  0  0
   10.9040   69.9850  -15.1910 C   0  0  0  0  0  0  0  0  0  0  0  0
   11.7190   69.4620  -12.9890 N   0  0  0  0  0  0  0  0  0  0  0  0
   10.3210   69.5600  -16.3640 C   0  0  0  0  0  3  0  0  0  0  0  0
   11.2590   71.3320  -14.9790 O   0  0  0  0  0  0  0  0  0  0  0  0
    9.9620   68.2350  -16.5880 C   0  0  0  0  0  3  0  0  0  0  0  0
   12.3100   71.6490  -14.0490 C   0  0  0  0  0  2  0  0  0  0  0  0
   12.0380   70.8330  -12.8380 C   0  0  0  0  0  0  0  0  0  0  0  0
   12.0800   71.3130  -11.6820 O   0  0  0  0  0  0  0  0  0  0  0  0
   11.8800   68.7400  -12.2720 H   0  0  0  0  0  0  0  0  0  0  0  0
   13.9670   63.8100  -11.3650 C   0  0  0  0  0  2  0  0  0  0  0  0
   14.9300   62.7720  -11.0060 C   0  0  0  0  0  0  0  0  0  0  0  0
   16.1640   63.0860  -10.4920 C   0  0  0  0  0  0  0  0  0  0  0  0
   17.0720   62.0860  -10.1480 C   0  0  0  0  0  3  0  0  0  0  0  0
   16.6720   64.9180  -10.2430 Br  0  0  0  0  0  0  0  0  0  0  0  0
   16.7280   60.7780  -10.3230 C   0  0  0  0  0  3  0  0  0  0  0  0
   15.4740   60.4510  -10.8430 C   0  0  0  0  0  3  0  0  0  0  0  0
   14.5920   61.4290  -11.1780 C   0  0  0  0  0  3  0  0  0  0  0  0
  1  6  1  0  0  0  0
  2  1  1  0  0  0  0
  2  3  2  0  0  0  0
  3  4  1  0  0  0  0
  4  5  1  0  0  0  0
  4  7  1  0  0  0  0
  6  5  1  0  0  0  0
  7 24  1  0  0  0  0
  8  7  2  0  0  0  0
  9  1  1  0  0  0  0
  9 12  1  0  0  0  0
  9 10  2  0  0  0  0
 11  9  2  0  0  0  0
 12 13  1  0  0  0  0
 13 14  2  0  0  0  0
 14 16  1  0  0  0  0
 15 18  1  0  0  0  0
 15 14  1  0  0  0  0
 16 21  1  0  0  0  0
 16 23  1  0  0  0  0
 17 15  2  0  0  0  0
 18 20  1  0  0  0  0
 19 17  1  0  0  0  0
 19 12  2  0  0  0  0
 20 21  1  0  0  0  0
 21 22  2  0  0  0  0
 24 25  1  0  0  0  0
 25 26  1  0  0  0  0
 26 28  1  0  0  0  0
 26 27  2  0  0  0  0
 29 27  1  0  0  0  0
 30 29  2  0  0  0  0
 31 25  2  0  0  0  0
 31 30  1  0  0  0  0
M  END
>  <Pose>
1

>  <Score>
-7.213

$$$$
