MODEL 1
REMARK VINA RESULT:    -7.213      0.000      0.000
REMARK INTER + INTRA:          -9.476
REMARK INTER:                  -8.899
REMARK INTRA:                  -0.576
REMARK UNBOUND:                -0.576
REMARK  4 active torsions:
REMARK  status: ('A' for Active; 'I' for Inactive)
REMARK    1  A    between atoms: S_1  and  N_4 
REMARK    2  A    between atoms: S_1  and  C_20 
REMARK       I    between atoms: N_7  and  C_10 
REMARK    3  A    between atoms: C_10  and  C_12 
REMARK    4  A    between atoms: C_12  and  C_13 
ROOT
ATOM      1  N   UNK d   1      11.060  64.525 -15.811  0.00  0.00    -0.304 N 
ATOM      2  C   UNK d   1      12.343  65.108 -16.005  0.00  0.00     0.155 C 
ATOM      3  C   UNK d   1      13.237  65.232 -14.861  0.00  0.00     0.145 C 
ATOM      4  N   UNK d   1      12.926  64.482 -13.659  0.00  0.00    -0.360 N 
ATOM      5  C   UNK d   1      11.647  63.863 -13.495  0.00  0.00     0.145 C 
ATOM      6  C   UNK d   1      11.012  63.500 -14.832  0.00  0.00     0.155 C 
ATOM      7  C   UNK d   1      13.920  64.366 -12.686  0.00  0.00     0.158 C 
ATOM      8  O   UNK d   1      15.077  64.908 -13.123  0.00  0.00    -0.177 OA
ENDROOT
BRANCH   1   9
ATOM      9  S   UNK d   1       9.743  65.592 -15.814  0.00  0.00     0.261 S 
ATOM     10  O   UNK d   1       8.836  65.262 -14.660  0.00  0.00    -0.200 OA
ATOM     11  O   UNK d   1       8.912  65.405 -17.071  0.00  0.00    -0.200 OA
BRANCH   9  12
ATOM     12  C   UNK d   1      10.180  67.277 -15.624  0.00  0.00     0.082 A 
ATOM     13  C   UNK d   1      10.769  67.715 -14.439  0.00  0.00     0.057 A 
ATOM     14  C   UNK d   1      11.123  69.030 -14.224  0.00  0.00     0.070 A 
ATOM     15  C   UNK d   1      10.904  69.985 -15.191  0.00  0.00     0.096 A 
ATOM     16  N   UNK d   1      11.719  69.462 -12.989  0.00  0.00    -0.323 N 
ATOM     17  C   UNK d   1      10.321  69.560 -16.364  0.00  0.00     0.040 A 
ATOM     18  O   UNK d   1      11.259  71.332 -14.979  0.00  0.00    -0.340 OA
ATOM     19  C   UNK d   1       9.962  68.235 -16.588  0.00  0.00     0.028 A 
ATOM     20  C   UNK d   1      12.310  71.649 -14.049  0.00  0.00     0.278 C 
ATOM     21  C   UNK d   1      12.038  70.833 -12.838  0.00  0.00     0.246 C 
ATOM     22  O   UNK d   1      12.080  71.313 -11.682  0.00  0.00    -0.271 OA
ATOM     23  H   UNK d   1      11.880  68.740 -12.272  0.00  0.00     0.169 HD
ENDBRANCH   9  12
ENDBRANCH   1   9
BRANCH   7  24
ATOM     24  C   UNK d   1      13.967  63.810 -11.365  0.00  0.00     0.127 C 
BRANCH  24  25
ATOM     25  C   UNK d   1      14.930  62.772 -11.006  0.00  0.00    -0.033 A 
ATOM     26  C   UNK d   1      16.164  63.086 -10.492  0.00  0.00     0.017 A 
ATOM     27  C   UNK d   1      17.072  62.086 -10.148  0.00  0.00     0.019 A 
ATOM     28 Br   UNK d   1      16.672  64.918 -10.243  0.00  0.00    -0.051 Br
ATOM     29  C   UNK d   1      16.728  60.778 -10.323  0.00  0.00     0.001 A 
ATOM     30  C   UNK d   1      15.474  60.451 -10.843  0.00  0.00     0.001 A 
ATOM     31  C   UNK d   1      14.592  61.429 -11.178  0.00  0.00     0.009 A 
ENDBRANCH  24  25
ENDBRANCH   7  24
TORSDOF 4
ENDMDL
