MODEL 1
REMARK VINA RESULT:    -6.725      0.000      0.000
REMARK INTER + INTRA:          -8.635
REMARK INTER:                  -8.297
REMARK INTRA:                  -0.337
REMARK UNBOUND:                -0.337
REMARK  4 active torsions:
REMARK  status: ('A' for Active; 'I' for Inactive)
REMARK    1  A    between atoms: S_1  and  N_4 
REMARK    2  A    between atoms: S_1  and  C_24 
REMARK       I    between atoms: N_7  and  C_10 
REMARK    3  A    between atoms: C_10  and  C_12 
REMARK    4  A    between atoms: C_12  and  N_13 
ROOT
ATOM      1  N   UNK d   1      13.485  63.081 -12.658  0.00  0.00    -0.304 N 
ATOM      2  C   UNK d   1      13.951  61.828 -12.295  0.00  0.00     0.155 C 
ATOM      3  C   UNK d   1      14.591  61.941 -10.885  0.00  0.00     0.146 C 
ATOM      4  N   UNK d   1      15.547  63.013 -10.874  0.00  0.00    -0.348 N 
ATOM      5  C   UNK d   1      15.053  64.329 -11.208  0.00  0.00     0.146 C 
ATOM      6  C   UNK d   1      13.637  64.153 -11.712  0.00  0.00     0.155 C 
ATOM      7  C   UNK d   1      16.909  62.843 -10.559  0.00  0.00     0.238 C 
ATOM      8  O   UNK d   1      17.330  61.701 -10.270  0.00  0.00    -0.272 OA
ENDROOT
BRANCH   7   9
ATOM      9  C   UNK d   1      17.833  63.978 -10.565  0.00  0.00     0.239 C 
BRANCH   9  10
ATOM     10  N   UNK d   1      19.215  63.516 -10.474  0.00  0.00    -0.259 N 
ATOM     11  C   UNK d   1      20.087  63.068 -11.491  0.00  0.00     0.326 C 
ATOM     12  O   UNK d   1      19.790  62.991 -12.728  0.00  0.00    -0.247 OA
ATOM     13  N   UNK d   1      21.324  62.730 -10.875  0.00  0.00    -0.324 N 
ATOM     14  C   UNK d   1      21.363  63.409  -9.607  0.00  0.00     0.116 C 
ATOM     15  H   UNK d   1      22.024  62.095 -11.334  0.00  0.00     0.165 HD
ATOM     16  C   UNK d   1      21.988  64.765  -9.666  0.00  0.00     0.041 C 
ATOM     17  C   UNK d   1      22.196  62.668  -8.587  0.00  0.00     0.041 C 
ATOM     18  C   UNK d   1      19.931  63.448  -9.223  0.00  0.00     0.256 C 
ATOM     19  C   UNK d   1      22.249  65.050  -8.182  0.00  0.00     0.003 C 
ATOM     20  C   UNK d   1      22.649  63.713  -7.622  0.00  0.00     0.003 C 
ATOM     21  O   UNK d   1      19.460  63.428  -8.064  0.00  0.00    -0.270 OA
ENDBRANCH   9  10
ENDBRANCH   7   9
BRANCH   1  22
ATOM     22  S   UNK d   1      12.482  63.360 -13.947  0.00  0.00     0.262 S 
ATOM     23  O   UNK d   1      13.260  63.053 -15.234  0.00  0.00    -0.200 OA
ATOM     24  O   UNK d   1      11.324  62.359 -14.001  0.00  0.00    -0.200 OA
BRANCH  22  25
ATOM     25  C   UNK d   1      11.849  64.962 -14.164  0.00  0.00     0.097 A 
ATOM     26  C   UNK d   1      12.550  66.065 -14.572  0.00  0.00     0.034 A 
ATOM     27  C   UNK d   1      11.954  67.327 -14.667  0.00  0.00     0.020 A 
ATOM     28 Br   UNK d   1      14.365  65.868 -15.091  0.00  0.00    -0.049 Br
ATOM     29  C   UNK d   1      10.645  67.524 -14.358  0.00  0.00     0.001 A 
ATOM     30  C   UNK d   1       9.915  66.441 -13.949  0.00  0.00     0.002 A 
ATOM     31  C   UNK d   1      10.497  65.199 -13.854  0.00  0.00     0.027 A 
ENDBRANCH  22  25
ENDBRANCH   1  22
TORSDOF 4
ENDMDL
