MODEL 1
REMARK VINA RESULT:    -7.340      0.000      0.000
REMARK INTER + INTRA:          -9.160
REMARK INTER:                  -8.627
REMARK INTRA:                  -0.533
REMARK UNBOUND:                -0.533
REMARK  3 active torsions:
REMARK  status: ('A' for Active; 'I' for Inactive)
REMARK    1  A    between atoms: S_1  and  N_4 
REMARK    2  A    between atoms: S_1  and  C_24 
REMARK       I    between atoms: N_7  and  C_10 
REMARK    3  A    between atoms: C_12  and  N_13 
ROOT
ATOM      1  N   UNK d   1      22.005  64.715  -8.062  0.00  0.00    -0.203 NA
ATOM      2  C   UNK d   1      22.893  64.686  -9.204  0.00  0.00     0.127 C 
ATOM      3  C   UNK d   1      22.784  63.378  -9.948  0.00  0.00     0.140 C 
ATOM      4  N   UNK d   1      21.348  63.162 -10.224  0.00  0.00    -0.359 N 
ATOM      5  C   UNK d   1      20.496  63.171  -9.076  0.00  0.00     0.140 C 
ATOM      6  C   UNK d   1      21.390  63.452  -7.846  0.00  0.00     0.127 C 
ATOM      7  C   UNK d   1      20.895  62.970 -11.537  0.00  0.00     0.172 C 
ATOM      8  O   UNK d   1      21.841  63.011 -12.454  0.00  0.00    -0.175 OA
ATOM      9  C   UNK d   1      19.588  62.735 -12.097  0.00  0.00     0.224 C 
ENDROOT
BRANCH   9  10
ATOM     10  N   UNK d   1      18.441  62.651 -11.249  0.00  0.00    -0.260 N 
ATOM     11  C   UNK d   1      18.078  61.564 -10.360  0.00  0.00     0.326 C 
ATOM     12  O   UNK d   1      18.788  60.529 -10.223  0.00  0.00    -0.247 OA
ATOM     13  N   UNK d   1      16.851  61.906  -9.736  0.00  0.00    -0.324 N 
ATOM     14  C   UNK d   1      16.249  62.931 -10.518  0.00  0.00     0.116 C 
ATOM     15  H   UNK d   1      16.515  61.436  -8.850  0.00  0.00     0.165 HD
ATOM     16  C   UNK d   1      15.267  62.408 -11.540  0.00  0.00     0.041 C 
ATOM     17  C   UNK d   1      15.371  63.859  -9.696  0.00  0.00     0.041 C 
ATOM     18  C   UNK d   1      17.387  63.626 -11.117  0.00  0.00     0.256 C 
ATOM     19  C   UNK d   1      14.566  63.685 -11.965  0.00  0.00     0.003 C 
ATOM     20  C   UNK d   1      14.630  64.612 -10.775  0.00  0.00     0.003 C 
ATOM     21  O   UNK d   1      17.471  64.832 -11.464  0.00  0.00    -0.270 OA
ENDBRANCH   9  10
BRANCH   1  22
ATOM     22  S   UNK d   1      22.718  65.405  -6.673  0.00  0.00     0.243 S 
ATOM     23  O   UNK d   1      21.610  66.103  -5.905  0.00  0.00    -0.206 OA
ATOM     24  O   UNK d   1      23.672  66.495  -7.094  0.00  0.00    -0.206 OA
BRANCH  22  25
ATOM     25  C   UNK d   1      23.538  64.236  -5.667  0.00  0.00     0.074 A 
ATOM     26  C   UNK d   1      24.576  63.458  -6.140  0.00  0.00     0.026 A 
ATOM     27  C   UNK d   1      25.223  62.530  -5.332  0.00  0.00     0.020 A 
ATOM     28  C   UNK d   1      24.846  62.357  -4.025  0.00  0.00     0.011 A 
ATOM     29  C   UNK d   1      23.810  63.127  -3.540  0.00  0.00     0.020 A 
ATOM     30 Br   UNK d   1      25.736  61.074  -2.898  0.00  0.00    -0.051 Br
ATOM     31  C   UNK d   1      23.170  64.052  -4.352  0.00  0.00     0.026 A 
ENDBRANCH  22  25
ENDBRANCH   1  22
TORSDOF 3
ENDMDL
