MODEL 1
REMARK VINA RESULT:    -6.871      0.000      0.000
REMARK INTER + INTRA:          -8.680
REMARK INTER:                  -8.076
REMARK INTRA:                  -0.604
REMARK UNBOUND:                -0.604
REMARK  3 active torsions:
REMARK  status: ('A' for Active; 'I' for Inactive)
REMARK    1  A    between atoms: S_1  and  N_4 
REMARK    2  A    between atoms: S_1  and  C_19 
REMARK       I    between atoms: N_7  and  C_10 
REMARK    3  A    between atoms: C_10  and  C_12 
ROOT
ATOM      1  N   UNK d   1      15.509  63.086 -11.484  0.00  0.00    -0.304 N 
ATOM      2  C   UNK d   1      15.453  61.826 -10.886  0.00  0.00     0.155 C 
ATOM      3  C   UNK d   1      16.745  61.225 -10.457  0.00  0.00     0.146 C 
ATOM      4  N   UNK d   1      17.774  62.170 -10.157  0.00  0.00    -0.345 N 
ATOM      5  C   UNK d   1      17.487  63.583 -10.280  0.00  0.00     0.146 C 
ATOM      6  C   UNK d   1      16.748  63.739 -11.608  0.00  0.00     0.155 C 
ATOM      7  C   UNK d   1      19.069  61.776  -9.744  0.00  0.00     0.255 C 
ATOM      8  O   UNK d   1      19.367  60.545  -9.621  0.00  0.00    -0.267 OA
ENDROOT
BRANCH   1   9
ATOM      9  S   UNK d   1      14.129  64.060 -11.396  0.00  0.00     0.261 S 
ATOM     10  O   UNK d   1      13.253  63.779 -10.239  0.00  0.00    -0.200 OA
ATOM     11  O   UNK d   1      14.593  65.505 -11.261  0.00  0.00    -0.200 OA
BRANCH   9  12
ATOM     12  C   UNK d   1      13.239  63.992 -12.912  0.00  0.00     0.082 A 
ATOM     13  C   UNK d   1      12.807  62.793 -13.441  0.00  0.00     0.057 A 
ATOM     14  C   UNK d   1      12.107  62.706 -14.627  0.00  0.00     0.070 A 
ATOM     15  C   UNK d   1      11.807  63.847 -15.343  0.00  0.00     0.096 A 
ATOM     16  N   UNK d   1      11.662  61.473 -15.176  0.00  0.00    -0.323 N 
ATOM     17  C   UNK d   1      12.238  65.054 -14.815  0.00  0.00     0.040 A 
ATOM     18  O   UNK d   1      11.101  63.792 -16.544  0.00  0.00    -0.340 OA
ATOM     19  C   UNK d   1      12.938  65.133 -13.629  0.00  0.00     0.028 A 
ATOM     20  C   UNK d   1      10.851  62.600 -17.264  0.00  0.00     0.278 C 
ATOM     21  C   UNK d   1      10.940  61.396 -16.400  0.00  0.00     0.246 C 
ATOM     22  O   UNK d   1      10.364  60.354 -16.804  0.00  0.00    -0.271 OA
ATOM     23  H   UNK d   1      11.880  60.602 -14.647  0.00  0.00     0.169 HD
ENDBRANCH   9  12
ENDBRANCH   1   9
BRANCH   7  24
ATOM     24  C   UNK d   1      20.130  62.726  -9.435  0.00  0.00     0.049 A 
ATOM     25  C   UNK d   1      20.951  63.261 -10.410  0.00  0.00     0.026 A 
ATOM     26  C   UNK d   1      21.956  64.158 -10.130  0.00  0.00     0.020 A 
ATOM     27 Br   UNK d   1      20.636  62.697 -12.208  0.00  0.00    -0.050 Br
ATOM     28  C   UNK d   1      22.142  64.534  -8.809  0.00  0.00     0.001 A 
ATOM     29  C   UNK d   1      21.356  64.035  -7.798  0.00  0.00     0.001 A 
ATOM     30  C   UNK d   1      20.364  63.139  -8.130  0.00  0.00     0.018 A 
ENDBRANCH   7  24
TORSDOF 3
ENDMDL
