/Users/jonathanwahrer/Desktop/Msc/3_Semester/Drug_Design_Praktikum/waehrer_HTS_screening/HTS_experiment/out/docking_results/vina_output/3sx0/1044_docked.pdbqt
 OpenBabel03192222153D

 30 33  0  0  0  0  0  0  0  0999 V2000
   15.5090   63.0860  -11.4840 N   0  0  0  0  0  0  0  0  0  0  0  0
   15.4530   61.8260  -10.8860 C   0  0  0  0  0  2  0  0  0  0  0  0
   16.7450   61.2250  -10.4570 C   0  0  0  0  0  2  0  0  0  0  0  0
   17.7740   62.1700  -10.1570 N   0  0  0  0  0  0  0  0  0  0  0  0
   17.4870   63.5830  -10.2800 C   0  0  0  0  0  2  0  0  0  0  0  0
   16.7480   63.7390  -11.6080 C   0  0  0  0  0  2  0  0  0  0  0  0
   19.0690   61.7760   -9.7440 C   0  0  0  0  0  0  0  0  0  0  0  0
   19.3670   60.5450   -9.6210 O   0  0  0  0  0  0  0  0  0  0  0  0
   14.1290   64.0600  -11.3960 S   0  0  0  0  0  0  0  0  0  0  0  0
   13.2530   63.7790  -10.2390 O   0  0  0  0  0  0  0  0  0  0  0  0
   14.5930   65.5050  -11.2610 O   0  0  0  0  0  0  0  0  0  0  0  0
   13.2390   63.9920  -12.9120 C   0  0  0  0  0  0  0  0  0  0  0  0
   12.8070   62.7930  -13.4410 C   0  0  0  0  0  3  0  0  0  0  0  0
   12.1070   62.7060  -14.6270 C   0  0  0  0  0  0  0  0  0  0  0  0
   11.8070   63.8470  -15.3430 C   0  0  0  0  0  0  0  0  0  0  0  0
   11.6620   61.4730  -15.1760 N   0  0  0  0  0  0  0  0  0  0  0  0
   12.2380   65.0540  -14.8150 C   0  0  0  0  0  3  0  0  0  0  0  0
   11.1010   63.7920  -16.5440 O   0  0  0  0  0  0  0  0  0  0  0  0
   12.9380   65.1330  -13.6290 C   0  0  0  0  0  3  0  0  0  0  0  0
   10.8510   62.6000  -17.2640 C   0  0  0  0  0  2  0  0  0  0  0  0
   10.9400   61.3960  -16.4000 C   0  0  0  0  0  0  0  0  0  0  0  0
   10.3640   60.3540  -16.8040 O   0  0  0  0  0  0  0  0  0  0  0  0
   11.8800   60.6020  -14.6470 H   0  0  0  0  0  0  0  0  0  0  0  0
   20.1300   62.7260   -9.4350 C   0  0  0  0  0  0  0  0  0  0  0  0
   20.9510   63.2610  -10.4100 C   0  0  0  0  0  0  0  0  0  0  0  0
   21.9560   64.1580  -10.1300 C   0  0  0  0  0  3  0  0  0  0  0  0
   20.6360   62.6970  -12.2080 Br  0  0  0  0  0  0  0  0  0  0  0  0
   22.1420   64.5340   -8.8090 C   0  0  0  0  0  3  0  0  0  0  0  0
   21.3560   64.0350   -7.7980 C   0  0  0  0  0  3  0  0  0  0  0  0
   20.3640   63.1390   -8.1300 C   0  0  0  0  0  3  0  0  0  0  0  0
  1  9  1  0  0  0  0
  1  2  1  0  0  0  0
  2  3  1  0  0  0  0
  3  4  1  0  0  0  0
  4  7  1  0  0  0  0
  5  4  1  0  0  0  0
  6  1  1  0  0  0  0
  6  5  1  0  0  0  0
  7  8  2  0  0  0  0
  7 24  1  0  0  0  0
  9 11  2  0  0  0  0
  9 10  2  0  0  0  0
 12  9  1  0  0  0  0
 13 12  1  0  0  0  0
 14 13  2  0  0  0  0
 15 17  2  0  0  0  0
 15 14  1  0  0  0  0
 16 23  1  0  0  0  0
 16 14  1  0  0  0  0
 17 19  1  0  0  0  0
 18 15  1  0  0  0  0
 19 12  2  0  0  0  0
 20 18  1  0  0  0  0
 20 21  1  0  0  0  0
 21 16  1  0  0  0  0
 22 21  2  0  0  0  0
 24 30  1  0  0  0  0
 25 26  1  0  0  0  0
 25 24  2  0  0  0  0
 26 28  2  0  0  0  0
 27 25  1  0  0  0  0
 28 29  1  0  0  0  0
 30 29  2  0  0  0  0
M  END
>  <Pose>
1

>  <Score>
-6.871

$$$$
