/Users/jonathanwahrer/Desktop/Msc/3_Semester/Drug_Design_Praktikum/waehrer_HTS_screening/HTS_experiment/out/docking_results/vina_output/3sx0/1056_docked.pdbqt
 OpenBabel03192222153D

 30 33  0  0  1  0  0  0  0  0999 V2000
   19.1890   63.3480   -9.9710 N   0  0  0  0  0  0  0  0  0  0  0  0
   19.9880   64.1900  -10.7770 C   0  0  0  0  0  2  0  0  0  0  0  0
   21.4320   64.2280  -10.4910 C   0  0  0  0  0  2  0  0  0  0  0  0
   21.7060   64.1910   -9.0850 N   0  0  0  0  0  0  0  0  0  0  0  0
   20.6120   64.1930   -8.1560 C   0  0  0  0  0  2  0  0  0  0  0  0
   19.4640   63.3320   -8.5800 C   0  0  0  0  0  2  0  0  0  0  0  0
   23.0310   64.1540   -8.6090 C   0  0  0  0  0  0  0  0  0  0  0  0
   23.9720   64.1530   -9.4350 O   0  0  0  0  0  0  0  0  0  0  0  0
   23.3830   64.1160   -7.1950 C   0  0  1  0  0  3  0  0  0  0  0  0
   23.0590   65.1820   -6.3760 C   0  0  0  0  0  3  0  0  0  0  0  0
   23.3810   65.1480   -5.0740 N   0  0  0  0  0  0  0  0  0  0  0  0
   24.0190   64.0990   -4.5120 C   0  0  1  0  0  3  0  0  0  0  0  0
   24.3490   63.0460   -5.2800 N   0  0  0  0  0  0  0  0  0  0  0  0
   24.3410   64.0910   -3.1600 C   0  0  0  0  0  3  0  0  0  0  0  0
   24.9930   61.9850   -4.7180 C   0  0  0  0  0  3  0  0  0  0  0  0
   24.0350   63.0530   -6.6030 C   0  0  0  0  0  0  0  0  0  0  0  0
   25.3210   61.9580   -3.3780 C   0  0  0  0  0  0  0  0  0  0  0  0
   24.9920   63.0320   -2.5680 C   0  0  0  0  0  3  0  0  0  0  0  0
   26.0220   60.8210   -2.7300 C   0  0  0  0  0  1  0  0  0  0  0  0
   24.3390   62.0810   -7.3100 O   0  0  0  0  0  0  0  0  0  0  0  0
   18.7110   61.8780  -10.6590 S   0  0  0  0  0  0  0  0  0  0  0  0
   19.3450   61.6960  -11.9940 O   0  0  0  0  0  0  0  0  0  0  0  0
   19.1660   60.7570   -9.7570 O   0  0  0  0  0  0  0  0  0  0  0  0
   16.9730   61.8090  -10.7780 C   0  0  0  0  0  0  0  0  0  0  0  0
   16.2550   62.9400  -11.1070 C   0  0  0  0  0  3  0  0  0  0  0  0
   14.8720   62.8140  -11.1850 C   0  0  0  0  0  0  0  0  0  0  0  0
   14.2320   61.6260  -10.9490 C   0  0  0  0  0  3  0  0  0  0  0  0
   13.8250   64.3370  -11.6330 Br  0  0  0  0  0  0  0  0  0  0  0  0
   14.9640   60.4940  -10.6190 C   0  0  0  0  0  3  0  0  0  0  0  0
   16.3560   60.5990  -10.5350 C   0  0  0  0  0  3  0  0  0  0  0  0
  1  6  1  0  0  0  0
  2  3  1  0  0  0  0
  2  1  1  0  0  0  0
  3  4  1  0  0  0  0
  4  7  1  0  0  0  0
  4  5  1  0  0  0  0
  6  5  1  0  0  0  0
  8  7  2  0  0  0  0
  9  7  1  1  0  0  0
  9 16  1  0  0  0  0
  9 10  1  0  0  0  0
 10 11  2  0  0  0  0
 11 12  1  0  0  0  0
 12 14  1  6  0  0  0
 13 15  1  0  0  0  0
 13 12  1  0  0  0  0
 14 18  2  0  0  0  0
 15 17  2  0  0  0  0
 16 13  1  0  0  0  0
 17 19  1  0  0  0  0
 17 18  1  0  0  0  0
 20 16  2  0  0  0  0
 21  1  1  0  0  0  0
 21 23  2  0  0  0  0
 22 21  2  0  0  0  0
 24 21  1  0  0  0  0
 24 30  1  0  0  0  0
 25 24  2  0  0  0  0
 26 25  1  0  0  0  0
 26 27  2  0  0  0  0
 27 29  1  0  0  0  0
 28 26  1  0  0  0  0
 29 30  2  0  0  0  0
M  END
>  <Pose>
1

>  <Score>
-7.548

$$$$
