/Users/jonathanwahrer/Desktop/Msc/3_Semester/Drug_Design_Praktikum/waehrer_HTS_screening/HTS_experiment/out/docking_results/vina_output/3sx0/1061_docked.pdbqt
 OpenBabel03192222153D

 30 34  0  0  1  0  0  0  0  0999 V2000
   17.2040   63.1060  -10.0070 N   0  0  0  0  0  0  0  0  0  0  0  0
   16.7150   64.4560   -9.9000 C   0  0  0  0  0  2  0  0  0  0  0  0
   15.2700   64.5610  -10.3310 C   0  0  0  0  0  2  0  0  0  0  0  0
   15.1060   64.0060  -11.6980 N   0  0  0  0  0  0  0  0  0  0  0  0
   15.4160   62.5850  -11.6320 C   0  0  0  0  0  2  0  0  0  0  0  0
   16.1620   62.1950  -10.3680 C   0  0  0  0  0  2  0  0  0  0  0  0
   13.6960   64.1810  -11.9720 C   0  0  0  0  0  2  0  0  0  0  0  0
   13.3090   64.6550  -13.3080 C   0  0  0  0  0  2  0  0  0  0  0  0
   12.2080   64.0530  -13.9810 N   0  0  0  0  0  0  0  0  0  0  0  0
   10.9030   64.5500  -14.2560 C   0  0  0  0  0  0  0  0  0  0  0  0
   10.3160   65.4230  -13.6000 O   0  0  0  0  0  0  0  0  0  0  0  0
   10.3680   63.8530  -15.4500 C   0  0  1  0  0  3  0  0  0  0  0  0
   11.0880   62.4910  -15.3230 C   0  0  2  0  0  3  0  0  0  0  0  0
    8.9600   63.4360  -15.2160 C   0  0  2  0  0  3  0  0  0  0  0  0
   10.1030   61.5770  -14.6980 C   0  0  1  0  0  3  0  0  0  0  0  0
   12.3110   62.7390  -14.5720 C   0  0  0  0  0  0  0  0  0  0  0  0
    9.1680   62.5570  -13.9700 C   0  0  0  0  0  2  0  0  0  0  0  0
    9.1320   61.1860  -15.7920 C   0  0  0  0  0  2  0  0  0  0  0  0
    8.6570   62.3570  -16.2150 C   0  0  0  0  0  2  0  0  0  0  0  0
   13.2670   61.9290  -14.4760 O   0  0  0  0  0  0  0  0  0  0  0  0
   18.7080   62.9020  -10.7260 S   0  0  0  0  0  0  0  0  0  0  0  0
   18.7960   61.4660  -11.2260 O   0  0  0  0  0  0  0  0  0  0  0  0
   18.7250   63.7350  -12.0080 O   0  0  0  0  0  0  0  0  0  0  0  0
   20.0900   63.3480   -9.8100 C   0  0  0  0  0  0  0  0  0  0  0  0
   21.2680   63.6850  -10.4320 C   0  0  0  0  0  3  0  0  0  0  0  0
   22.3580   64.0490   -9.6620 C   0  0  0  0  0  3  0  0  0  0  0  0
   22.3120   64.0870   -8.2800 C   0  0  0  0  0  0  0  0  0  0  0  0
   21.1280   63.7480   -7.6600 C   0  0  0  0  0  3  0  0  0  0  0  0
   23.8140   64.5870   -7.2170 Br  0  0  0  0  0  0  0  0  0  0  0  0
   20.0320   63.3830   -8.4350 C   0  0  0  0  0  3  0  0  0  0  0  0
  1  2  1  0  0  0  0
  3  2  1  0  0  0  0
  4  5  1  0  0  0  0
  4  3  1  0  0  0  0
  5  6  1  0  0  0  0
  6  1  1  0  0  0  0
  7  4  1  0  0  0  0
  8  7  1  0  0  0  0
  9  8  1  0  0  0  0
 10  9  1  0  0  0  0
 10 11  2  0  0  0  0
 12 13  1  0  0  0  0
 12 14  1  0  0  0  0
 12 10  1  1  0  0  0
 13 15  1  0  0  0  0
 13 16  1  1  0  0  0
 14 19  1  6  0  0  0
 14 17  1  0  0  0  0
 15 18  1  6  0  0  0
 15 17  1  0  0  0  0
 16 20  2  0  0  0  0
 16  9  1  0  0  0  0
 19 18  1  0  0  0  0
 21  1  1  0  0  0  0
 21 24  1  0  0  0  0
 22 21  2  0  0  0  0
 23 21  2  0  0  0  0
 24 30  1  0  0  0  0
 25 24  2  0  0  0  0
 25 26  1  0  0  0  0
 26 27  2  0  0  0  0
 27 28  1  0  0  0  0
 27 29  1  0  0  0  0
 30 28  2  0  0  0  0
M  END
>  <Pose>
1

>  <Score>
-7.176

$$$$
