/Users/jonathanwahrer/Desktop/Msc/3_Semester/Drug_Design_Praktikum/waehrer_HTS_screening/HTS_experiment/out/docking_results/vina_output/3sx0/1073_docked.pdbqt
 OpenBabel03192222163D

 28 31  0  0  0  0  0  0  0  0999 V2000
   17.2790   62.8200  -10.6530 N   0  0  0  0  0  0  0  0  0  0  0  0
   17.1280   64.1380  -10.1860 C   0  0  0  0  0  2  0  0  0  0  0  0
   15.7040   64.6220  -10.2100 C   0  0  0  0  0  2  0  0  0  0  0  0
   14.8540   63.8980  -11.0860 N   0  0  0  0  0  0  0  0  0  0  0  0
   14.8520   62.5130  -10.7780 C   0  0  0  0  0  2  0  0  0  0  0  0
   16.1900   61.9310  -10.5090 C   0  0  0  0  0  2  0  0  0  0  0  0
   15.0310   64.2790  -12.4380 C   0  0  0  0  0  2  0  0  0  0  0  0
   13.8560   64.5540  -13.1940 N   0  0  0  0  0  0  0  0  0  0  0  0
   13.5580   65.7870  -13.5500 N   0  0  0  0  0  0  0  0  0  0  0  0
   12.4700   66.1320  -14.2550 C   0  0  0  0  0  0  0  0  0  0  0  0
   11.6220   65.1140  -14.6220 C   0  0  0  0  0  3  0  0  0  0  0  0
   11.8780   63.8030  -14.2800 C   0  0  0  0  0  3  0  0  0  0  0  0
   13.0320   63.5560  -13.5490 C   0  0  0  0  0  0  0  0  0  0  0  0
   13.2670   62.3370  -13.2330 O   0  0  0  0  0  0  0  0  0  0  0  0
   12.1730   67.4830  -14.6270 N   0  0  0  0  0  0  0  0  0  0  0  0
   11.3880   68.3670  -14.0040 C   0  0  0  0  0  3  0  0  0  0  0  0
   11.3960   69.5160  -14.7030 N   0  0  0  0  0  0  0  0  0  0  0  0
   12.1880   69.3740  -15.7810 C   0  0  0  0  0  3  0  0  0  0  0  0
   12.6720   68.0840  -15.7190 C   0  0  0  0  0  3  0  0  0  0  0  0
   18.8040   62.1670  -10.7370 S   0  0  0  0  0  0  0  0  0  0  0  0
   18.8860   60.8110  -10.1210 O   0  0  0  0  0  0  0  0  0  0  0  0
   19.2610   62.0780  -12.1580 O   0  0  0  0  0  0  0  0  0  0  0  0
   19.9350   63.2130   -9.8550 C   0  0  0  0  0  0  0  0  0  0  0  0
   20.2430   63.2940   -8.1800 S   0  0  0  0  0  0  0  0  0  0  0  0
   21.4260   64.5190   -8.1790 C   0  0  0  0  0  0  0  0  0  0  0  0
   21.5500   64.8390   -9.5090 C   0  0  0  0  0  3  0  0  0  0  0  0
   22.3700   65.2860   -6.6990 Br  0  0  0  0  0  0  0  0  0  0  0  0
   20.7760   64.1590  -10.3690 C   0  0  0  0  0  3  0  0  0  0  0  0
  1  6  1  0  0  0  0
  1  2  1  0  0  0  0
  3  2  1  0  0  0  0
  4  5  1  0  0  0  0
  4  3  1  0  0  0  0
  5  6  1  0  0  0  0
  7  4  1  0  0  0  0
  8  7  1  0  0  0  0
  9  8  1  0  0  0  0
 10  9  2  0  0  0  0
 11 12  2  0  0  0  0
 11 10  1  0  0  0  0
 12 13  1  0  0  0  0
 13 14  2  0  0  0  0
 13  8  1  0  0  0  0
 15 10  1  0  0  0  0
 15 16  1  0  0  0  0
 17 16  2  0  0  0  0
 18 19  2  0  0  0  0
 18 17  1  0  0  0  0
 19 15  1  0  0  0  0
 20  1  1  0  0  0  0
 20 21  2  0  0  0  0
 20 23  1  0  0  0  0
 22 20  2  0  0  0  0
 23 24  1  0  0  0  0
 24 25  1  0  0  0  0
 25 27  1  0  0  0  0
 26 25  2  0  0  0  0
 28 23  2  0  0  0  0
 28 26  1  0  0  0  0
M  END
>  <Pose>
1

>  <Score>
-7.166

$$$$
