/Users/jonathanwahrer/Desktop/Msc/3_Semester/Drug_Design_Praktikum/waehrer_HTS_screening/HTS_experiment/out/docking_results/vina_output/3sx0/1084_docked.pdbqt
 OpenBabel03192222163D

 29 32  0  0  0  0  0  0  0  0999 V2000
   14.0350   63.7590  -13.1750 N   0  0  0  0  0  0  0  0  0  0  0  0
   13.5140   62.7120  -12.3620 C   0  0  0  0  0  2  0  0  0  0  0  0
   14.0110   62.7540  -10.9330 C   0  0  0  0  0  2  0  0  0  0  0  0
   15.2880   63.4060  -10.9390 N   0  0  0  0  0  0  0  0  0  0  0  0
   15.3600   64.7720  -11.3670 C   0  0  0  0  0  2  0  0  0  0  0  0
   14.3380   64.9740  -12.4570 C   0  0  0  0  0  2  0  0  0  0  0  0
   16.4380   62.7100  -10.5300 C   0  0  0  0  0  0  0  0  0  0  0  0
   17.6130   63.3200  -10.3030 N   0  0  0  0  0  0  0  0  0  0  0  0
   18.7270   62.7220   -9.9180 C   0  0  0  0  0  0  0  0  0  0  0  0
   18.6860   61.3510   -9.7310 C   0  0  0  0  0  3  0  0  0  0  0  0
   17.5040   60.6810   -9.9510 C   0  0  0  0  0  0  0  0  0  0  0  0
   16.4160   61.3680  -10.3410 N   0  0  0  0  0  0  0  0  0  0  0  0
   17.4200   59.2070   -9.7600 C   0  0  0  0  0  1  0  0  0  0  0  0
   19.9040   63.4810   -9.7130 N   0  0  0  0  0  0  0  0  0  0  0  0
   20.5100   63.6830   -8.4130 C   0  0  0  0  0  2  0  0  0  0  0  0
   21.9800   64.0100   -8.6730 C   0  0  0  0  0  2  0  0  0  0  0  0
   22.4180   63.1430   -9.6770 O   0  0  0  0  0  0  0  0  0  0  0  0
   21.9510   63.4790  -10.9270 C   0  0  0  0  0  2  0  0  0  0  0  0
   20.5500   64.0940  -10.8510 C   0  0  0  0  0  2  0  0  0  0  0  0
   12.8480   64.1560  -14.3680 S   0  0  0  0  0  0  0  0  0  0  0  0
   12.7850   63.0070  -15.3600 O   0  0  0  0  0  0  0  0  0  0  0  0
   11.5050   64.2690  -13.7050 O   0  0  0  0  0  0  0  0  0  0  0  0
   13.2670   65.6100  -15.2280 C   0  0  0  0  0  0  0  0  0  0  0  0
   12.4660   66.7320  -15.0690 C   0  0  0  0  0  3  0  0  0  0  0  0
   12.7360   67.9170  -15.7170 C   0  0  0  0  0  3  0  0  0  0  0  0
   13.8260   68.0040  -16.5490 C   0  0  0  0  0  0  0  0  0  0  0  0
   14.6480   66.9080  -16.7350 C   0  0  0  0  0  3  0  0  0  0  0  0
   14.1860   69.6500  -17.4390 Br  0  0  0  0  0  0  0  0  0  0  0  0
   14.3480   65.7260  -16.0640 C   0  0  0  0  0  3  0  0  0  0  0  0
  1  6  1  0  0  0  0
  1  2  1  0  0  0  0
  2  3  1  0  0  0  0
  4  3  1  0  0  0  0
  4  7  1  0  0  0  0
  5  4  1  0  0  0  0
  6  5  1  0  0  0  0
  7 12  1  0  0  0  0
  7  8  2  0  0  0  0
  8  9  1  0  0  0  0
  9 10  2  0  0  0  0
  9 14  1  0  0  0  0
 11 13  1  0  0  0  0
 11 10  1  0  0  0  0
 12 11  2  0  0  0  0
 14 15  1  0  0  0  0
 16 15  1  0  0  0  0
 17 16  1  0  0  0  0
 18 19  1  0  0  0  0
 18 17  1  0  0  0  0
 19 14  1  0  0  0  0
 20 22  2  0  0  0  0
 20  1  1  0  0  0  0
 21 20  2  0  0  0  0
 23 24  1  0  0  0  0
 23 20  1  0  0  0  0
 25 24  2  0  0  0  0
 26 25  1  0  0  0  0
 27 26  2  0  0  0  0
 27 29  1  0  0  0  0
 28 26  1  0  0  0  0
 29 23  2  0  0  0  0
M  END
>  <Pose>
1

>  <Score>
-7.619

$$$$
