MODEL 1
REMARK VINA RESULT:    -6.924      0.000      0.000
REMARK INTER + INTRA:          -8.415
REMARK INTER:                  -8.138
REMARK INTRA:                  -0.277
REMARK UNBOUND:                -0.277
REMARK  3 active torsions:
REMARK  status: ('A' for Active; 'I' for Inactive)
REMARK    1  A    between atoms: S_1  and  N_4 
REMARK    2  A    between atoms: S_1  and  C_19 
REMARK    3  A    between atoms: N_7  and  C_10 
ROOT
ATOM      1  N   UNK d   1      22.129  65.155  -7.877  0.00  0.00    -0.303 N 
ATOM      2  C   UNK d   1      23.238  65.909  -7.435  0.00  0.00     0.155 C 
ATOM      3  C   UNK d   1      23.752  65.583  -6.055  0.00  0.00     0.145 C 
ATOM      4  N   UNK d   1      22.961  64.602  -5.382  0.00  0.00    -0.361 N 
ATOM      5  C   UNK d   1      21.543  64.412  -5.632  0.00  0.00     0.145 C 
ATOM      6  C   UNK d   1      21.107  65.066  -6.910  0.00  0.00     0.155 C 
ENDROOT
BRANCH   4   7
ATOM      7  C   UNK d   1      23.559  63.749  -4.415  0.00  0.00     0.158 A 
ATOM      8  N   UNK d   1      22.925  63.532  -3.225  0.00  0.00    -0.222 NA
ATOM      9  C   UNK d   1      23.465  62.729  -2.307  0.00  0.00     0.237 A 
ATOM     10  N   UNK d   1      24.628  62.110  -2.503  0.00  0.00    -0.220 NA
ATOM     11  C   UNK d   1      25.262  62.309  -3.656  0.00  0.00     0.182 A 
ATOM     12  N   UNK d   1      26.422  61.835  -4.121  0.00  0.00    -0.222 NA
ATOM     13  C   UNK d   1      24.758  63.136  -4.662  0.00  0.00     0.128 A 
ATOM     14  C   UNK d   1      26.630  62.348  -5.365  0.00  0.00     0.210 A 
ATOM     15  N   UNK d   1      25.612  63.144  -5.696  0.00  0.00    -0.345 N 
ATOM     16  H   UNK d   1      25.524  63.661  -6.590  0.00  0.00     0.167 HD
ENDBRANCH   4   7
BRANCH   1  17
ATOM     17  S   UNK d   1      22.375  63.871  -8.918  0.00  0.00     0.267 S 
ATOM     18  O   UNK d   1      22.900  62.687  -8.114  0.00  0.00    -0.200 OA
ATOM     19  O   UNK d   1      23.388  64.143  -9.971  0.00  0.00    -0.200 OA
BRANCH  17  20
ATOM     20  C   UNK d   1      20.918  63.274  -9.717  0.00  0.00     0.121 A 
ATOM     21  S   UNK d   1      19.478  62.673  -9.031  0.00  0.00    -0.069 SA
ATOM     22  C   UNK d   1      18.612  62.326 -10.455  0.00  0.00     0.052 A 
ATOM     23  C   UNK d   1      19.488  62.696 -11.446  0.00  0.00     0.028 A 
ATOM     24 Br   UNK d   1      16.856  61.601 -10.653  0.00  0.00    -0.043 Br
ATOM     25  C   UNK d   1      20.673  63.183 -11.059  0.00  0.00     0.035 A 
ENDBRANCH  17  20
ENDBRANCH   1  17
TORSDOF 3
ENDMDL
