MODEL 1
REMARK VINA RESULT:    -8.118      0.000      0.000
REMARK INTER + INTRA:          -9.647
REMARK INTER:                  -9.542
REMARK INTRA:                  -0.105
REMARK UNBOUND:                -0.105
REMARK  3 active torsions:
REMARK  status: ('A' for Active; 'I' for Inactive)
REMARK    1  A    between atoms: S_1  and  N_4 
REMARK    2  A    between atoms: S_1  and  C_20 
REMARK    3  A    between atoms: N_7  and  C_10 
ROOT
ATOM      1  N   UNK d   1      21.301  63.173  -9.945  0.00  0.00    -0.203 NA
ATOM      2  C   UNK d   1      20.386  63.756  -9.022  0.00  0.00     0.127 C 
ATOM      3  C   UNK d   1      19.059  64.116  -9.654  0.00  0.00     0.140 C 
ATOM      4  N   UNK d   1      18.779  63.121 -10.657  0.00  0.00    -0.363 N 
ATOM      5  C   UNK d   1      19.664  63.107 -11.794  0.00  0.00     0.140 C 
ATOM      6  C   UNK d   1      21.046  63.394 -11.328  0.00  0.00     0.127 C 
ENDROOT
BRANCH   4   7
ATOM      7  C   UNK d   1      17.710  62.199 -10.563  0.00  0.00     0.148 A 
ATOM      8  C   UNK d   1      17.889  60.943 -10.155  0.00  0.00     0.080 A 
ATOM      9  C   UNK d   1      16.819  59.968 -10.043  0.00  0.00     0.043 A 
ATOM     10  C   UNK d   1      17.056  58.733  -9.633  0.00  0.00     0.043 C 
ATOM     11  N   UNK d   1      15.507  60.362 -10.384  0.00  0.00    -0.189 N 
ATOM     12  C   UNK d   1      15.352  61.722 -10.817  0.00  0.00     0.730 A 
ATOM     13  H   UNK d   1      14.682  59.749 -10.339  0.00  0.00     0.184 HD
ATOM     14  N   UNK d   1      16.375  62.585 -10.904  0.00  0.00    -0.044 N 
ATOM     15  N   UNK d   1      14.254  62.414 -11.211  0.00  0.00    -0.054 NA
ATOM     16  N   UNK d   1      15.917  63.764 -11.334  0.00  0.00    -0.143 NA
ATOM     17  C   UNK d   1      14.590  63.675 -11.532  0.00  0.00     0.275 A 
ENDBRANCH   4   7
BRANCH   1  18
ATOM     18  S   UNK d   1      22.900  63.539  -9.503  0.00  0.00     0.250 S 
ATOM     19  O   UNK d   1      23.484  64.672 -10.306  0.00  0.00    -0.205 OA
ATOM     20  O   UNK d   1      23.757  62.321  -9.810  0.00  0.00    -0.205 OA
BRANCH  18  21
ATOM     21  C   UNK d   1      23.073  63.837  -7.774  0.00  0.00     0.116 A 
ATOM     22  S   UNK d   1      24.142  63.054  -6.712  0.00  0.00    -0.070 SA
ATOM     23  C   UNK d   1      23.736  63.855  -5.267  0.00  0.00     0.052 A 
ATOM     24  C   UNK d   1      22.758  64.730  -5.657  0.00  0.00     0.028 A 
ATOM     25 Br   UNK d   1      24.453  63.620  -3.489  0.00  0.00    -0.043 Br
ATOM     26  C   UNK d   1      22.414  64.719  -6.967  0.00  0.00     0.034 A 
ENDBRANCH  18  21
ENDBRANCH   1  18
TORSDOF 3
ENDMDL
