/Users/jonathanwahrer/Desktop/Msc/3_Semester/Drug_Design_Praktikum/waehrer_HTS_screening/HTS_experiment/out/docking_results/vina_output/3sx0/1105_docked.pdbqt
 OpenBabel03192222173D

 33 36  0  0  1  0  0  0  0  0999 V2000
   11.3220   65.6780  -16.2470 N   0  0  0  0  0  0  0  0  0  0  0  0
   10.8680   65.3360  -17.5520 C   0  0  0  0  0  2  0  0  0  0  0  0
    9.9780   64.1150  -17.6140 C   0  0  0  0  0  2  0  0  0  0  0  0
    8.9650   64.1580  -16.5560 N   0  0  0  0  0  0  0  0  0  0  0  0
    9.5120   64.4980  -15.2620 C   0  0  0  0  0  0  0  0  0  0  0  0
    8.8090   64.6250  -14.2570 O   0  0  0  0  0  0  0  0  0  0  0  0
   11.0020   64.6720  -15.3020 C   0  0  2  0  0  3  0  0  0  0  0  0
    7.9700   63.9730  -16.6810 H   0  0  0  0  0  0  0  0  0  0  0  0
   11.6060   64.7730  -13.9570 C   0  0  0  0  0  2  0  0  0  0  0  0
   12.2090   63.4720  -13.5840 C   0  0  0  0  0  0  0  0  0  0  0  0
   11.6220   62.4380  -14.0010 O   0  0  0  0  0  0  0  0  0  0  0  0
   13.3950   63.3870  -12.7930 N   0  0  0  0  0  0  0  0  0  0  0  0
   14.0560   64.5740  -12.3230 C   0  0  0  0  0  2  0  0  0  0  0  0
   13.9260   62.0890  -12.4690 C   0  0  0  0  0  2  0  0  0  0  0  0
   14.7810   64.3990  -11.0250 C   0  0  0  0  0  2  0  0  0  0  0  0
   15.3130   63.0630  -10.8220 N   0  0  0  0  0  0  0  0  0  0  0  0
   14.3440   61.9950  -11.0170 C   0  0  0  0  0  2  0  0  0  0  0  0
   16.6300   62.7580  -10.4520 C   0  0  0  0  0  0  0  0  0  0  0  0
   17.0410   61.4440  -10.4340 C   0  0  0  0  0  3  0  0  0  0  0  0
   18.3400   61.1440  -10.0550 C   0  0  0  0  0  3  0  0  0  0  0  0
   19.2480   62.1080   -9.6900 C   0  0  0  0  0  3  0  0  0  0  0  0
   18.8320   63.4190   -9.7110 C   0  0  0  0  0  3  0  0  0  0  0  0
   17.5340   63.7260  -10.0890 C   0  0  0  0  0  3  0  0  0  0  0  0
   10.8300   67.2560  -15.8540 S   0  0  0  0  0  0  0  0  0  0  0  0
   10.4410   67.4390  -14.4210 O   0  0  0  0  0  0  0  0  0  0  0  0
    9.6120   67.6610  -16.6760 O   0  0  0  0  0  0  0  0  0  0  0  0
   12.0700   68.4360  -16.2380 C   0  0  0  0  0  0  0  0  0  0  0  0
   12.0990   69.7010  -15.6640 C   0  0  0  0  0  3  0  0  0  0  0  0
   13.0520   70.6380  -15.9510 C   0  0  0  0  0  3  0  0  0  0  0  0
   14.0490   70.3510  -16.8470 C   0  0  0  0  0  0  0  0  0  0  0  0
   14.0530   69.0860  -17.4450 C   0  0  0  0  0  3  0  0  0  0  0  0
   15.4040   71.6120  -17.2870 Br  0  0  0  0  0  0  0  0  0  0  0  0
   13.0780   68.1690  -17.1340 C   0  0  0  0  0  3  0  0  0  0  0  0
  1 24  1  0  0  0  0
  1  7  1  0  0  0  0
  2  1  1  0  0  0  0
  3  2  1  0  0  0  0
  3  4  1  0  0  0  0
  4  5  1  0  0  0  0
  5  6  2  0  0  0  0
  7  5  1  0  0  0  0
  7  9  1  1  0  0  0
  8  4  1  0  0  0  0
  9 10  1  0  0  0  0
 10 12  1  0  0  0  0
 11 10  2  0  0  0  0
 12 14  1  0  0  0  0
 12 13  1  0  0  0  0
 13 15  1  0  0  0  0
 14 17  1  0  0  0  0
 15 16  1  0  0  0  0
 16 18  1  0  0  0  0
 17 16  1  0  0  0  0
 18 19  2  0  0  0  0
 18 23  1  0  0  0  0
 19 20  1  0  0  0  0
 20 21  2  0  0  0  0
 22 21  1  0  0  0  0
 23 22  2  0  0  0  0
 24 25  2  0  0  0  0
 26 24  2  0  0  0  0
 27 24  1  0  0  0  0
 27 28  1  0  0  0  0
 29 28  2  0  0  0  0
 30 29  1  0  0  0  0
 31 33  1  0  0  0  0
 31 30  2  0  0  0  0
 32 30  1  0  0  0  0
 33 27  2  0  0  0  0
M  END
>  <Pose>
1

>  <Score>
-6.811

$$$$
