MODEL 1
REMARK VINA RESULT:    -9.352      0.000      0.000
REMARK INTER + INTRA:         -13.573
REMARK INTER:                 -13.180
REMARK INTRA:                  -0.393
REMARK UNBOUND:                -0.393
REMARK  7 active torsions:
REMARK  status: ('A' for Active; 'I' for Inactive)
REMARK    1  A    between atoms: S_1  and  N_4 
REMARK    2  A    between atoms: S_1  and  C_10 
REMARK    3  A    between atoms: C_13  and  C_16 
REMARK    4  A    between atoms: C_16  and  O_17 
REMARK    5  A    between atoms: O_17  and  C_18 
REMARK    6  A    between atoms: C_18  and  C_20 
REMARK    7  A    between atoms: C_20  and  N_21 
ROOT
ATOM      1  C   UNK d   1      19.871  62.986 -10.979  0.00  0.00     0.217 C 
ENDROOT
BRANCH   1   2
ATOM      2  C   UNK d   1      20.748  63.320  -9.831  0.00  0.00    -0.034 A 
ATOM      3  C   UNK d   1      20.315  63.511  -8.552  0.00  0.00     0.011 A 
ATOM      4  C   UNK d   1      21.201  63.826  -7.527  0.00  0.00     0.025 A 
ATOM      5  C   UNK d   1      22.540  63.958  -7.756  0.00  0.00     0.074 A 
ATOM      6  C   UNK d   1      22.984  63.765  -9.051  0.00  0.00     0.025 A 
ATOM      7  C   UNK d   1      22.104  63.452 -10.072  0.00  0.00     0.011 A 
BRANCH   5   8
ATOM      8  S   UNK d   1      23.688  64.356  -6.486  0.00  0.00     0.243 S 
ATOM      9  O   UNK d   1      24.969  64.868  -7.048  0.00  0.00    -0.206 OA
ATOM     10  O   UNK d   1      23.065  65.484  -5.690  0.00  0.00    -0.206 OA
BRANCH   8  11
ATOM     11  N   UNK d   1      23.945  63.053  -5.412  0.00  0.00    -0.202 NA
ATOM     12  C   UNK d   1      23.914  63.444  -4.027  0.00  0.00     0.134 C 
ATOM     13  C   UNK d   1      24.618  62.332  -3.244  0.00  0.00     0.183 C 
ATOM     14  O   UNK d   1      25.982  62.396  -3.436  0.00  0.00    -0.389 OA
ATOM     15  C   UNK d   1      26.240  63.023  -4.668  0.00  0.00     0.183 C 
ATOM     16  C   UNK d   1      25.242  62.454  -5.666  0.00  0.00     0.134 C 
ENDBRANCH   8  11
ENDBRANCH   5   8
ENDBRANCH   1   2
BRANCH   1  17
ATOM     17  O   UNK d   1      19.377  61.667 -10.907  0.00  0.00    -0.316 OA
BRANCH  17  18
ATOM     18  C   UNK d   1      18.407  61.235 -10.036  0.00  0.00     0.277 C 
ATOM     19  O   UNK d   1      18.360  60.028  -9.726  0.00  0.00    -0.263 OA
BRANCH  18  20
ATOM     20  C   UNK d   1      17.434  62.167  -9.471  0.00  0.00     0.246 C 
BRANCH  20  21
ATOM     21  N   UNK d   1      16.353  62.479 -10.358  0.00  0.00    -0.271 N 
ATOM     22  C   UNK d   1      16.141  63.788 -10.903  0.00  0.00     0.262 A 
ATOM     23  O   UNK d   1      16.857  64.806 -10.681  0.00  0.00    -0.267 OA
ATOM     24  C   UNK d   1      14.962  63.762 -11.761  0.00  0.00     0.049 A 
ATOM     25  C   UNK d   1      14.447  62.492 -11.760  0.00  0.00     0.048 A 
ATOM     26  C   UNK d   1      14.319  64.716 -12.516  0.00  0.00     0.037 A 
ATOM     27  C   UNK d   1      13.319  62.192 -12.498  0.00  0.00     0.019 A 
ATOM     28  C   UNK d   1      15.309  61.678 -10.885  0.00  0.00     0.262 A 
ATOM     29  C   UNK d   1      12.685  63.161 -13.253  0.00  0.00     0.020 A 
ATOM     30  C   UNK d   1      13.192  64.443 -13.263  0.00  0.00     0.011 A 
ATOM     31 Br   UNK d   1      12.352  65.814 -14.288  0.00  0.00    -0.051 Br
ATOM     32  O   UNK d   1      15.168  60.462 -10.627  0.00  0.00    -0.267 OA
ENDBRANCH  20  21
ENDBRANCH  18  20
ENDBRANCH  17  18
ENDBRANCH   1  17
TORSDOF 7
ENDMDL
