MODEL 1
REMARK VINA RESULT:    -9.638      0.000      0.000
REMARK INTER + INTRA:         -13.332
REMARK INTER:                 -13.018
REMARK INTRA:                  -0.313
REMARK UNBOUND:                -0.313
REMARK  6 active torsions:
REMARK  status: ('A' for Active; 'I' for Inactive)
REMARK    1  A    between atoms: S_1  and  N_4 
REMARK    2  A    between atoms: S_1  and  C_10 
REMARK    3  A    between atoms: N_13  and  C_15 
REMARK    4  A    between atoms: C_15  and  C_16 
REMARK    5  A    between atoms: C_19  and  C_21 
REMARK    6  A    between atoms: C_21  and  C_22 
ROOT
ATOM      1  C   UNK d   1      22.701  64.195  -7.782  0.00  0.00     0.188 A 
ATOM      2  N   UNK d   1      23.727  64.111  -8.645  0.00  0.00    -0.229 NA
ATOM      3  C   UNK d   1      23.243  63.800  -9.875  0.00  0.00     0.211 A 
ATOM      4  N   UNK d   1      21.906  63.684  -9.807  0.00  0.00    -0.341 N 
ATOM      5  C   UNK d   1      21.564  63.920  -8.549  0.00  0.00     0.138 A 
ENDROOT
BRANCH   4   6
ATOM      6  C   UNK d   1      21.046  63.361 -10.927  0.00  0.00     0.212 C 
BRANCH   6   7
ATOM      7  C   UNK d   1      19.637  63.183 -10.501  0.00  0.00     0.174 A 
ATOM      8  N   UNK d   1      19.065  61.997 -10.167  0.00  0.00    -0.109 NA
ATOM      9  O   UNK d   1      17.827  62.222  -9.847  0.00  0.00    -0.196 OA
ATOM     10  C   UNK d   1      17.531  63.493  -9.947  0.00  0.00     0.177 A 
ATOM     11  N   UNK d   1      18.675  64.097 -10.360  0.00  0.00    -0.207 NA
BRANCH  10  12
ATOM     12  C   UNK d   1      16.226  64.167  -9.673  0.00  0.00     0.127 C 
BRANCH  12  13
ATOM     13  C   UNK d   1      15.275  63.703 -10.721  0.00  0.00    -0.050 A 
ATOM     14  C   UNK d   1      14.817  64.625 -11.649  0.00  0.00     0.009 A 
ATOM     15  C   UNK d   1      13.941  64.288 -12.647  0.00  0.00     0.019 A 
ATOM     16  C   UNK d   1      13.512  62.991 -12.721  0.00  0.00     0.011 A 
ATOM     17  C   UNK d   1      13.931  62.049 -11.834  0.00  0.00     0.019 A 
ATOM     18 Br   UNK d   1      12.292  62.484 -14.097  0.00  0.00    -0.051 Br
ATOM     19  C   UNK d   1      14.821  62.420 -10.829  0.00  0.00     0.009 A 
ENDBRANCH  12  13
ENDBRANCH  10  12
ENDBRANCH   6   7
ENDBRANCH   4   6
BRANCH   1  20
ATOM     20  S   UNK d   1      22.759  64.566  -6.075  0.00  0.00     0.280 S 
ATOM     21  O   UNK d   1      23.272  65.992  -5.927  0.00  0.00    -0.199 OA
ATOM     22  O   UNK d   1      21.349  64.596  -5.518  0.00  0.00    -0.199 OA
BRANCH  20  23
ATOM     23  N   UNK d   1      23.747  63.554  -5.176  0.00  0.00    -0.301 N 
ATOM     24  C   UNK d   1      24.751  62.834  -5.842  0.00  0.00     0.161 C 
ATOM     25  C   UNK d   1      26.048  62.896  -5.090  0.00  0.00     0.188 C 
ATOM     26  O   UNK d   1      25.817  62.409  -3.815  0.00  0.00    -0.388 OA
ATOM     27  C   UNK d   1      24.986  63.236  -3.071  0.00  0.00     0.188 C 
ATOM     28  C   UNK d   1      23.767  63.677  -3.784  0.00  0.00     0.161 C 
ENDBRANCH  20  23
ENDBRANCH   1  20
TORSDOF 6
ENDMDL
