MODEL 1
REMARK VINA RESULT:    -9.259      0.000      0.000
REMARK INTER + INTRA:         -11.937
REMARK INTER:                 -11.965
REMARK INTRA:                   0.028
REMARK UNBOUND:                 0.028
REMARK  5 active torsions:
REMARK  status: ('A' for Active; 'I' for Inactive)
REMARK    1  A    between atoms: S_1  and  N_4 
REMARK    2  A    between atoms: S_1  and  C_10 
REMARK    3  A    between atoms: N_13  and  C_15 
REMARK    4  A    between atoms: C_15  and  C_16 
REMARK    5  A    between atoms: C_19  and  C_21 
ROOT
ATOM      1  C   UNK d   1      22.938  64.054  -7.456  0.00  0.00     0.188 A 
ATOM      2  N   UNK d   1      23.883  63.508  -8.241  0.00  0.00    -0.229 NA
ATOM      3  C   UNK d   1      23.389  63.395  -9.488  0.00  0.00     0.211 A 
ATOM      4  N   UNK d   1      22.131  63.857  -9.537  0.00  0.00    -0.341 N 
ATOM      5  C   UNK d   1      21.852  64.263  -8.288  0.00  0.00     0.138 A 
ENDROOT
BRANCH   4   6
ATOM      6  C   UNK d   1      21.267  63.905 -10.698  0.00  0.00     0.212 C 
BRANCH   6   7
ATOM      7  C   UNK d   1      19.967  63.233 -10.472  0.00  0.00     0.174 A 
ATOM      8  N   UNK d   1      19.764  62.233  -9.593  0.00  0.00    -0.109 NA
ATOM      9  O   UNK d   1      18.516  61.879  -9.651  0.00  0.00    -0.191 OA
ATOM     10  C   UNK d   1      17.868  62.594 -10.529  0.00  0.00     0.206 A 
ATOM     11  N   UNK d   1      18.772  63.443 -11.044  0.00  0.00    -0.203 NA
BRANCH  10  12
ATOM     12  C   UNK d   1      16.445  62.461 -10.848  0.00  0.00     0.021 A 
ATOM     13  C   UNK d   1      15.731  63.480 -11.443  0.00  0.00     0.035 A 
ATOM     14  C   UNK d   1      14.378  63.338 -11.741  0.00  0.00     0.011 A 
ATOM     15  C   UNK d   1      13.706  62.172 -11.451  0.00  0.00     0.019 A 
ATOM     16 Br   UNK d   1      13.407  64.764 -12.566  0.00  0.00    -0.051 Br
ATOM     17  C   UNK d   1      14.417  61.152 -10.857  0.00  0.00     0.002 A 
ATOM     18  C   UNK d   1      15.774  61.297 -10.558  0.00  0.00     0.016 A 
ENDBRANCH  10  12
ENDBRANCH   6   7
ENDBRANCH   4   6
BRANCH   1  19
ATOM     19  S   UNK d   1      23.061  64.424  -5.731  0.00  0.00     0.280 S 
ATOM     20  O   UNK d   1      23.689  65.787  -5.613  0.00  0.00    -0.199 OA
ATOM     21  O   UNK d   1      21.707  64.500  -5.104  0.00  0.00    -0.199 OA
BRANCH  19  22
ATOM     22  N   UNK d   1      24.062  63.294  -4.928  0.00  0.00    -0.301 N 
ATOM     23  C   UNK d   1      24.143  63.473  -3.526  0.00  0.00     0.161 C 
ATOM     24  C   UNK d   1      25.461  63.183  -2.888  0.00  0.00     0.188 C 
ATOM     25  O   UNK d   1      26.037  62.101  -3.593  0.00  0.00    -0.388 OA
ATOM     26  C   UNK d   1      26.452  62.660  -4.805  0.00  0.00     0.188 C 
ATOM     27  C   UNK d   1      25.252  62.970  -5.626  0.00  0.00     0.161 C 
ENDBRANCH  19  22
ENDBRANCH   1  19
TORSDOF 5
ENDMDL
