/Users/jonathanwahrer/Desktop/Msc/3_Semester/Drug_Design_Praktikum/waehrer_HTS_screening/HTS_experiment/out/docking_results/vina_output/3sx0/1130_docked.pdbqt
 OpenBabel03192222183D

 29 32  0  0  0  0  0  0  0  0999 V2000
   20.6600   63.3260   -9.1180 C   0  0  0  0  0  0  0  0  0  0  0  0
   20.0760   64.4260   -9.6250 N   0  0  0  0  0  0  0  0  0  0  0  0
   18.8580   64.4390  -10.1420 N   0  0  0  0  0  2  0  0  0  0  0  0
   18.1130   63.3150  -10.1920 C   0  0  0  0  0  0  0  0  0  0  0  0
   18.6920   62.1730   -9.6780 C   0  0  0  0  0  0  0  0  0  0  0  0
   17.7750   61.1970   -9.8340 N   0  0  0  0  0  0  0  0  0  0  0  0
   16.6600   61.6690  -10.4160 C   0  0  0  0  0  0  0  0  0  0  0  0
   16.8440   63.0140  -10.6570 C   0  0  0  0  0  0  0  0  0  0  0  0
   15.8750   63.8080  -11.2520 C   0  0  0  0  0  3  0  0  0  0  0  0
   14.6890   63.1880  -11.6060 C   0  0  0  0  0  0  0  0  0  0  0  0
   14.4800   61.8440  -11.3770 C   0  0  0  0  0  3  0  0  0  0  0  0
   15.4540   61.0760  -10.7850 C   0  0  0  0  0  3  0  0  0  0  0  0
   13.3540   64.2840  -12.4280 Br  0  0  0  0  0  0  0  0  0  0  0  0
   17.9990   59.8270   -9.4170 C   0  0  0  0  0  1  0  0  0  0  0  0
   19.9520   62.1850   -9.1490 N   0  0  0  0  0  2  0  0  0  0  0  0
   22.3270   63.3860   -8.4280 S   0  0  0  0  0  0  0  0  0  0  0  0
   22.3740   64.7040   -7.1840 C   0  0  0  0  0  2  0  0  0  0  0  0
   23.2940   64.2850   -6.0880 C   0  0  0  0  0  0  0  0  0  0  0  0
   23.3850   64.9650   -5.0170 O   0  0  0  0  0  0  0  0  0  0  0  0
   24.0920   63.1270   -6.1940 N   0  0  0  0  0  0  0  0  0  0  0  0
   24.0280   62.5600   -7.0670 H   0  0  0  0  0  0  0  0  0  0  0  0
   24.9640   62.7300   -5.1520 C   0  0  0  0  0  0  0  0  0  0  0  0
   26.3050   62.6650   -5.1730 N   0  0  0  0  0  0  0  0  0  0  0  0
   26.7590   62.2540   -4.0210 O   0  0  0  0  0  0  0  0  0  0  0  0
   25.7440   62.0500   -3.2520 N   0  0  0  0  0  0  0  0  0  0  0  0
   24.5900   62.3210   -3.8760 C   0  0  0  0  0  0  0  0  0  0  0  0
   23.2930   62.2070   -3.3320 N   0  0  0  0  0  0  0  0  0  0  0  0
   22.8140   61.2870   -3.3470 H   0  0  0  0  0  0  0  0  0  0  0  0
   22.7890   63.0120   -2.9090 H   0  0  0  0  0  0  0  0  0  0  0  0
  1 16  1  0  0  0  0
  2  1  2  0  0  0  0
  3  2  1  0  0  0  0
  4  3  1  0  0  0  0
  4  5  2  0  0  0  0
  5 15  1  0  0  0  0
  6  5  1  0  0  0  0
  6 14  1  0  0  0  0
  7  6  1  0  0  0  0
  8  7  1  0  0  0  0
  8  4  1  0  0  0  0
  9  8  2  0  0  0  0
 10 11  2  0  0  0  0
 10  9  1  0  0  0  0
 11 12  1  0  0  0  0
 12  7  2  0  0  0  0
 13 10  1  0  0  0  0
 15  1  1  0  0  0  0
 16 17  1  0  0  0  0
 17 18  1  0  0  0  0
 18 19  2  0  0  0  0
 20 18  1  0  0  0  0
 20 22  1  0  0  0  0
 21 20  1  0  0  0  0
 22 26  1  0  0  0  0
 23 22  2  0  0  0  0
 23 24  1  0  0  0  0
 24 25  1  0  0  0  0
 26 27  1  0  0  0  0
 26 25  2  0  0  0  0
 27 29  1  0  0  0  0
 28 27  1  0  0  0  0
M  END
>  <Pose>
1

>  <Score>
-10.331

$$$$
