MODEL 1
REMARK VINA RESULT:    -3.192      0.000      0.000
REMARK INTER + INTRA:          -4.149
REMARK INTER:                  -3.751
REMARK INTRA:                  -0.398
REMARK UNBOUND:                -0.398
REMARK  3 active torsions:
REMARK  status: ('A' for Active; 'I' for Inactive)
REMARK    1  A    between atoms: C_6  and  C_17 
REMARK    2  A    between atoms: N_9  and  C_10 
REMARK    3  A    between atoms: C_23  and  O_30 
ROOT
ATOM      1  C   UNK d   1      12.106  65.948 -15.523  0.00  0.00     0.246 C 
ATOM      2  N   UNK d   1      11.642  65.320 -16.753  0.00  0.00    -0.065 N 
ATOM      3  C   UNK d   1      12.772  65.020 -17.616  0.00  0.00     0.240 C 
ATOM      4  C   UNK d   1      14.055  65.695 -17.208  0.00  0.00     0.067 C 
ATOM      5  C   UNK d   1      13.732  67.112 -16.813  0.00  0.00    -0.043 A 
ATOM      6  C   UNK d   1      12.650  67.238 -15.909  0.00  0.00     0.017 A 
ATOM      7  C   UNK d   1      12.258  68.484 -15.504  0.00  0.00     0.113 A 
ATOM      8  C   UNK d   1      12.956  69.580 -16.007  0.00  0.00     0.139 A 
ATOM      9  C   UNK d   1      14.006  69.432 -16.883  0.00  0.00     0.108 A 
ATOM     10  C   UNK d   1      14.413  68.179 -17.302  0.00  0.00     0.047 A 
ATOM     11  O   UNK d   1      14.491  70.684 -17.198  0.00  0.00    -0.323 OA
ATOM     12  C   UNK d   1      13.571  71.649 -16.750  0.00  0.00     0.352 C 
ATOM     13  O   UNK d   1      12.803  70.923 -15.791  0.00  0.00    -0.320 OA
ATOM     14  C   UNK d   1      10.698  66.082 -17.495  0.00  0.00     0.270 C 
ATOM     15  H   UNK d   1      11.210  64.413 -16.480  0.00  0.00     0.280 HD
ENDROOT
BRANCH   1  16
ATOM     16  C   UNK d   1      11.183  65.776 -14.409  0.00  0.00     0.208 C 
ATOM     17  C   UNK d   1      10.312  64.563 -14.803  0.00  0.00     0.261 C 
ATOM     18  N   UNK d   1      11.035  63.348 -14.908  0.00  0.00    -0.187 NA
ATOM     19  O   UNK d   1       9.099  64.670 -15.001  0.00  0.00    -0.270 OA
ATOM     20  C   UNK d   1      12.067  63.030 -14.214  0.00  0.00     0.190 C 
ATOM     21  S   UNK d   1      12.916  61.471 -14.416  0.00  0.00    -0.010 SA
ATOM     22  N   UNK d   1      12.499  64.029 -13.262  0.00  0.00    -0.259 N 
ATOM     23  C   UNK d   1      11.794  65.256 -13.148  0.00  0.00     0.246 C 
ATOM     24  O   UNK d   1      11.738  65.789 -12.038  0.00  0.00    -0.272 OA
BRANCH  22  25
ATOM     25  C   UNK d   1      13.609  63.797 -12.444  0.00  0.00     0.044 A 
ATOM     26  C   UNK d   1      14.632  64.754 -12.454  0.00  0.00     0.031 A 
ATOM     27  C   UNK d   1      15.757  64.594 -11.674  0.00  0.00     0.021 A 
ATOM     28  C   UNK d   1      15.873  63.466 -10.869  0.00  0.00     0.011 A 
ATOM     29  C   UNK d   1      14.844  62.514 -10.866  0.00  0.00     0.021 A 
ATOM     30 Br   UNK d   1      17.397  63.209  -9.785  0.00  0.00    -0.051 Br
ATOM     31  C   UNK d   1      13.730  62.690 -11.650  0.00  0.00     0.031 A 
ENDBRANCH  22  25
ENDBRANCH   1  16
BRANCH   7  32
ATOM     32  O   UNK d   1      11.199  68.667 -14.627  0.00  0.00    -0.352 OA
ATOM     33  C   UNK d   1      11.446  69.298 -13.375  0.00  0.00     0.210 C 
ENDBRANCH   7  32
TORSDOF 3
ENDMDL
