/Users/jonathanwahrer/Desktop/Msc/3_Semester/Drug_Design_Praktikum/waehrer_HTS_screening/HTS_experiment/out/docking_results/vina_output/3sx0/1143_docked.pdbqt
 OpenBabel03192222193D

 33 37  0  0  1  0  0  0  0  0999 V2000
   12.1060   65.9480  -15.5230 C   0  0  1  0  0  3  0  0  0  0  0  0
   11.6420   65.3200  -16.7530 N   0  0  0  0  0  4  0  0  0  0  0  0
   12.7720   65.0200  -17.6160 C   0  0  0  0  0  2  0  0  0  0  0  0
   14.0550   65.6950  -17.2080 C   0  0  0  0  0  2  0  0  0  0  0  0
   13.7320   67.1120  -16.8130 C   0  0  0  0  0  0  0  0  0  0  0  0
   12.6500   67.2380  -15.9090 C   0  0  0  0  0  0  0  0  0  0  0  0
   12.2580   68.4840  -15.5040 C   0  0  0  0  0  0  0  0  0  0  0  0
   12.9560   69.5800  -16.0070 C   0  0  0  0  0  0  0  0  0  0  0  0
   14.0060   69.4320  -16.8830 C   0  0  0  0  0  0  0  0  0  0  0  0
   14.4130   68.1790  -17.3020 C   0  0  0  0  0  3  0  0  0  0  0  0
   14.4910   70.6840  -17.1980 O   0  0  0  0  0  0  0  0  0  0  0  0
   13.5710   71.6490  -16.7500 C   0  0  0  0  0  2  0  0  0  0  0  0
   12.8030   70.9230  -15.7910 O   0  0  0  0  0  0  0  0  0  0  0  0
   10.6980   66.0820  -17.4950 C   0  0  0  0  0  1  0  0  0  0  0  0
   11.2100   64.4130  -16.4800 H   0  0  0  0  0  0  0  0  0  0  0  0
   11.1830   65.7760  -14.4090 C   0  0  1  0  0  3  0  0  0  0  0  0
   10.3120   64.5630  -14.8030 C   0  0  0  0  0  0  0  0  0  0  0  0
   11.0350   63.3480  -14.9080 N   0  0  0  0  0  2  0  0  0  0  0  0
    9.0990   64.6700  -15.0010 O   0  0  0  0  0  0  0  0  0  0  0  0
   12.0670   63.0300  -14.2140 C   0  0  0  0  0  0  0  0  0  0  0  0
   12.9160   61.4710  -14.4160 S   0  0  0  0  0  0  0  0  0  0  0  0
   12.4990   64.0290  -13.2620 N   0  0  0  0  0  0  0  0  0  0  0  0
   11.7940   65.2560  -13.1480 C   0  0  0  0  0  0  0  0  0  0  0  0
   11.7380   65.7890  -12.0380 O   0  0  0  0  0  0  0  0  0  0  0  0
   13.6090   63.7970  -12.4440 C   0  0  0  0  0  0  0  0  0  0  0  0
   14.6320   64.7540  -12.4540 C   0  0  0  0  0  3  0  0  0  0  0  0
   15.7570   64.5940  -11.6740 C   0  0  0  0  0  3  0  0  0  0  0  0
   15.8730   63.4660  -10.8690 C   0  0  0  0  0  0  0  0  0  0  0  0
   14.8440   62.5140  -10.8660 C   0  0  0  0  0  3  0  0  0  0  0  0
   17.3970   63.2090   -9.7850 Br  0  0  0  0  0  0  0  0  0  0  0  0
   13.7300   62.6900  -11.6500 C   0  0  0  0  0  3  0  0  0  0  0  0
   11.1990   68.6670  -14.6270 O   0  0  0  0  0  0  0  0  0  0  0  0
   11.4460   69.2980  -13.3750 C   0  0  0  0  0  1  0  0  0  0  0  0
  1  6  1  6  0  0  0
  1 16  1  0  0  0  0
  2 15  1  0  0  0  0
  2  1  1  0  0  0  0
  3  4  1  0  0  0  0
  3  2  1  0  0  0  0
  4  5  1  0  0  0  0
  5  6  1  0  0  0  0
  6  7  2  0  0  0  0
  7 32  1  0  0  0  0
  8 13  1  0  0  0  0
  8  7  1  0  0  0  0
  9  8  2  0  0  0  0
 10  9  1  0  0  0  0
 10  5  2  0  0  0  0
 11  9  1  0  0  0  0
 11 12  1  0  0  0  0
 12 13  1  0  0  0  0
 14  2  1  0  0  0  0
 16 17  1  6  0  0  0
 16 23  1  0  0  0  0
 18 17  1  0  0  0  0
 18 20  1  0  0  0  0
 19 17  2  0  0  0  0
 20 22  1  0  0  0  0
 21 20  2  0  0  0  0
 22 23  1  0  0  0  0
 22 25  1  0  0  0  0
 23 24  2  0  0  0  0
 25 31  1  0  0  0  0
 26 25  2  0  0  0  0
 26 27  1  0  0  0  0
 27 28  2  0  0  0  0
 28 29  1  0  0  0  0
 28 30  1  0  0  0  0
 31 29  2  0  0  0  0
 32 33  1  0  0  0  0
M  END
>  <Pose>
1

>  <Score>
-3.192

$$$$
