MODEL 1
REMARK VINA RESULT:    -6.644      0.000      0.000
REMARK INTER + INTRA:          -7.006
REMARK INTER:                  -7.033
REMARK INTRA:                   0.027
REMARK UNBOUND:                 0.027
REMARK  1 active torsions:
REMARK  status: ('A' for Active; 'I' for Inactive)
REMARK    1  A    between atoms: N_11  and  C_14 
ROOT
ATOM      1  S   UNK d   1      22.893  64.972  -6.432  0.00  0.00     0.148 S 
ATOM      2  O   UNK d   1      23.125  66.413  -6.082  0.00  0.00    -0.228 OA
ATOM      3  O   UNK d   1      23.257  64.057  -5.296  0.00  0.00    -0.228 OA
ATOM      4  C   UNK d   1      21.206  64.688  -6.925  0.00  0.00     0.175 C 
ATOM      5  C   UNK d   1      21.238  63.476  -7.832  0.00  0.00     0.195 C 
ATOM      6  N   UNK d   1      21.880  63.843  -9.078  0.00  0.00    -0.318 N 
ATOM      7  C   UNK d   1      23.002  64.758  -9.087  0.00  0.00     0.143 C 
ATOM      8  C   UNK d   1      23.882  64.508  -7.860  0.00  0.00     0.160 C 
ATOM      9  C   UNK d   1      21.166  63.138 -10.086  0.00  0.00     0.328 C 
ATOM     10  O   UNK d   1      21.542  62.972 -11.296  0.00  0.00    -0.246 OA
ATOM     11  N   UNK d   1      19.947  62.620  -9.569  0.00  0.00    -0.259 N 
ATOM     12  C   UNK d   1      19.897  63.013  -8.206  0.00  0.00     0.252 C 
ATOM     13  O   UNK d   1      18.892  62.980  -7.437  0.00  0.00    -0.270 OA
ENDROOT
BRANCH  11  14
ATOM     14  C   UNK d   1      18.935  61.843 -10.269  0.00  0.00     0.135 C 
ATOM     15  C   UNK d   1      18.481  60.656  -9.437  0.00  0.00     0.058 C 
ATOM     16  C   UNK d   1      17.502  59.877 -10.318  0.00  0.00     0.178 C 
ATOM     17  O   UNK d   1      16.371  60.714 -10.481  0.00  0.00    -0.349 OA
ATOM     18  C   UNK d   1      16.520  62.088 -10.633  0.00  0.00     0.094 A 
ATOM     19  C   UNK d   1      17.748  62.677 -10.537  0.00  0.00     0.000 A 
ATOM     20  C   UNK d   1      15.369  62.820 -10.883  0.00  0.00     0.044 A 
ATOM     21  C   UNK d   1      17.895  64.028 -10.686  0.00  0.00     0.012 A 
ATOM     22  C   UNK d   1      16.779  64.789 -10.935  0.00  0.00     0.002 A 
ATOM     23  C   UNK d   1      15.551  64.184 -11.029  0.00  0.00     0.022 A 
ATOM     24 Br   UNK d   1      13.663  61.994 -11.015  0.00  0.00    -0.048 Br
ENDBRANCH  11  14
TORSDOF 1
ENDMDL
