/Users/jonathanwahrer/Desktop/Msc/3_Semester/Drug_Design_Praktikum/waehrer_HTS_screening/HTS_experiment/out/docking_results/vina_output/3sx0/1151_docked.pdbqt
 OpenBabel03192222193D

 24 27  0  0  1  0  0  0  0  0999 V2000
   22.8930   64.9720   -6.4320 S   0  0  0  0  0  0  0  0  0  0  0  0
   23.1250   66.4130   -6.0820 O   0  0  0  0  0  0  0  0  0  0  0  0
   23.2570   64.0570   -5.2960 O   0  0  0  0  0  0  0  0  0  0  0  0
   21.2060   64.6880   -6.9250 C   0  0  0  0  0  2  0  0  0  0  0  0
   21.2380   63.4760   -7.8320 C   0  0  2  0  0  3  0  0  0  0  0  0
   21.8800   63.8430   -9.0780 N   0  0  0  0  0  0  0  0  0  0  0  0
   23.0020   64.7580   -9.0870 C   0  0  0  0  0  2  0  0  0  0  0  0
   23.8820   64.5080   -7.8600 C   0  0  0  0  0  2  0  0  0  0  0  0
   21.1660   63.1380  -10.0860 C   0  0  0  0  0  0  0  0  0  0  0  0
   21.5420   62.9720  -11.2960 O   0  0  0  0  0  0  0  0  0  0  0  0
   19.9470   62.6200   -9.5690 N   0  0  0  0  0  0  0  0  0  0  0  0
   19.8970   63.0130   -8.2060 C   0  0  0  0  0  0  0  0  0  0  0  0
   18.8920   62.9800   -7.4370 O   0  0  0  0  0  0  0  0  0  0  0  0
   18.9350   61.8430  -10.2690 C   0  0  1  0  0  3  0  0  0  0  0  0
   18.4810   60.6560   -9.4370 C   0  0  0  0  0  2  0  0  0  0  0  0
   17.5020   59.8770  -10.3180 C   0  0  0  0  0  2  0  0  0  0  0  0
   16.3710   60.7140  -10.4810 O   0  0  0  0  0  0  0  0  0  0  0  0
   16.5200   62.0880  -10.6330 C   0  0  0  0  0  0  0  0  0  0  0  0
   17.7480   62.6770  -10.5370 C   0  0  0  0  0  0  0  0  0  0  0  0
   15.3690   62.8200  -10.8830 C   0  0  0  0  0  0  0  0  0  0  0  0
   17.8950   64.0280  -10.6860 C   0  0  0  0  0  3  0  0  0  0  0  0
   16.7790   64.7890  -10.9350 C   0  0  0  0  0  3  0  0  0  0  0  0
   15.5510   64.1840  -11.0290 C   0  0  0  0  0  3  0  0  0  0  0  0
   13.6630   61.9940  -11.0150 Br  0  0  0  0  0  0  0  0  0  0  0  0
  1  2  2  0  0  0  0
  1  3  2  0  0  0  0
  4  1  1  0  0  0  0
  5  4  1  1  0  0  0
  6  5  1  0  0  0  0
  7  6  1  0  0  0  0
  7  8  1  0  0  0  0
  8  1  1  0  0  0  0
  9 11  1  0  0  0  0
  9  6  1  0  0  0  0
 10  9  2  0  0  0  0
 11 12  1  0  0  0  0
 12  5  1  0  0  0  0
 12 13  2  0  0  0  0
 14 11  1  1  0  0  0
 14 15  1  0  0  0  0
 16 15  1  0  0  0  0
 17 16  1  0  0  0  0
 18 19  1  0  0  0  0
 18 17  1  0  0  0  0
 19 14  1  0  0  0  0
 20 18  2  0  0  0  0
 21 19  2  0  0  0  0
 22 21  1  0  0  0  0
 23 22  2  0  0  0  0
 23 20  1  0  0  0  0
 24 20  1  0  0  0  0
M  END
>  <Pose>
1

>  <Score>
-6.644

$$$$
