/Users/jonathanwahrer/Desktop/Msc/3_Semester/Drug_Design_Praktikum/waehrer_HTS_screening/HTS_experiment/out/docking_results/vina_output/3sx0/1157_docked.pdbqt
 OpenBabel03192222193D

 24 27  0  0  1  0  0  0  0  0999 V2000
   21.5470   65.7210   -6.8730 C   0  0  2  0  0  3  0  0  0  0  0  0
   21.7420   64.5150   -5.9910 C   0  0  0  0  0  2  0  0  0  0  0  0
   23.0000   63.9830   -6.4950 N   0  0  0  0  0  0  0  0  0  0  0  0
   22.8660   63.9900   -7.9320 C   0  0  0  0  0  2  0  0  0  0  0  0
   21.9570   65.1700   -8.2220 C   0  0  0  0  0  2  0  0  0  0  0  0
   22.4790   66.7890   -6.5430 N   0  0  0  0  0  0  0  0  0  0  0  0
   22.1300   68.1520   -6.6720 C   0  0  0  0  0  0  0  0  0  0  0  0
   21.0040   68.5370   -7.0740 O   0  0  0  0  0  0  0  0  0  0  0  0
   23.4390   66.5600   -6.2000 H   0  0  0  0  0  0  0  0  0  0  0  0
   23.0920   69.2250   -6.3310 C   0  0  0  0  0  0  0  0  0  0  0  0
   24.1720   70.0750   -7.3420 S   0  0  0  0  0  0  0  0  0  0  0  0
   24.8850   71.1000   -6.1820 C   0  0  0  0  0  3  0  0  0  0  0  0
   24.2480   70.7440   -5.0210 C   0  0  0  0  0  0  0  0  0  0  0  0
   23.3280   69.7810   -5.1010 C   0  0  0  0  0  3  0  0  0  0  0  0
   24.7220   71.6490   -3.3720 Br  0  0  0  0  0  0  0  0  0  0  0  0
   24.1060   63.5560   -5.6830 C   0  0  0  0  0  0  0  0  0  0  0  0
   25.3310   63.3840   -6.2140 N   0  0  0  0  0  0  0  0  0  0  0  0
   26.3470   62.9830   -5.4290 C   0  0  0  0  0  3  0  0  0  0  0  0
   26.1800   62.7380   -4.0900 C   0  0  0  0  0  3  0  0  0  0  0  0
   24.9640   62.9050   -3.5450 N   0  0  0  0  0  0  0  0  0  0  0  0
   23.9530   63.3070   -4.3410 C   0  0  0  0  0  0  0  0  0  0  0  0
   24.5100   62.7430   -2.2790 C   0  0  0  0  0  3  0  0  0  0  0  0
   22.8820   63.3840   -3.5270 N   0  0  0  0  0  0  0  0  0  0  0  0
   23.2010   63.0480   -2.2880 N   0  0  0  0  0  0  0  0  0  0  0  0
  1  6  1  1  0  0  0
  1  2  1  0  0  0  0
  3  2  1  0  0  0  0
  3 16  1  0  0  0  0
  4  3  1  0  0  0  0
  5  4  1  0  0  0  0
  5  1  1  0  0  0  0
  6  9  1  0  0  0  0
  7  6  1  0  0  0  0
  7 10  1  0  0  0  0
  8  7  2  0  0  0  0
 10 14  2  0  0  0  0
 11 10  1  0  0  0  0
 11 12  1  0  0  0  0
 12 13  2  0  0  0  0
 13 15  1  0  0  0  0
 14 13  1  0  0  0  0
 16 21  1  0  0  0  0
 17 16  2  0  0  0  0
 17 18  1  0  0  0  0
 18 19  2  0  0  0  0
 19 20  1  0  0  0  0
 20 22  1  0  0  0  0
 21 20  1  0  0  0  0
 21 23  2  0  0  0  0
 23 24  1  0  0  0  0
 24 22  2  0  0  0  0
M  END
>  <Pose>
1

>  <Score>
-6.052

$$$$
