/Users/jonathanwahrer/Desktop/Msc/3_Semester/Drug_Design_Praktikum/waehrer_HTS_screening/HTS_experiment/out/docking_results/vina_output/3sx0/1160_docked.pdbqt
 OpenBabel03192222203D

 25 28  0  0  1  0  0  0  0  0999 V2000
   17.7120   63.4970  -10.7380 C   0  0  0  0  0  0  0  0  0  0  0  0
   18.8340   64.1000  -10.3050 N   0  0  0  0  0  0  0  0  0  0  0  0
   19.7430   63.1800   -9.9390 C   0  0  0  0  0  0  0  0  0  0  0  0
   19.1470   61.9960  -10.1590 N   0  0  0  0  0  0  0  0  0  0  0  0
   17.9410   62.2090  -10.6340 O   0  0  0  0  0  0  0  0  0  0  0  0
   21.0910   63.3910   -9.4120 C   0  0  0  0  0  0  0  0  0  0  0  0
   21.4090   63.6930   -8.1420 N   0  0  0  0  0  0  0  0  0  0  0  0
   22.7350   63.8150   -8.0170 N   0  0  0  0  0  0  0  0  0  0  0  0
   23.2920   63.5880   -9.2280 C   0  0  0  0  0  3  0  0  0  0  0  0
   22.2620   63.3320  -10.0680 N   0  0  0  0  0  0  0  0  0  0  0  0
   23.4590   64.1330   -6.7980 C   0  0  0  0  0  2  0  0  0  0  0  0
   22.6150   65.0150   -5.9640 C   0  0  0  0  0  0  0  0  0  0  0  0
   22.9270   66.2210   -5.8610 O   0  0  0  0  0  0  0  0  0  0  0  0
   21.4800   64.4900   -5.3040 N   0  0  0  0  0  0  0  0  0  0  0  0
   20.5580   65.0080   -5.2870 H   0  0  0  0  0  0  0  0  0  0  0  0
   21.4700   63.5720   -4.7970 H   0  0  0  0  0  0  0  0  0  0  0  0
   16.4520   64.1510  -11.2390 C   0  0  1  0  0  3  0  0  0  0  0  0
   15.1750   63.4040  -10.8300 C   0  0  1  0  0  3  0  0  0  0  0  0
   15.4910   64.7170  -10.2640 C   0  0  0  0  0  2  0  0  0  0  0  0
   14.1490   63.3510  -11.9470 C   0  0  0  0  0  0  0  0  0  0  0  0
   13.6740   64.4750  -12.5310 C   0  0  0  0  0  3  0  0  0  0  0  0
   12.7540   64.3070  -13.5330 C   0  0  0  0  0  0  0  0  0  0  0  0
   12.5800   62.6200  -13.6310 S   0  0  0  0  0  0  0  0  0  0  0  0
   11.8870   65.6910  -14.5620 Br  0  0  0  0  0  0  0  0  0  0  0  0
   13.6690   62.1580  -12.4090 C   0  0  0  0  0  3  0  0  0  0  0  0
  1  5  1  0  0  0  0
  1  2  2  0  0  0  0
  2  3  1  0  0  0  0
  3  6  1  0  0  0  0
  4  3  2  0  0  0  0
  5  4  1  0  0  0  0
  6  7  2  0  0  0  0
  7  8  1  0  0  0  0
  8 11  1  0  0  0  0
  9  8  1  0  0  0  0
 10  6  1  0  0  0  0
 10  9  2  0  0  0  0
 11 12  1  0  0  0  0
 12 13  2  0  0  0  0
 12 14  1  0  0  0  0
 14 15  1  0  0  0  0
 14 16  1  0  0  0  0
 17 18  1  0  0  0  0
 17  1  1  1  0  0  0
 17 19  1  0  0  0  0
 18 20  1  6  0  0  0
 18 19  1  0  0  0  0
 21 20  1  0  0  0  0
 22 21  2  0  0  0  0
 23 22  1  0  0  0  0
 23 25  1  0  0  0  0
 24 22  1  0  0  0  0
 25 20  2  0  0  0  0
M  END
>  <Pose>
1

>  <Score>
-8.580

$$$$
