MODEL 1
REMARK VINA RESULT:    -8.128      0.000      0.000
REMARK INTER + INTRA:         -10.864
REMARK INTER:                 -11.216
REMARK INTRA:                   0.352
REMARK UNBOUND:                 0.352
REMARK  7 active torsions:
REMARK  status: ('A' for Active; 'I' for Inactive)
REMARK    1  A    between atoms: C_5  and  C_6 
REMARK    2  A    between atoms: C_6  and  C_8 
REMARK    3  A    between atoms: C_8  and  N_9 
REMARK    4  A    between atoms: N_16  and  C_19 
REMARK    5  A    between atoms: C_17  and  N_18 
REMARK    6  A    between atoms: C_19  and  C_20 
REMARK    7  A    between atoms: C_20  and  N_21 
ROOT
ATOM      1  N   UNK d   1      21.029  63.868 -10.143  0.00  0.00    -0.172 N 
ATOM      2  C   UNK d   1      21.749  64.084  -9.016  0.00  0.00     0.079 A 
ATOM      3  C   UNK d   1      23.050  63.743  -9.229  0.00  0.00     0.079 A 
ATOM      4  C   UNK d   1      23.985  63.879  -8.218  0.00  0.00     0.032 A 
ATOM      5  C   UNK d   1      23.581  64.363  -6.995  0.00  0.00     0.002 A 
ATOM      6  C   UNK d   1      22.277  64.714  -6.756  0.00  0.00     0.002 A 
ATOM      7  C   UNK d   1      21.371  64.566  -7.783  0.00  0.00     0.032 A 
ATOM      8  N   UNK d   1      23.132  63.313 -10.491  0.00  0.00    -0.178 N 
ATOM      9  C   UNK d   1      21.889  63.391 -11.048  0.00  0.00     0.703 A 
ENDROOT
BRANCH   1  10
ATOM     10  C   UNK d   1      19.617  64.124 -10.269  0.00  0.00     0.232 C 
BRANCH  10  11
ATOM     11  C   UNK d   1      18.815  62.881 -10.151  0.00  0.00     0.185 C 
ATOM     12  O   UNK d   1      19.319  61.827  -9.689  0.00  0.00    -0.290 OA
BRANCH  11  13
ATOM     13  C   UNK d   1      17.409  62.823 -10.565  0.00  0.00     0.053 A 
ATOM     14  S   UNK d   1      16.403  64.046 -11.217  0.00  0.00    -0.079 SA
ATOM     15  C   UNK d   1      14.961  63.163 -11.395  0.00  0.00     0.052 A 
ATOM     16  C   UNK d   1      15.308  61.923 -10.935  0.00  0.00     0.028 A 
ATOM     17 Br   UNK d   1      13.290  63.780 -12.074  0.00  0.00    -0.043 Br
ATOM     18  C   UNK d   1      16.560  61.746 -10.510  0.00  0.00     0.024 A 
ENDBRANCH  11  13
ENDBRANCH  10  11
ENDBRANCH   1  10
BRANCH   9  19
ATOM     19  N   UNK d   1      21.700  63.021 -12.260  0.00  0.00    -0.117 NA
ATOM     20  H   UNK d   1      21.453  63.586 -13.071  0.00  0.00     0.206 HD
ENDBRANCH   9  19
BRANCH   8  21
ATOM     21  C   UNK d   1      24.357  62.860 -11.135  0.00  0.00     0.175 C 
BRANCH  21  22
ATOM     22  C   UNK d   1      24.137  62.888 -12.655  0.00  0.00     0.255 C 
BRANCH  22  23
ATOM     23  N   UNK d   1      24.494  64.154 -13.227  0.00  0.00    -0.070 N 
ATOM     24  C   UNK d   1      25.907  64.463 -13.140  0.00  0.00     0.235 C 
ATOM     25  C   UNK d   1      26.761  63.348 -13.674  0.00  0.00     0.028 C 
ATOM     26  C   UNK d   1      26.311  62.843 -15.003  0.00  0.00     0.003 C 
ATOM     27  C   UNK d   1      24.864  62.999 -15.304  0.00  0.00     0.028 C 
ATOM     28  C   UNK d   1      24.168  64.129 -14.632  0.00  0.00     0.235 C 
ATOM     29  H   UNK d   1      24.002  64.929 -12.733  0.00  0.00     0.279 HD
ENDBRANCH  22  23
ENDBRANCH  21  22
ENDBRANCH   8  21
TORSDOF 7
ENDMDL
