MODEL 1
REMARK VINA RESULT:    -5.056      0.000      0.000
REMARK INTER + INTRA:          -7.857
REMARK INTER:                  -7.126
REMARK INTRA:                  -0.731
REMARK UNBOUND:                -0.731
REMARK  7 active torsions:
REMARK  status: ('A' for Active; 'I' for Inactive)
REMARK    1  A    between atoms: C_5  and  C_6 
REMARK    2  A    between atoms: C_6  and  C_7 
REMARK    3  A    between atoms: C_8  and  C_23 
REMARK    4  A    between atoms: N_9  and  C_14 
REMARK    5  A    between atoms: C_14  and  C_15 
REMARK    6  A    between atoms: C_15  and  C_16 
REMARK    7  A    between atoms: C_16  and  N_17 
ROOT
ATOM      1  C   UNK d   1      12.131  63.643 -14.553  0.00  0.00     0.063 C 
ATOM      2  C   UNK d   1      12.621  64.803 -13.744  0.00  0.00     0.161 C 
ATOM      3  N   UNK d   1      13.681  64.218 -12.967  0.00  0.00    -0.332 N 
ATOM      4  C   UNK d   1      13.248  62.882 -12.680  0.00  0.00     0.295 C 
ATOM      5  O   UNK d   1      13.645  62.169 -11.740  0.00  0.00    -0.264 OA
ATOM      6  C   UNK d   1      12.258  62.489 -13.673  0.00  0.00     0.250 C 
ATOM      7  O   UNK d   1      11.607  61.418 -13.813  0.00  0.00    -0.282 OA
ENDROOT
BRANCH   3   8
ATOM      8  C   UNK d   1      14.885  64.886 -12.571  0.00  0.00     0.129 C 
BRANCH   8   9
ATOM      9  C   UNK d   1      15.144  64.923 -11.122  0.00  0.00     0.048 C 
BRANCH   9  10
ATOM     10  C   UNK d   1      16.243  64.153 -10.600  0.00  0.00     0.236 C 
BRANCH  10  11
ATOM     11  N   UNK d   1      17.120  63.305 -11.254  0.00  0.00    -0.067 N 
ATOM     12  C   UNK d   1      17.254  61.999 -10.509  0.00  0.00     0.261 C 
ATOM     13  C   UNK d   1      18.190  62.185  -9.361  0.00  0.00     0.195 C 
ATOM     14  O   UNK d   1      19.459  62.389  -9.891  0.00  0.00    -0.388 OA
ATOM     15  C   UNK d   1      19.417  63.674 -10.476  0.00  0.00     0.195 C 
ATOM     16  C   UNK d   1      18.435  63.709 -11.614  0.00  0.00     0.261 C 
ATOM     17  H   UNK d   1      16.684  62.959 -12.143  0.00  0.00     0.280 HD
ENDBRANCH  10  11
ENDBRANCH   9  10
ENDBRANCH   8   9
ENDBRANCH   3   8
BRANCH   2  18
ATOM     18  C   UNK d   1      13.009  65.925 -14.613  0.00  0.00    -0.030 A 
ATOM     19  C   UNK d   1      14.029  65.936 -15.524  0.00  0.00     0.011 A 
ATOM     20  C   UNK d   1      14.362  67.011 -16.316  0.00  0.00     0.019 A 
ATOM     21  C   UNK d   1      13.629  68.165 -16.198  0.00  0.00     0.011 A 
ATOM     22  C   UNK d   1      12.593  68.217 -15.302  0.00  0.00     0.019 A 
ATOM     23 Br   UNK d   1      14.094  69.659 -17.304  0.00  0.00    -0.051 Br
ATOM     24  C   UNK d   1      12.287  67.123 -14.525  0.00  0.00     0.011 A 
ENDBRANCH   2  18
BRANCH   1  25
ATOM     25  C   UNK d   1      11.660  63.717 -15.762  0.00  0.00     0.139 C 
ATOM     26  O   UNK d   1      12.320  63.039 -16.801  0.00  0.00    -0.190 OA
BRANCH  25  27
ATOM     27  C   UNK d   1      10.441  64.505 -16.051  0.00  0.00     0.068 A 
ATOM     28  S   UNK d   1      10.210  65.773 -17.179  0.00  0.00    -0.070 SA
ATOM     29  C   UNK d   1       8.551  66.056 -16.916  0.00  0.00     0.072 A 
ATOM     30  N   UNK d   1       8.255  65.171 -15.986  0.00  0.00    -0.250 NA
ATOM     31  C   UNK d   1       7.622  67.050 -17.560  0.00  0.00     0.078 C 
ATOM     32  C   UNK d   1       9.176  64.378 -15.530  0.00  0.00     0.051 A 
ATOM     33  C   UNK d   1       8.860  63.311 -14.484  0.00  0.00     0.072 C 
ENDBRANCH  25  27
ENDBRANCH   1  25
TORSDOF 7
ENDMDL
