/Users/jonathanwahrer/Desktop/Msc/3_Semester/Drug_Design_Praktikum/waehrer_HTS_screening/HTS_experiment/out/docking_results/vina_output/3sx0/1180_docked.pdbqt
 OpenBabel03192222213D

 32 35  0  0  1  0  0  0  0  0999 V2000
   20.8840   63.6750   -8.9550 C   0  0  1  0  0  3  0  0  0  0  0  0
   20.9720   62.8310  -10.1850 C   0  0  1  0  0  3  0  0  0  0  0  0
   19.6170   62.7860  -10.5770 N   0  0  0  0  0  0  0  0  0  0  0  0
   18.9390   62.4560   -9.3020 C   0  0  0  0  0  0  0  0  0  0  0  0
   17.8670   61.8090   -9.1580 O   0  0  0  0  0  0  0  0  0  0  0  0
   19.7690   63.0390   -8.2540 C   0  0  0  0  0  0  0  0  0  0  0  0
   19.6200   63.0340   -6.9930 O   0  0  0  0  0  0  0  0  0  0  0  0
   21.6380   64.6880   -8.5830 C   0  0  1  0  0  3  0  0  0  0  0  0
   21.4640   65.9310   -9.1650 O   0  0  0  0  0  1  0  0  0  0  0  0
   22.6440   64.4240   -7.5430 C   0  0  0  0  0  0  0  0  0  0  0  0
   23.6230   63.0240   -7.3180 S   0  0  0  0  0  0  0  0  0  0  0  0
   24.5210   63.5450   -5.9700 C   0  0  0  0  0  0  0  0  0  0  0  0
   24.0350   64.7520   -5.7580 N   0  0  0  0  0  0  0  0  0  0  0  0
   25.5950   62.8170   -5.2080 C   0  0  0  0  0  1  0  0  0  0  0  0
   23.0990   65.2230   -6.5220 C   0  0  0  0  0  0  0  0  0  0  0  0
   22.5570   66.6310   -6.3210 C   0  0  0  0  0  1  0  0  0  0  0  0
   22.0810   63.0410  -11.0500 C   0  0  0  0  0  0  0  0  0  0  0  0
   21.8490   63.2200  -12.4170 C   0  0  0  0  0  3  0  0  0  0  0  0
   22.8610   63.4100  -13.3220 C   0  0  0  0  0  3  0  0  0  0  0  0
   24.1560   63.4250  -12.8500 C   0  0  0  0  0  0  0  0  0  0  0  0
   24.4060   63.2500  -11.5050 C   0  0  0  0  0  3  0  0  0  0  0  0
   25.6270   63.6850  -14.0450 Br  0  0  0  0  0  0  0  0  0  0  0  0
   23.3740   63.0590  -10.6160 C   0  0  0  0  0  3  0  0  0  0  0  0
   18.7970   62.8770  -11.7370 C   0  0  0  0  0  2  0  0  0  0  0  0
   17.9400   64.0500  -11.9480 C   0  0  0  0  0  2  0  0  0  0  0  0
   16.5760   64.0560  -11.6060 N   0  0  0  0  0  4  0  0  0  0  0  0
   16.0330   62.7610  -11.2570 C   0  0  0  0  0  2  0  0  0  0  0  0
   14.5340   62.9650  -11.0620 C   0  0  0  0  0  2  0  0  0  0  0  0
   14.2310   64.3170  -10.9080 O   0  0  0  0  0  0  0  0  0  0  0  0
   15.0720   64.7770   -9.8750 C   0  0  0  0  0  2  0  0  0  0  0  0
   16.5100   64.8030  -10.3070 C   0  0  0  0  0  2  0  0  0  0  0  0
   16.0140   64.6020  -12.2670 H   0  0  0  0  0  0  0  0  0  0  0  0
  1  8  1  1  0  0  0
  1  6  1  0  0  0  0
  2 17  1  6  0  0  0
  2  1  1  0  0  0  0
  3  2  1  0  0  0  0
  3  4  1  0  0  0  0
  4  5  2  0  0  0  0
  4  6  1  0  0  0  0
  6  7  2  0  0  0  0
  8  9  1  1  0  0  0
  8 10  1  0  0  0  0
 10 11  1  0  0  0  0
 10 15  2  0  0  0  0
 11 12  1  0  0  0  0
 12 13  2  0  0  0  0
 12 14  1  0  0  0  0
 15 16  1  0  0  0  0
 15 13  1  0  0  0  0
 17 23  1  0  0  0  0
 18 17  2  0  0  0  0
 19 20  2  0  0  0  0
 19 18  1  0  0  0  0
 20 21  1  0  0  0  0
 21 23  2  0  0  0  0
 22 20  1  0  0  0  0
 24  3  1  0  0  0  0
 25 24  1  0  0  0  0
 25 26  1  0  0  0  0
 26 27  1  0  0  0  0
 26 31  1  0  0  0  0
 27 28  1  0  0  0  0
 28 29  1  0  0  0  0
 29 30  1  0  0  0  0
 31 30  1  0  0  0  0
 32 26  1  0  0  0  0
M  END
>  <Pose>
1

>  <Score>
-5.661

$$$$
