MODEL 1
REMARK VINA RESULT:    -5.072      0.000      0.000
REMARK INTER + INTRA:          -5.829
REMARK INTER:                  -5.369
REMARK INTRA:                  -0.460
REMARK UNBOUND:                -0.460
REMARK  1 active torsions:
REMARK  status: ('A' for Active; 'I' for Inactive)
REMARK    1  A    between atoms: C_14  and  C_16 
ROOT
ATOM      1  S   UNK d   1      16.365  60.761 -10.849  0.00  0.00    -0.074 SA
ATOM      2  C   UNK d   1      15.201  62.025 -10.843  0.00  0.00     0.088 A 
ATOM      3  C   UNK d   1      15.957  63.123 -10.534  0.00  0.00     0.073 A 
ATOM      4  C   UNK d   1      17.272  62.935 -10.339  0.00  0.00    -0.023 A 
ATOM      5  C   UNK d   1      17.753  61.660 -10.465  0.00  0.00     0.018 A 
ATOM      6  C   UNK d   1      19.226  61.472 -10.244  0.00  0.00     0.281 C 
ATOM      7  N   UNK d   1      19.934  62.389 -11.134  0.00  0.00    -0.070 N 
ATOM      8  C   UNK d   1      19.512  63.749 -10.998  0.00  0.00     0.239 C 
ATOM      9  C   UNK d   1      18.381  63.917  -9.990  0.00  0.00     0.068 C 
ATOM     10  C   UNK d   1      19.598  61.958 -12.492  0.00  0.00     0.270 C 
ATOM     11  C   UNK d   1      15.186  64.395 -10.455  0.00  0.00     0.256 C 
ATOM     12  O   UNK d   1      15.766  65.486 -10.178  0.00  0.00    -0.267 OA
ATOM     13  N   UNK d   1      13.789  64.362 -10.698  0.00  0.00    -0.332 N 
ATOM     14  C   UNK d   1      13.113  63.332 -11.432  0.00  0.00     0.219 C 
ATOM     15  N   UNK d   1      13.773  62.085 -11.077  0.00  0.00    -0.358 N 
ATOM     16  H   UNK d   1      20.961  62.255 -11.043  0.00  0.00     0.279 HD
ATOM     17  H   UNK d   1      13.220  65.163 -10.300  0.00  0.00     0.165 HD
ATOM     18  H   UNK d   1      13.252  61.190 -10.979  0.00  0.00     0.162 HD
ENDROOT
BRANCH  14  19
ATOM     19  C   UNK d   1      13.188  63.530 -12.900  0.00  0.00    -0.013 A 
ATOM     20  C   UNK d   1      12.899  62.515 -13.788  0.00  0.00     0.033 A 
ATOM     21  C   UNK d   1      12.962  62.681 -15.154  0.00  0.00     0.049 A 
ATOM     22  C   UNK d   1      13.327  63.904 -15.679  0.00  0.00     0.141 A 
ATOM     23 Br   UNK d   1      12.562  61.278 -16.364  0.00  0.00    -0.048 Br
ATOM     24  C   UNK d   1      13.620  64.930 -14.813  0.00  0.00     0.049 A 
ATOM     25  O   UNK d   1      13.393  64.078 -17.054  0.00  0.00    -0.189 OA
ATOM     26  C   UNK d   1      13.554  64.755 -13.444  0.00  0.00     0.033 A 
ATOM     27 Br   UNK d   1      14.123  66.614 -15.588  0.00  0.00    -0.048 Br
ENDBRANCH  14  19
TORSDOF 1
ENDMDL
