MODEL 1
REMARK VINA RESULT:    -4.364      0.000      0.000
REMARK INTER + INTRA:          -4.329
REMARK INTER:                  -5.129
REMARK INTRA:                   0.800
REMARK UNBOUND:                 0.800
REMARK  3 active torsions:
REMARK  status: ('A' for Active; 'I' for Inactive)
REMARK    1  A    between atoms: C_14  and  C_16 
REMARK    2  A    between atoms: C_20  and  O_22 
REMARK    3  A    between atoms: O_22  and  C_23 
ROOT
ATOM      1  S   UNK d   1      18.873  61.356  -9.783  0.00  0.00    -0.074 SA
ATOM      2  C   UNK d   1      20.121  62.458  -9.407  0.00  0.00     0.088 A 
ATOM      3  C   UNK d   1      19.546  63.672  -9.661  0.00  0.00     0.073 A 
ATOM      4  C   UNK d   1      18.262  63.666 -10.100  0.00  0.00    -0.023 A 
ATOM      5  C   UNK d   1      17.660  62.442 -10.250  0.00  0.00     0.018 A 
ATOM      6  C   UNK d   1      16.252  62.302 -10.727  0.00  0.00     0.281 C 
ATOM      7  N   UNK d   1      15.399  63.376 -10.350  0.00  0.00    -0.070 N 
ATOM      8  C   UNK d   1      16.036  64.554  -9.866  0.00  0.00     0.239 C 
ATOM      9  C   UNK d   1      17.375  64.865 -10.458  0.00  0.00     0.068 C 
ATOM     10  C   UNK d   1      14.437  63.677 -11.403  0.00  0.00     0.270 C 
ATOM     11  C   UNK d   1      20.453  64.831  -9.397  0.00  0.00     0.256 C 
ATOM     12  O   UNK d   1      20.032  66.017  -9.597  0.00  0.00    -0.267 OA
ATOM     13  N   UNK d   1      21.767  64.603  -8.928  0.00  0.00    -0.332 N 
ATOM     14  C   UNK d   1      22.459  63.372  -9.238  0.00  0.00     0.219 C 
ATOM     15  N   UNK d   1      21.489  62.320  -8.936  0.00  0.00    -0.358 N 
ATOM     16  H   UNK d   1      14.798  63.013  -9.546  0.00  0.00     0.279 HD
ATOM     17  H   UNK d   1      22.248  65.329  -8.352  0.00  0.00     0.165 HD
ATOM     18  H   UNK d   1      21.700  61.463  -8.400  0.00  0.00     0.162 HD
ENDROOT
BRANCH  14  19
ATOM     19  C   UNK d   1      22.755  63.385 -10.694  0.00  0.00    -0.012 A 
ATOM     20  C   UNK d   1      21.797  63.007 -11.611  0.00  0.00     0.033 A 
ATOM     21  C   UNK d   1      22.051  63.013 -12.965  0.00  0.00     0.051 A 
ATOM     22  C   UNK d   1      23.301  63.406 -13.424  0.00  0.00     0.157 A 
ATOM     23 Br   UNK d   1      20.735  62.494 -14.243  0.00  0.00    -0.048 Br
ATOM     24  C   UNK d   1      24.278  63.788 -12.531  0.00  0.00     0.107 A 
ATOM     25  O   UNK d   1      23.581  63.418 -14.788  0.00  0.00    -0.188 OA
ATOM     26  C   UNK d   1      23.997  63.772 -11.200  0.00  0.00     0.050 A 
BRANCH  24  27
ATOM     27  O   UNK d   1      25.506  64.171 -13.038  0.00  0.00    -0.348 OA
BRANCH  27  28
ATOM     28  C   UNK d   1      26.605  63.339 -13.236  0.00  0.00     0.171 C 
ATOM     29  C   UNK d   1      27.100  63.404 -14.665  0.00  0.00     0.034 C 
ENDBRANCH  27  28
ENDBRANCH  24  27
ENDBRANCH  14  19
TORSDOF 3
ENDMDL
