MODEL 1
REMARK VINA RESULT:    -9.709      0.000      0.000
REMARK INTER + INTRA:         -11.800
REMARK INTER:                 -11.412
REMARK INTRA:                  -0.388
REMARK UNBOUND:                -0.388
REMARK  3 active torsions:
REMARK  status: ('A' for Active; 'I' for Inactive)
REMARK    1  A    between atoms: N_6  and  C_18 
REMARK    2  A    between atoms: C_8  and  C_9 
REMARK    3  A    between atoms: C_12  and  N_15 
ROOT
ATOM      1  S   UNK d   1      23.337  63.540  -8.712  0.00  0.00    -0.087 SA
ATOM      2  C   UNK d   1      22.016  64.068  -7.590  0.00  0.00     0.069 C 
ATOM      3  C   UNK d   1      20.855  63.359  -8.232  0.00  0.00     0.146 C 
ATOM      4  N   UNK d   1      20.993  63.273  -9.654  0.00  0.00    -0.324 N 
ATOM      5  C   UNK d   1      22.248  63.373 -10.122  0.00  0.00     0.154 A 
ATOM      6  N   UNK d   1      22.228  63.303 -11.458  0.00  0.00    -0.300 N 
ATOM      7  C   UNK d   1      20.947  63.154 -11.862  0.00  0.00     0.130 A 
ATOM      8  C   UNK d   1      20.156  63.132 -10.738  0.00  0.00     0.062 A 
ATOM      9  C   UNK d   1      21.767  65.553  -7.695  0.00  0.00     0.023 C 
ENDROOT
BRANCH   8  10
ATOM     10  C   UNK d   1      18.719  62.996 -10.755  0.00  0.00    -0.008 A 
ATOM     11  C   UNK d   1      17.959  64.117 -11.132  0.00  0.00     0.016 A 
ATOM     12  C   UNK d   1      16.592  64.046 -11.209  0.00  0.00     0.037 A 
ATOM     13  C   UNK d   1      15.886  62.903 -10.930  0.00  0.00     0.102 A 
ATOM     14  C   UNK d   1      16.606  61.792 -10.559  0.00  0.00     0.037 A 
ATOM     15  C   UNK d   1      18.003  61.862 -10.481  0.00  0.00     0.016 A 
BRANCH  13  16
ATOM     16  N   UNK d   1      14.475  62.912 -11.031  0.00  0.00    -0.116 N 
ATOM     17  O   UNK d   1      13.805  63.776 -10.455  0.00  0.00    -0.532 OA
ATOM     18  O   UNK d   1      13.854  61.956 -11.774  0.00  0.00    -0.532 OA
ENDBRANCH  13  16
ENDBRANCH   8  10
BRANCH   6  19
ATOM     19  C   UNK d   1      23.351  63.371 -12.329  0.00  0.00     0.041 A 
ATOM     20  C   UNK d   1      24.642  63.276 -11.862  0.00  0.00     0.031 A 
ATOM     21  C   UNK d   1      25.748  63.338 -12.684  0.00  0.00     0.021 A 
ATOM     22  C   UNK d   1      25.576  63.505 -14.041  0.00  0.00     0.011 A 
ATOM     23  C   UNK d   1      24.292  63.605 -14.546  0.00  0.00     0.021 A 
ATOM     24 Br   UNK d   1      27.086  63.596 -15.212  0.00  0.00    -0.051 Br
ATOM     25  C   UNK d   1      23.202  63.539 -13.702  0.00  0.00     0.031 A 
ENDBRANCH   6  19
TORSDOF 3
ENDMDL
