MODEL 1
REMARK VINA RESULT:    -6.588      0.000      0.000
REMARK INTER + INTRA:          -7.539
REMARK INTER:                  -7.743
REMARK INTRA:                   0.204
REMARK UNBOUND:                 0.204
REMARK  3 active torsions:
REMARK  status: ('A' for Active; 'I' for Inactive)
REMARK    1  A    between atoms: N_7  and  C_18 
REMARK    2  A    between atoms: C_8  and  C_10 
REMARK    3  A    between atoms: C_13  and  O_16 
ROOT
ATOM      1  S   UNK d   1      18.563  63.139  -9.061  0.00  0.00    -0.093 SA
ATOM      2  C   UNK d   1      17.028  63.775  -9.791  0.00  0.00     0.084 C 
ATOM      3  C   UNK d   1      17.264  63.914 -11.284  0.00  0.00     0.031 C 
ATOM      4  C   UNK d   1      17.968  62.683 -11.817  0.00  0.00     0.131 C 
ATOM      5  N   UNK d   1      19.391  62.893 -11.607  0.00  0.00    -0.335 N 
ATOM      6  C   UNK d   1      19.793  63.117 -10.353  0.00  0.00     0.154 A 
ATOM      7  N   UNK d   1      21.161  63.292 -10.352  0.00  0.00    -0.290 N 
ATOM      8  C   UNK d   1      21.607  63.177 -11.592  0.00  0.00     0.067 A 
ATOM      9  C   UNK d   1      20.478  62.926 -12.369  0.00  0.00     0.124 A 
ENDROOT
BRANCH   8  10
ATOM     10  C   UNK d   1      22.953  63.273 -12.135  0.00  0.00    -0.007 A 
ATOM     11  C   UNK d   1      23.125  63.635 -13.479  0.00  0.00     0.016 A 
ATOM     12  C   UNK d   1      24.365  63.741 -14.045  0.00  0.00     0.037 A 
ATOM     13  C   UNK d   1      25.528  63.504 -13.348  0.00  0.00     0.068 A 
ATOM     14  C   UNK d   1      25.370  63.148 -12.033  0.00  0.00     0.037 A 
ATOM     15  C   UNK d   1      24.108  63.033 -11.432  0.00  0.00     0.016 A 
BRANCH  13  16
ATOM     16  O   UNK d   1      26.769  63.622 -13.957  0.00  0.00    -0.356 OA
ATOM     17  C   UNK d   1      26.912  63.367 -15.342  0.00  0.00     0.210 C 
ENDBRANCH  13  16
ENDBRANCH   8  10
BRANCH   7  18
ATOM     18  C   UNK d   1      21.887  63.549  -9.152  0.00  0.00     0.042 A 
ATOM     19  C   UNK d   1      21.583  64.643  -8.361  0.00  0.00     0.031 A 
ATOM     20  C   UNK d   1      22.247  64.903  -7.178  0.00  0.00     0.021 A 
ATOM     21  C   UNK d   1      23.244  64.031  -6.789  0.00  0.00     0.011 A 
ATOM     22  C   UNK d   1      23.540  62.944  -7.584  0.00  0.00     0.021 A 
ATOM     23 Br   UNK d   1      24.223  64.311  -5.159  0.00  0.00    -0.051 Br
ATOM     24  C   UNK d   1      22.891  62.666  -8.767  0.00  0.00     0.031 A 
ENDBRANCH   7  18
TORSDOF 3
ENDMDL
