/Users/jonathanwahrer/Desktop/Msc/3_Semester/Drug_Design_Praktikum/waehrer_HTS_screening/HTS_experiment/out/docking_results/vina_output/3sx0/1209_docked.pdbqt
 OpenBabel03192222223D

 24 27  0  0  1  0  0  0  0  0999 V2000
   18.5630   63.1390   -9.0610 S   0  0  0  0  0  0  0  0  0  0  0  0
   17.0280   63.7750   -9.7910 C   0  0  0  0  0  2  0  0  0  0  0  0
   17.2640   63.9140  -11.2840 C   0  0  0  0  0  2  0  0  0  0  0  0
   17.9680   62.6830  -11.8170 C   0  0  0  0  0  2  0  0  0  0  0  0
   19.3910   62.8930  -11.6070 N   0  0  0  0  0  0  0  0  0  0  0  0
   19.7930   63.1170  -10.3530 C   0  0  1  0  0  3  0  0  0  0  0  0
   21.1610   63.2920  -10.3520 N   0  0  0  0  0  0  0  0  0  0  0  0
   21.6070   63.1770  -11.5920 C   0  0  0  0  0  0  0  0  0  0  0  0
   20.4780   62.9260  -12.3690 C   0  0  0  0  0  3  0  0  0  0  0  0
   22.9530   63.2730  -12.1350 C   0  0  0  0  0  0  0  0  0  0  0  0
   23.1250   63.6350  -13.4790 C   0  0  0  0  0  3  0  0  0  0  0  0
   24.3650   63.7410  -14.0450 C   0  0  0  0  0  3  0  0  0  0  0  0
   25.5280   63.5040  -13.3480 C   0  0  0  0  0  0  0  0  0  0  0  0
   25.3700   63.1480  -12.0330 C   0  0  0  0  0  3  0  0  0  0  0  0
   24.1080   63.0330  -11.4320 C   0  0  0  0  0  3  0  0  0  0  0  0
   26.7690   63.6220  -13.9570 O   0  0  0  0  0  0  0  0  0  0  0  0
   26.9120   63.3670  -15.3420 C   0  0  0  0  0  1  0  0  0  0  0  0
   21.8870   63.5490   -9.1520 C   0  0  0  0  0  0  0  0  0  0  0  0
   21.5830   64.6430   -8.3610 C   0  0  0  0  0  3  0  0  0  0  0  0
   22.2470   64.9030   -7.1780 C   0  0  0  0  0  3  0  0  0  0  0  0
   23.2440   64.0310   -6.7890 C   0  0  0  0  0  0  0  0  0  0  0  0
   23.5400   62.9440   -7.5840 C   0  0  0  0  0  3  0  0  0  0  0  0
   24.2230   64.3110   -5.1590 Br  0  0  0  0  0  0  0  0  0  0  0  0
   22.8910   62.6660   -8.7670 C   0  0  0  0  0  3  0  0  0  0  0  0
  2  1  1  0  0  0  0
  3  2  1  0  0  0  0
  4  5  1  0  0  0  0
  4  3  1  0  0  0  0
  5  6  1  0  0  0  0
  6  7  1  0  0  0  0
  6  1  1  6  0  0  0
  7 18  1  0  0  0  0
  8  7  1  0  0  0  0
  9  5  1  0  0  0  0
  9  8  2  0  0  0  0
 10  8  1  0  0  0  0
 10 15  1  0  0  0  0
 11 10  2  0  0  0  0
 12 11  1  0  0  0  0
 12 13  2  0  0  0  0
 13 14  1  0  0  0  0
 14 15  2  0  0  0  0
 16 13  1  0  0  0  0
 17 16  1  0  0  0  0
 18 24  2  0  0  0  0
 18 19  1  0  0  0  0
 19 20  2  0  0  0  0
 20 21  1  0  0  0  0
 21 23  1  0  0  0  0
 22 21  2  0  0  0  0
 24 22  1  0  0  0  0
M  END
>  <Pose>
1

>  <Score>
-6.588

$$$$
