/Users/jonathanwahrer/Desktop/Msc/3_Semester/Drug_Design_Praktikum/waehrer_HTS_screening/HTS_experiment/out/docking_results/vina_output/3sx0/1211_docked.pdbqt
 OpenBabel03192222223D

 26 29  0  0  1  0  0  0  0  0999 V2000
    9.5440   65.3490  -14.6600 S   0  0  0  0  0  0  0  0  0  0  0  0
    8.3150   65.3080  -16.0230 C   0  0  0  0  0  2  0  0  0  0  0  0
    9.1190   64.8610  -17.2450 C   0  0  0  0  0  2  0  0  0  0  0  0
   10.1070   65.9730  -17.5830 C   0  0  0  0  0  2  0  0  0  0  0  0
   11.2640   65.7870  -16.7430 N   0  0  1  0  0  0  0  0  0  0  0  0
   11.1300   65.5140  -15.4720 C   0  0  2  0  0  3  0  0  0  0  0  0
   12.4650   65.3690  -14.9190 N   0  0  0  0  0  0  0  0  0  0  0  0
   13.1910   66.3760  -15.6620 C   0  0  2  0  0  0  0  0  0  0  0  0
   12.6970   65.8280  -17.0520 C   0  0  0  0  0  2  0  0  0  0  0  0
   14.5450   66.3320  -15.5590 O   0  0  0  0  0  0  0  0  0  0  0  0
   14.9020   65.7520  -16.3000 H   0  0  0  0  0  0  0  0  0  0  0  0
   12.5740   67.6900  -15.4470 C   0  0  0  0  0  0  0  0  0  0  0  0
   12.0360   68.0810  -14.2330 C   0  0  0  0  0  3  0  0  0  0  0  0
   11.4320   69.3420  -14.1140 C   0  0  0  0  0  3  0  0  0  0  0  0
   11.3500   70.2020  -15.1430 C   0  0  0  0  0  0  0  0  0  0  0  0
   11.8910   69.8370  -16.3930 C   0  0  0  0  0  3  0  0  0  0  0  0
   12.4770   68.5850  -16.4690 C   0  0  0  0  0  3  0  0  0  0  0  0
   10.7460   71.4840  -15.0640 O   0  0  0  0  0  0  0  0  0  0  0  0
    9.3790   71.6490  -15.3770 C   0  0  0  0  0  1  0  0  0  0  0  0
   12.8940   64.4190  -13.9700 C   0  0  0  0  0  0  0  0  0  0  0  0
   13.7210   64.8710  -12.9140 C   0  0  0  0  0  3  0  0  0  0  0  0
   14.2340   64.0030  -11.9660 C   0  0  0  0  0  3  0  0  0  0  0  0
   13.9610   62.6640  -12.0140 C   0  0  0  0  0  0  0  0  0  0  0  0
   13.1580   62.1920  -13.0310 C   0  0  0  0  0  3  0  0  0  0  0  0
   14.6620   61.4250  -10.7400 Br  0  0  0  0  0  0  0  0  0  0  0  0
   12.6380   63.0820  -13.9910 C   0  0  0  0  0  3  0  0  0  0  0  0
  2  1  1  0  0  0  0
  3  2  1  0  0  0  0
  4  3  1  0  0  0  0
  5  4  1  6  0  0  0
  5  6  1  0  0  0  0
  6  7  1  0  0  0  0
  6  1  1  6  0  0  0
  7 20  1  0  0  0  0
  8 10  1  1  0  0  0
  8 12  1  0  0  0  0
  8  7  1  0  0  0  0
  9  5  1  0  0  0  0
  9  8  1  0  0  0  0
 11 10  1  0  0  0  0
 12 13  1  0  0  0  0
 13 14  2  0  0  0  0
 15 18  1  0  0  0  0
 15 14  1  0  0  0  0
 16 15  2  0  0  0  0
 17 16  1  0  0  0  0
 17 12  2  0  0  0  0
 19 18  1  0  0  0  0
 20 21  1  0  0  0  0
 21 22  2  0  0  0  0
 23 22  1  0  0  0  0
 23 25  1  0  0  0  0
 24 23  2  0  0  0  0
 26 20  2  0  0  0  0
 26 24  1  0  0  0  0
M  END
>  <Pose>
1

>  <Score>
-5.368

$$$$
