/Users/jonathanwahrer/Desktop/Msc/3_Semester/Drug_Design_Praktikum/waehrer_HTS_screening/HTS_experiment/out/docking_results/vina_output/3sx0/1217_docked.pdbqt
 OpenBabel03192222223D

 28 31  0  0  1  0  0  0  0  0999 V2000
   20.6080   66.4330   -8.2100 S   0  0  0  0  0  0  0  0  0  0  0  0
   21.6880   67.2450   -7.0580 C   0  0  0  0  0  2  0  0  0  0  0  0
   23.0240   66.5300   -7.0240 C   0  0  0  0  0  2  0  0  0  0  0  0
   22.8140   65.0940   -6.5780 C   0  0  0  0  0  2  0  0  0  0  0  0
   22.2360   64.3230   -7.6550 N   0  0  2  0  0  0  0  0  0  0  0  0
   22.6580   63.1230   -8.3010 C   0  0  2  0  0  0  0  0  0  0  0  0
   21.3010   62.5120   -8.6140 C   0  0  0  0  0  2  0  0  0  0  0  0
   20.4890   63.6650   -8.9270 N   0  0  0  0  0  0  0  0  0  0  0  0
   21.0140   64.6760   -8.3280 C   0  0  2  0  0  3  0  0  0  0  0  0
   19.3450   63.7130   -9.7680 C   0  0  0  0  0  0  0  0  0  0  0  0
   19.5440   63.4630  -11.1200 C   0  0  0  0  0  0  0  0  0  0  0  0
   18.4720   63.5170  -12.0150 C   0  0  0  0  0  3  0  0  0  0  0  0
   17.2050   63.8250  -11.5500 C   0  0  0  0  0  3  0  0  0  0  0  0
   16.9730   64.0780  -10.2190 C   0  0  0  0  0  0  0  0  0  0  0  0
   18.0940   64.0070   -9.3700 C   0  0  0  0  0  3  0  0  0  0  0  0
   20.8080   63.1590  -11.5800 O   0  0  0  0  0  0  0  0  0  0  0  0
   21.1180   62.7510  -12.8910 C   0  0  0  0  0  1  0  0  0  0  0  0
   15.7320   64.3910   -9.6920 O   0  0  0  0  0  0  0  0  0  0  0  0
   14.4950   64.1540  -10.3020 C   0  0  0  0  0  1  0  0  0  0  0  0
   23.3740   62.3240   -7.4160 O   0  0  0  0  0  0  0  0  0  0  0  0
   23.5240   61.4330   -7.8080 H   0  0  0  0  0  0  0  0  0  0  0  0
   23.3690   63.3020   -9.5820 C   0  0  0  0  0  0  0  0  0  0  0  0
   23.2930   64.3850  -10.4010 C   0  0  0  0  0  3  0  0  0  0  0  0
   23.9840   64.4330  -11.6140 C   0  0  0  0  0  3  0  0  0  0  0  0
   24.7710   63.3800  -12.0300 C   0  0  0  0  0  0  0  0  0  0  0  0
   24.8540   62.2910  -11.2180 C   0  0  0  0  0  3  0  0  0  0  0  0
   25.7090   63.4580  -13.7010 Br  0  0  0  0  0  0  0  0  0  0  0  0
   24.1770   62.2440  -10.0310 C   0  0  0  0  0  3  0  0  0  0  0  0
  1  2  1  0  0  0  0
  2  3  1  0  0  0  0
  3  4  1  0  0  0  0
  5  4  1  6  0  0  0
  6  5  1  0  0  0  0
  6 20  1  1  0  0  0
  7  6  1  0  0  0  0
  8  7  1  0  0  0  0
  8  9  1  0  0  0  0
  9  1  1  6  0  0  0
  9  5  1  0  0  0  0
 10 15  1  0  0  0  0
 10  8  1  0  0  0  0
 11 10  2  0  0  0  0
 12 13  2  0  0  0  0
 12 11  1  0  0  0  0
 13 14  1  0  0  0  0
 14 18  1  0  0  0  0
 14 15  2  0  0  0  0
 16 11  1  0  0  0  0
 17 16  1  0  0  0  0
 19 18  1  0  0  0  0
 21 20  1  0  0  0  0
 22  6  1  0  0  0  0
 23 22  2  0  0  0  0
 24 23  1  0  0  0  0
 25 24  2  0  0  0  0
 25 26  1  0  0  0  0
 26 28  2  0  0  0  0
 27 25  1  0  0  0  0
 28 22  1  0  0  0  0
M  END
>  <Pose>
1

>  <Score>
-3.013

$$$$
