MODEL 1
REMARK VINA RESULT:    -6.206      0.000      0.000
REMARK INTER + INTRA:          -7.418
REMARK INTER:                  -7.475
REMARK INTRA:                   0.058
REMARK UNBOUND:                 0.058
REMARK  4 active torsions:
REMARK  status: ('A' for Active; 'I' for Inactive)
REMARK    1  A    between atoms: C_6  and  O_17 
REMARK    2  A    between atoms: C_6  and  C_18 
REMARK    3  A    between atoms: N_8  and  C_10 
REMARK    4  A    between atoms: C_20  and  N_24 
ROOT
ATOM      1  S   UNK d   1      21.866  63.545 -11.480  0.00  0.00    -0.094 SA
ATOM      2  C   UNK d   1      23.491  62.696 -11.647  0.00  0.00     0.084 C 
ATOM      3  C   UNK d   1      24.094  62.506 -10.266  0.00  0.00     0.030 C 
ATOM      4  C   UNK d   1      23.983  63.767  -9.448  0.00  0.00     0.129 C 
ATOM      5  N   UNK d   1      22.675  63.864  -8.882  0.00  0.00    -0.324 N 
ATOM      6  C   UNK d   1      22.101  64.233  -7.601  0.00  0.00     0.181 C 
ATOM      7  C   UNK d   1      20.813  63.431  -7.560  0.00  0.00     0.198 C 
ATOM      8  N   UNK d   1      20.506  63.298  -8.998  0.00  0.00    -0.323 N 
ATOM      9  C   UNK d   1      21.542  63.533  -9.701  0.00  0.00     0.147 C 
ENDROOT
BRANCH   6  10
ATOM     10  O   UNK d   1      22.937  63.937  -6.544  0.00  0.00    -0.365 OA
ATOM     11  H   UNK d   1      23.584  63.233  -6.696  0.00  0.00     0.213 HD
ENDBRANCH   6  10
BRANCH   6  12
ATOM     12  C   UNK d   1      21.741  65.671  -7.556  0.00  0.00     0.001 A 
ATOM     13  C   UNK d   1      22.467  66.534  -6.759  0.00  0.00     0.048 A 
ATOM     14  C   UNK d   1      22.094  67.878  -6.748  0.00  0.00     0.103 A 
ATOM     15  C   UNK d   1      21.049  68.327  -7.496  0.00  0.00     0.036 A 
ATOM     16  C   UNK d   1      20.314  67.474  -8.299  0.00  0.00     0.003 A 
ATOM     17  C   UNK d   1      20.694  66.127  -8.306  0.00  0.00     0.012 A 
BRANCH  14  18
ATOM     18  N   UNK d   1      22.834  68.773  -5.933  0.00  0.00    -0.116 N 
ATOM     19  O   UNK d   1      23.996  68.517  -5.563  0.00  0.00    -0.532 OA
ATOM     20  O   UNK d   1      22.299  69.960  -5.518  0.00  0.00    -0.532 OA
ENDBRANCH  14  18
ENDBRANCH   6  12
BRANCH   8  21
ATOM     21  C   UNK d   1      19.227  62.937  -9.512  0.00  0.00     0.036 A 
ATOM     22  C   UNK d   1      18.799  61.673  -9.793  0.00  0.00     0.031 A 
ATOM     23  C   UNK d   1      17.528  61.391 -10.276  0.00  0.00     0.021 A 
ATOM     24  C   UNK d   1      16.636  62.421 -10.492  0.00  0.00     0.011 A 
ATOM     25  C   UNK d   1      17.038  63.723 -10.217  0.00  0.00     0.021 A 
ATOM     26 Br   UNK d   1      14.866  62.134 -11.159  0.00  0.00    -0.051 Br
ATOM     27  C   UNK d   1      18.315  63.981  -9.734  0.00  0.00     0.031 A 
ENDBRANCH   8  21
TORSDOF 4
ENDMDL
