/Users/jonathanwahrer/Desktop/Msc/3_Semester/Drug_Design_Praktikum/waehrer_HTS_screening/HTS_experiment/out/docking_results/vina_output/3sx0/1220_docked.pdbqt
 OpenBabel03192222233D

 27 30  0  0  1  0  0  0  0  0999 V2000
   21.4510   63.6060  -11.9990 S   0  0  0  0  0  0  0  0  0  0  0  0
   22.9910   62.6410  -12.2770 C   0  0  0  0  0  2  0  0  0  0  0  0
   23.9250   62.6870  -11.1420 C   0  0  0  0  0  2  0  0  0  0  0  0
   23.6940   63.6470  -10.0480 C   0  0  0  0  0  2  0  0  0  0  0  0
   22.4110   63.7170   -9.4790 N   0  0  1  0  0  0  0  0  0  0  0  0
   21.9100   64.0630   -8.1840 C   0  0  2  0  0  0  0  0  0  0  0  0
   20.7130   63.1420   -8.0920 C   0  0  0  0  0  2  0  0  0  0  0  0
   20.2580   63.1130   -9.4650 N   0  0  0  0  0  0  0  0  0  0  0  0
   21.2010   63.4210  -10.2240 C   0  0  1  0  0  3  0  0  0  0  0  0
   21.4030   65.3650   -8.2200 O   0  0  0  0  0  0  0  0  0  0  0  0
   21.3670   65.6640   -9.1430 H   0  0  0  0  0  0  0  0  0  0  0  0
   22.8370   63.8720   -7.0530 C   0  0  0  0  0  0  0  0  0  0  0  0
   22.4790   64.4380   -5.8330 C   0  0  0  0  0  3  0  0  0  0  0  0
   23.2770   64.3110   -4.7180 C   0  0  0  0  0  3  0  0  0  0  0  0
   24.4730   63.6160   -4.7550 C   0  0  0  0  0  0  0  0  0  0  0  0
   24.8320   63.0500   -5.9630 C   0  0  0  0  0  3  0  0  0  0  0  0
   24.0200   63.1800   -7.0940 C   0  0  0  0  0  3  0  0  0  0  0  0
   25.2750   63.4980   -3.5940 N   0  0  0  0  0  0  0  0  0  0  0  0
   25.1750   64.2470   -2.6160 O   0  0  0  0  0  0  0  0  0  0  0  0
   26.2140   62.5010   -3.5350 O   0  0  0  0  0  0  0  0  0  0  0  0
   18.9240   62.7950   -9.8810 C   0  0  0  0  0  0  0  0  0  0  0  0
   18.0310   63.8360  -10.0910 C   0  0  0  0  0  3  0  0  0  0  0  0
   16.7130   63.6030  -10.4750 C   0  0  0  0  0  3  0  0  0  0  0  0
   16.2530   62.3170  -10.6590 C   0  0  0  0  0  0  0  0  0  0  0  0
   17.1260   61.2760  -10.4560 C   0  0  0  0  0  3  0  0  0  0  0  0
   14.4270   62.0010  -11.1730 Br  0  0  0  0  0  0  0  0  0  0  0  0
   18.4450   61.5410  -10.0670 C   0  0  0  0  0  3  0  0  0  0  0  0
  2  1  1  0  0  0  0
  2  3  1  0  0  0  0
  3  4  1  0  0  0  0
  5  4  1  6  0  0  0
  5  6  1  0  0  0  0
  6 10  1  6  0  0  0
  6  7  1  0  0  0  0
  6 12  1  0  0  0  0
  8  7  1  0  0  0  0
  9  1  1  1  0  0  0
  9  5  1  0  0  0  0
  9  8  1  0  0  0  0
 11 10  1  0  0  0  0
 12 13  1  0  0  0  0
 13 14  2  0  0  0  0
 15 14  1  0  0  0  0
 15 18  1  0  0  0  0
 16 15  2  0  0  0  0
 17 12  2  0  0  0  0
 17 16  1  0  0  0  0
 18 20  2  0  0  0  0
 18 19  2  0  0  0  0
 21  8  1  0  0  0  0
 22 21  2  0  0  0  0
 23 22  1  0  0  0  0
 24 23  2  0  0  0  0
 24 25  1  0  0  0  0
 25 27  2  0  0  0  0
 26 24  1  0  0  0  0
 27 21  1  0  0  0  0
M  END
>  <Pose>
1

>  <Score>
-9.855

$$$$
