MODEL 1
REMARK VINA RESULT:    -4.969      0.000      0.000
REMARK INTER + INTRA:          -6.424
REMARK INTER:                  -5.696
REMARK INTRA:                  -0.728
REMARK UNBOUND:                -0.728
REMARK  3 active torsions:
REMARK  status: ('A' for Active; 'I' for Inactive)
REMARK    1  A    between atoms: C_6  and  O_17 
REMARK    2  A    between atoms: C_6  and  C_18 
REMARK    3  A    between atoms: N_8  and  C_10 
ROOT
ATOM      1  S   UNK d   1      13.994  65.305 -16.119  0.00  0.00    -0.094 SA
ATOM      2  C   UNK d   1      14.369  67.056 -16.581  0.00  0.00     0.084 C 
ATOM      3  C   UNK d   1      13.137  67.911 -16.430  0.00  0.00     0.030 C 
ATOM      4  C   UNK d   1      11.841  67.155 -16.624  0.00  0.00     0.129 C 
ATOM      5  N   UNK d   1      11.520  66.274 -15.570  0.00  0.00    -0.324 N 
ATOM      6  C   UNK d   1      10.359  65.783 -14.807  0.00  0.00     0.181 C 
ATOM      7  C   UNK d   1      11.028  65.680 -13.458  0.00  0.00     0.198 C 
ATOM      8  N   UNK d   1      12.315  65.103 -13.819  0.00  0.00    -0.323 N 
ATOM      9  C   UNK d   1      12.602  65.515 -14.962  0.00  0.00     0.147 C 
ENDROOT
BRANCH   6  10
ATOM     10  O   UNK d   1       9.329  66.672 -14.766  0.00  0.00    -0.365 OA
ATOM     11  H   UNK d   1       9.209  67.238 -15.569  0.00  0.00     0.213 HD
ENDBRANCH   6  10
BRANCH   6  12
ATOM     12  C   UNK d   1       9.960  64.414 -15.274  0.00  0.00    -0.002 A 
ATOM     13  C   UNK d   1      10.109  63.995 -16.582  0.00  0.00     0.012 A 
ATOM     14  C   UNK d   1       9.721  62.707 -16.930  0.00  0.00     0.001 A 
ATOM     15  C   UNK d   1       9.186  61.811 -16.014  0.00  0.00     0.000 A 
ATOM     16  C   UNK d   1       9.036  62.219 -14.716  0.00  0.00     0.001 A 
ATOM     17  C   UNK d   1       9.422  63.512 -14.365  0.00  0.00     0.012 A 
ENDBRANCH   6  12
BRANCH   8  18
ATOM     18  C   UNK d   1      13.069  64.171 -13.014  0.00  0.00     0.036 A 
ATOM     19  C   UNK d   1      13.994  64.512 -12.079  0.00  0.00     0.031 A 
ATOM     20  C   UNK d   1      14.732  63.581 -11.358  0.00  0.00     0.021 A 
ATOM     21  C   UNK d   1      14.538  62.244 -11.584  0.00  0.00     0.011 A 
ATOM     22  C   UNK d   1      13.598  61.893 -12.534  0.00  0.00     0.021 A 
ATOM     23 Br   UNK d   1      15.514  60.887 -10.641  0.00  0.00    -0.051 Br
ATOM     24  C   UNK d   1      12.873  62.811 -13.242  0.00  0.00     0.031 A 
ENDBRANCH   8  18
TORSDOF 3
ENDMDL
