/Users/jonathanwahrer/Desktop/Msc/3_Semester/Drug_Design_Praktikum/waehrer_HTS_screening/HTS_experiment/out/docking_results/vina_output/3sx0/1224_docked.pdbqt
 OpenBabel03192222233D

 26 29  0  0  1  0  0  0  0  0999 V2000
    8.2940   64.3070  -14.7440 S   0  0  0  0  0  0  0  0  0  0  0  0
    7.9090   65.8600  -15.6510 C   0  0  0  0  0  2  0  0  0  0  0  0
    9.2390   66.5880  -15.7800 C   0  0  0  0  0  2  0  0  0  0  0  0
   10.1710   65.8910  -16.7200 C   0  0  0  0  0  2  0  0  0  0  0  0
   10.5830   64.5860  -16.3020 N   0  0  2  0  0  0  0  0  0  0  0  0
   11.8370   63.8260  -16.3190 C   0  0  1  0  0  0  0  0  0  0  0  0
   11.2270   62.4760  -16.7420 C   0  0  0  0  0  2  0  0  0  0  0  0
   10.0340   62.4290  -15.9170 N   0  0  0  0  0  0  0  0  0  0  0  0
    9.6790   63.6280  -15.6880 C   0  0  1  0  0  3  0  0  0  0  0  0
   12.6710   64.3230  -17.2930 O   0  0  0  0  0  0  0  0  0  0  0  0
   13.6070   64.4060  -16.9930 H   0  0  0  0  0  0  0  0  0  0  0  0
   12.4500   63.7020  -14.9850 C   0  0  0  0  0  0  0  0  0  0  0  0
   12.6530   62.5240  -14.3020 C   0  0  0  0  0  3  0  0  0  0  0  0
   13.2490   62.5150  -13.0520 C   0  0  0  0  0  3  0  0  0  0  0  0
   13.6480   63.6840  -12.4710 C   0  0  0  0  0  0  0  0  0  0  0  0
   13.4520   64.8720  -13.1410 C   0  0  0  0  0  3  0  0  0  0  0  0
   14.4790   63.7400  -10.7390 Br  0  0  0  0  0  0  0  0  0  0  0  0
   12.8610   64.8670  -14.3790 C   0  0  0  0  0  3  0  0  0  0  0  0
    9.4330   61.1870  -15.4850 C   0  0  0  0  0  0  0  0  0  0  0  0
    8.7950   60.3680  -16.4130 C   0  0  0  0  0  3  0  0  0  0  0  0
    8.2110   59.1800  -16.0320 C   0  0  0  0  0  3  0  0  0  0  0  0
    8.2210   58.7340  -14.7280 C   0  0  0  0  0  0  0  0  0  0  0  0
    8.8480   59.5370  -13.8060 C   0  0  0  0  0  3  0  0  0  0  0  0
    9.4420   60.7470  -14.1970 C   0  0  0  0  0  3  0  0  0  0  0  0
    7.6220   57.5280  -14.3810 O   0  0  0  0  0  0  0  0  0  0  0  0
    7.9740   56.2710  -14.8850 C   0  0  0  0  0  1  0  0  0  0  0  0
  2  1  1  0  0  0  0
  3  2  1  0  0  0  0
  4  3  1  0  0  0  0
  5  4  1  6  0  0  0
  5  9  1  0  0  0  0
  6 10  1  6  0  0  0
  6  5  1  0  0  0  0
  6 12  1  0  0  0  0
  7  6  1  0  0  0  0
  7  8  1  0  0  0  0
  8  9  1  0  0  0  0
  8 19  1  0  0  0  0
  9  1  1  1  0  0  0
 10 11  1  0  0  0  0
 12 18  2  0  0  0  0
 12 13  1  0  0  0  0
 13 14  2  0  0  0  0
 14 15  1  0  0  0  0
 15 17  1  0  0  0  0
 16 15  2  0  0  0  0
 18 16  1  0  0  0  0
 19 24  1  0  0  0  0
 20 21  1  0  0  0  0
 20 19  2  0  0  0  0
 21 22  2  0  0  0  0
 22 25  1  0  0  0  0
 22 23  1  0  0  0  0
 24 23  2  0  0  0  0
 26 25  1  0  0  0  0
M  END
>  <Pose>
1

>  <Score>
-4.404

$$$$
