MODEL 1
REMARK VINA RESULT:    -4.404      0.000      0.000
REMARK INTER + INTRA:          -5.838
REMARK INTER:                  -5.305
REMARK INTRA:                  -0.533
REMARK UNBOUND:                -0.533
REMARK  4 active torsions:
REMARK  status: ('A' for Active; 'I' for Inactive)
REMARK    1  A    between atoms: C_6  and  O_18 
REMARK    2  A    between atoms: C_6  and  C_19 
REMARK    3  A    between atoms: N_8  and  C_10 
REMARK    4  A    between atoms: C_13  and  O_16 
ROOT
ATOM      1  S   UNK d   1       8.294  64.307 -14.744  0.00  0.00    -0.094 SA
ATOM      2  C   UNK d   1       7.909  65.860 -15.651  0.00  0.00     0.084 C 
ATOM      3  C   UNK d   1       9.239  66.588 -15.780  0.00  0.00     0.030 C 
ATOM      4  C   UNK d   1      10.171  65.891 -16.720  0.00  0.00     0.129 C 
ATOM      5  N   UNK d   1      10.583  64.586 -16.302  0.00  0.00    -0.324 N 
ATOM      6  C   UNK d   1      11.837  63.826 -16.319  0.00  0.00     0.181 C 
ATOM      7  C   UNK d   1      11.227  62.476 -16.742  0.00  0.00     0.198 C 
ATOM      8  N   UNK d   1      10.034  62.429 -15.917  0.00  0.00    -0.323 N 
ATOM      9  C   UNK d   1       9.679  63.628 -15.688  0.00  0.00     0.147 C 
ENDROOT
BRANCH   6  10
ATOM     10  O   UNK d   1      12.671  64.323 -17.293  0.00  0.00    -0.365 OA
ATOM     11  H   UNK d   1      13.607  64.406 -16.993  0.00  0.00     0.213 HD
ENDBRANCH   6  10
BRANCH   6  12
ATOM     12  C   UNK d   1      12.450  63.702 -14.985  0.00  0.00    -0.002 A 
ATOM     13  C   UNK d   1      12.653  62.524 -14.302  0.00  0.00     0.013 A 
ATOM     14  C   UNK d   1      13.249  62.515 -13.052  0.00  0.00     0.020 A 
ATOM     15  C   UNK d   1      13.648  63.684 -12.471  0.00  0.00     0.011 A 
ATOM     16  C   UNK d   1      13.452  64.872 -13.141  0.00  0.00     0.020 A 
ATOM     17 Br   UNK d   1      14.479  63.740 -10.739  0.00  0.00    -0.051 Br
ATOM     18  C   UNK d   1      12.861  64.867 -14.379  0.00  0.00     0.013 A 
ENDBRANCH   6  12
BRANCH   8  19
ATOM     19  C   UNK d   1       9.433  61.187 -15.485  0.00  0.00     0.036 A 
ATOM     20  C   UNK d   1       8.795  60.368 -16.413  0.00  0.00     0.032 A 
ATOM     21  C   UNK d   1       8.211  59.180 -16.032  0.00  0.00     0.039 A 
ATOM     22  C   UNK d   1       8.221  58.734 -14.728  0.00  0.00     0.068 A 
ATOM     23  C   UNK d   1       8.848  59.537 -13.806  0.00  0.00     0.039 A 
ATOM     24  C   UNK d   1       9.442  60.747 -14.197  0.00  0.00     0.032 A 
BRANCH  22  25
ATOM     25  O   UNK d   1       7.622  57.528 -14.381  0.00  0.00    -0.356 OA
ATOM     26  C   UNK d   1       7.974  56.271 -14.885  0.00  0.00     0.210 C 
ENDBRANCH  22  25
ENDBRANCH   8  19
TORSDOF 4
ENDMDL
