MODEL 1
REMARK VINA RESULT:    -7.178      0.000      0.000
REMARK INTER + INTRA:          -8.138
REMARK INTER:                  -8.227
REMARK INTRA:                   0.089
REMARK UNBOUND:                 0.089
REMARK  3 active torsions:
REMARK  status: ('A' for Active; 'I' for Inactive)
REMARK    1  A    between atoms: C_6  and  O_16 
REMARK    2  A    between atoms: C_6  and  C_17 
REMARK    3  A    between atoms: N_8  and  C_10 
ROOT
ATOM      1  S   UNK d   1      23.960  62.797  -8.850  0.00  0.00    -0.094 SA
ATOM      2  C   UNK d   1      23.813  63.326  -7.121  0.00  0.00     0.084 C 
ATOM      3  C   UNK d   1      22.741  64.420  -7.100  0.00  0.00     0.030 C 
ATOM      4  C   UNK d   1      21.402  63.775  -7.490  0.00  0.00     0.129 C 
ATOM      5  N   UNK d   1      21.338  63.730  -8.955  0.00  0.00    -0.324 N 
ATOM      6  C   UNK d   1      20.318  63.997  -9.885  0.00  0.00     0.181 C 
ATOM      7  C   UNK d   1      21.034  64.101 -11.228  0.00  0.00     0.198 C 
ATOM      8  N   UNK d   1      22.358  63.632 -10.958  0.00  0.00    -0.323 N 
ATOM      9  C   UNK d   1      22.494  63.405  -9.716  0.00  0.00     0.147 C 
ENDROOT
BRANCH   6  10
ATOM     10  O   UNK d   1      19.790  65.285  -9.642  0.00  0.00    -0.365 OA
ATOM     11  H   UNK d   1      19.634  65.338  -8.663  0.00  0.00     0.213 HD
ENDBRANCH   6  10
BRANCH   6  12
ATOM     12  C   UNK d   1      19.206  63.058 -10.014  0.00  0.00    -0.002 A 
ATOM     13  C   UNK d   1      17.967  63.608 -10.339  0.00  0.00     0.013 A 
ATOM     14  C   UNK d   1      16.821  62.858 -10.530  0.00  0.00     0.020 A 
ATOM     15  C   UNK d   1      16.870  61.498 -10.398  0.00  0.00     0.011 A 
ATOM     16  C   UNK d   1      18.090  60.932 -10.076  0.00  0.00     0.020 A 
ATOM     17 Br   UNK d   1      15.311  60.392 -10.664  0.00  0.00    -0.051 Br
ATOM     18  C   UNK d   1      19.237  61.699  -9.888  0.00  0.00     0.013 A 
ENDBRANCH   6  12
BRANCH   8  19
ATOM     19  C   UNK d   1      23.352  63.511 -11.989  0.00  0.00     0.036 A 
ATOM     20  C   UNK d   1      22.956  63.474 -13.286  0.00  0.00     0.029 A 
ATOM     21  C   UNK d   1      23.941  63.387 -14.266  0.00  0.00     0.002 A 
ATOM     22  C   UNK d   1      25.285  63.339 -13.973  0.00  0.00     0.000 A 
ATOM     23  C   UNK d   1      25.638  63.378 -12.639  0.00  0.00     0.002 A 
ATOM     24  C   UNK d   1      24.693  63.463 -11.646  0.00  0.00     0.029 A 
ENDBRANCH   8  19
TORSDOF 3
ENDMDL
