MODEL 1
REMARK VINA RESULT:    -6.176      0.000      0.000
REMARK INTER + INTRA:         -10.810
REMARK INTER:                  -9.245
REMARK INTRA:                  -1.565
REMARK UNBOUND:                -1.565
REMARK  9 active torsions:
REMARK  status: ('A' for Active; 'I' for Inactive)
REMARK    1  A    between atoms: C_5  and  S_6 
REMARK    2  A    between atoms: S_6  and  C_7 
REMARK    3  A    between atoms: C_7  and  C_8 
REMARK    4  A    between atoms: N_9  and  C_28 
REMARK    5  A    between atoms: C_12  and  C_13 
REMARK       I    between atoms: C_13  and  N_15 
REMARK    6  A    between atoms: N_15  and  N_16 
REMARK    7  A    between atoms: C_17  and  C_18 
REMARK    8  A    between atoms: C_22  and  O_24 
REMARK    9  A    between atoms: C_32  and  N_33 
ROOT
ATOM      1  C   UNK d   1      11.408  67.187 -14.830  0.00  0.00     0.086 A 
ATOM      2  N   UNK d   1      11.072  68.175 -15.669  0.00  0.00    -0.192 N 
ATOM      3  N   UNK d   1      12.188  68.450 -16.366  0.00  0.00    -0.058 NA
ATOM      4  N   UNK d   1      13.163  67.697 -16.002  0.00  0.00    -0.124 NA
ATOM      5  C   UNK d   1      12.751  66.835 -15.003  0.00  0.00     0.175 A 
ENDROOT
BRANCH   5   6
ATOM      6  C   UNK d   1      13.603  65.851 -14.388  0.00  0.00     0.294 C 
ATOM      7  O   UNK d   1      14.477  65.283 -15.155  0.00  0.00    -0.264 OA
ATOM      8  N   UNK d   1      13.618  65.421 -13.065  0.00  0.00    -0.242 N 
ATOM      9  H   UNK d   1      13.015  65.721 -12.281  0.00  0.00     0.192 HD
BRANCH   8  10
ATOM     10  N   UNK d   1      14.563  64.419 -12.651  0.00  0.00    -0.183 NA
ATOM     11  C   UNK d   1      15.280  64.561 -11.607  0.00  0.00     0.150 C 
BRANCH  11  12
ATOM     12  C   UNK d   1      16.248  63.572 -11.153  0.00  0.00    -0.013 A 
ATOM     13  C   UNK d   1      15.894  62.260 -10.934  0.00  0.00     0.035 A 
ATOM     14  C   UNK d   1      16.800  61.310 -10.511  0.00  0.00     0.051 A 
ATOM     15  C   UNK d   1      18.111  61.640 -10.285  0.00  0.00     0.157 A 
ATOM     16 Br   UNK d   1      16.259  59.500 -10.221  0.00  0.00    -0.048 Br
ATOM     17  C   UNK d   1      18.508  62.970 -10.498  0.00  0.00     0.106 A 
ATOM     18  O   UNK d   1      19.005  60.670  -9.859  0.00  0.00    -0.188 OA
ATOM     19  C   UNK d   1      17.579  63.895 -10.922  0.00  0.00     0.052 A 
BRANCH  17  20
ATOM     20  O   UNK d   1      19.836  63.232 -10.254  0.00  0.00    -0.353 OA
ATOM     21  C   UNK d   1      20.362  63.769  -9.066  0.00  0.00     0.210 C 
ENDBRANCH  17  20
ENDBRANCH  11  12
ENDBRANCH   8  10
ENDBRANCH   5   6
BRANCH   1  22
ATOM     22  C   UNK d   1      10.530  66.505 -13.865  0.00  0.00     0.143 C 
BRANCH  22  23
ATOM     23  S   UNK d   1       9.736  65.006 -14.405  0.00  0.00    -0.098 SA
BRANCH  23  24
ATOM     24  C   UNK d   1      10.901  63.755 -14.929  0.00  0.00     0.125 C 
ATOM     25  S   UNK d   1      11.195  63.381 -16.658  0.00  0.00    -0.102 SA
ATOM     26  C   UNK d   1      12.256  61.934 -16.353  0.00  0.00     0.103 C 
ATOM     27  C   UNK d   1      12.481  62.091 -14.883  0.00  0.00     0.161 C 
ATOM     28  N   UNK d   1      11.641  63.000 -14.286  0.00  0.00    -0.275 NA
ENDBRANCH  23  24
ENDBRANCH  22  23
ENDBRANCH   1  22
BRANCH   2  29
ATOM     29  C   UNK d   1       9.841  68.853 -15.907  0.00  0.00     0.237 A 
ATOM     30  N   UNK d   1       8.662  68.334 -16.307  0.00  0.00    -0.081 NA
ATOM     31  O   UNK d   1       7.748  69.225 -16.400  0.00  0.00    -0.103 OA
ATOM     32  N   UNK d   1       8.267  70.366 -16.070  0.00  0.00    -0.075 NA
ATOM     33  C   UNK d   1       9.584  70.198 -15.748  0.00  0.00     0.300 A 
BRANCH  33  34
ATOM     34  N   UNK d   1      10.480  71.204 -15.320  0.00  0.00    -0.026 N 
ATOM     35  H   UNK d   1      11.385  71.077 -15.845  0.00  0.00     0.283 HD
ATOM     36  H   UNK d   1      10.657  71.219 -14.300  0.00  0.00     0.283 HD
ATOM     37  H   UNK d   1      10.102  72.145 -15.616  0.00  0.00     0.283 HD
ENDBRANCH  33  34
ENDBRANCH   2  29
TORSDOF 9
ENDMDL
