MODEL 1
REMARK VINA RESULT:    -3.339      0.000      0.000
REMARK INTER + INTRA:          -2.467
REMARK INTER:                  -3.925
REMARK INTRA:                   1.458
REMARK UNBOUND:                 1.458
REMARK  3 active torsions:
REMARK  status: ('A' for Active; 'I' for Inactive)
REMARK    1  A    between atoms: C_9  and  C_12 
REMARK    2  A    between atoms: C_12  and  C_13 
REMARK    3  A    between atoms: C_12  and  C_24 
ROOT
ATOM      1  C   UNK d   1      12.063  63.626 -16.118  0.00  0.00     0.063 C 
ENDROOT
BRANCH   1   2
ATOM      2  C   UNK d   1      11.182  63.749 -14.925  0.00  0.00     0.182 C 
ATOM      3  C   UNK d   1      11.033  62.389 -14.338  0.00  0.00     0.259 C 
ATOM      4  N   UNK d   1      12.118  61.901 -13.526  0.00  0.00    -0.188 NA
ATOM      5  O   UNK d   1       9.991  61.724 -14.561  0.00  0.00    -0.270 OA
ATOM      6  C   UNK d   1      12.953  62.669 -12.966  0.00  0.00     0.174 C 
ATOM      7  S   UNK d   1      14.369  62.379 -11.927  0.00  0.00    -0.090 SA
ATOM      8  N   UNK d   1      12.850  64.070 -13.084  0.00  0.00    -0.295 N 
ATOM      9  C   UNK d   1      14.343  64.080 -11.185  0.00  0.00     0.103 C 
ATOM     10  C   UNK d   1      13.881  64.814 -12.418  0.00  0.00     0.144 C 
ATOM     11  C   UNK d   1      11.754  64.613 -13.867  0.00  0.00     0.239 C 
ATOM     12  O   UNK d   1      11.363  65.774 -13.597  0.00  0.00    -0.272 OA
ENDBRANCH   1   2
BRANCH   1  13
ATOM     13  C   UNK d   1      11.792  64.655 -17.187  0.00  0.00     0.182 C 
ATOM     14  C   UNK d   1      12.703  65.810 -17.162  0.00  0.00     0.239 C 
ATOM     15  O   UNK d   1      13.895  65.692 -17.615  0.00  0.00    -0.272 OA
ATOM     16  N   UNK d   1      12.258  67.081 -16.626  0.00  0.00    -0.295 N 
ATOM     17  C   UNK d   1      13.082  68.216 -16.317  0.00  0.00     0.144 C 
ATOM     18  C   UNK d   1      10.877  67.266 -16.393  0.00  0.00     0.174 C 
ATOM     19  C   UNK d   1      12.500  69.002 -15.168  0.00  0.00     0.103 C 
ATOM     20  S   UNK d   1      10.730  68.916 -15.711  0.00  0.00    -0.090 SA
ATOM     21  N   UNK d   1      10.006  66.365 -16.637  0.00  0.00    -0.188 NA
ATOM     22  C   UNK d   1      10.370  65.082 -17.170  0.00  0.00     0.259 C 
ATOM     23  O   UNK d   1       9.452  64.349 -17.615  0.00  0.00    -0.270 OA
ENDBRANCH   1  13
BRANCH   1  24
ATOM     24  C   UNK d   1      11.979  62.243 -16.638  0.00  0.00    -0.050 A 
ATOM     25  C   UNK d   1      13.100  61.422 -16.663  0.00  0.00     0.026 A 
ATOM     26  C   UNK d   1      13.033  60.130 -17.142  0.00  0.00     0.011 A 
ATOM     27  C   UNK d   1      11.842  59.622 -17.611  0.00  0.00     0.019 A 
ATOM     28 Br   UNK d   1      14.567  58.995 -17.179  0.00  0.00    -0.051 Br
ATOM     29  C   UNK d   1      10.745  60.429 -17.586  0.00  0.00     0.002 A 
ATOM     30  C   UNK d   1      10.796  61.723 -17.110  0.00  0.00     0.007 A 
ENDBRANCH   1  24
TORSDOF 3
ENDMDL
