MODEL 1
REMARK VINA RESULT:    -2.320      0.000      0.000
REMARK INTER + INTRA:          -3.638
REMARK INTER:                  -2.727
REMARK INTRA:                  -0.911
REMARK UNBOUND:                -0.911
REMARK  3 active torsions:
REMARK  status: ('A' for Active; 'I' for Inactive)
REMARK    1  A    between atoms: C_9  and  C_12 
REMARK    2  A    between atoms: C_12  and  C_13 
REMARK    3  A    between atoms: C_12  and  C_24 
ROOT
ATOM      1  C   UNK d   1      11.471  66.246 -15.847  0.00  0.00     0.063 C 
ENDROOT
BRANCH   1   2
ATOM      2  C   UNK d   1      12.601  67.104 -15.461  0.00  0.00     0.182 C 
ATOM      3  C   UNK d   1      13.703  67.392 -16.335  0.00  0.00     0.259 C 
ATOM      4  N   UNK d   1      13.594  68.575 -17.173  0.00  0.00    -0.188 NA
ATOM      5  O   UNK d   1      14.783  66.773 -16.499  0.00  0.00    -0.270 OA
ATOM      6  C   UNK d   1      12.844  69.569 -16.815  0.00  0.00     0.174 C 
ATOM      7  S   UNK d   1      12.499  71.156 -17.616  0.00  0.00    -0.090 SA
ATOM      8  N   UNK d   1      12.055  69.585 -15.646  0.00  0.00    -0.295 N 
ATOM      9  C   UNK d   1      10.949  71.468 -16.664  0.00  0.00     0.103 C 
ATOM     10  C   UNK d   1      11.310  70.761 -15.396  0.00  0.00     0.144 C 
ATOM     11  C   UNK d   1      12.122  68.392 -14.832  0.00  0.00     0.239 C 
ATOM     12  O   UNK d   1      11.787  68.437 -13.634  0.00  0.00    -0.272 OA
ENDBRANCH   1   2
BRANCH   1  13
ATOM     13  C   UNK d   1      10.161  66.344 -15.191  0.00  0.00     0.182 C 
ATOM     14  C   UNK d   1       9.096  66.138 -16.268  0.00  0.00     0.239 C 
ATOM     15  O   UNK d   1       8.804  67.076 -17.043  0.00  0.00    -0.272 OA
ATOM     16  N   UNK d   1       8.429  64.860 -16.392  0.00  0.00    -0.295 N 
ATOM     17  C   UNK d   1       7.680  64.380 -17.501  0.00  0.00     0.144 C 
ATOM     18  C   UNK d   1       8.506  63.985 -15.282  0.00  0.00     0.174 C 
ATOM     19  C   UNK d   1       7.747  62.877 -17.602  0.00  0.00     0.103 C 
ATOM     20  S   UNK d   1       7.622  62.519 -15.786  0.00  0.00    -0.090 SA
ATOM     21  N   UNK d   1       9.116  64.258 -14.198  0.00  0.00    -0.188 NA
ATOM     22  C   UNK d   1       9.789  65.545 -14.054  0.00  0.00     0.259 C 
ATOM     23  O   UNK d   1      10.007  65.895 -12.881  0.00  0.00    -0.270 OA
ENDBRANCH   1  13
BRANCH   1  24
ATOM     24  C   UNK d   1      11.899  64.822 -16.130  0.00  0.00    -0.051 A 
ATOM     25  C   UNK d   1      11.787  64.288 -17.392  0.00  0.00     0.009 A 
ATOM     26  C   UNK d   1      12.180  62.991 -17.608  0.00  0.00     0.019 A 
ATOM     27  C   UNK d   1      12.682  62.197 -16.626  0.00  0.00     0.011 A 
ATOM     28  C   UNK d   1      12.805  62.702 -15.356  0.00  0.00     0.019 A 
ATOM     29 Br   UNK d   1      13.229  60.384 -16.939  0.00  0.00    -0.051 Br
ATOM     30  C   UNK d   1      12.405  64.020 -15.135  0.00  0.00     0.009 A 
ENDBRANCH   1  24
TORSDOF 3
ENDMDL
