MODEL 1
REMARK VINA RESULT:    -7.646      0.000      0.000
REMARK INTER + INTRA:          -8.908
REMARK INTER:                  -8.539
REMARK INTRA:                  -0.368
REMARK UNBOUND:                -0.368
REMARK  2 active torsions:
REMARK  status: ('A' for Active; 'I' for Inactive)
REMARK    1  A    between atoms: C_4  and  C_7 
REMARK    2  A    between atoms: C_14  and  C_15 
ROOT
ATOM      1  S   UNK d   1      20.444  62.867 -12.395  0.00  0.00    -0.025 SA
ATOM      2  C   UNK d   1      21.944  63.127 -11.601  0.00  0.00     0.219 A 
ATOM      3  N   UNK d   1      21.535  63.444 -10.373  0.00  0.00    -0.184 N 
ATOM      4  C   UNK d   1      22.703  63.666  -9.680  0.00  0.00     0.205 A 
ATOM      5  N   UNK d   1      23.743  63.480 -10.491  0.00  0.00    -0.125 NA
ATOM      6  N   UNK d   1      23.313  63.145 -11.690  0.00  0.00    -0.120 NA
ATOM      7  N   UNK d   1      20.289  63.473 -10.124  0.00  0.00    -0.154 NA
ATOM      8  C   UNK d   1      19.403  63.194 -11.060  0.00  0.00     0.153 A 
ENDROOT
BRANCH   8   9
ATOM      9  C   UNK d   1      17.938  63.165 -10.998  0.00  0.00     0.133 A 
ATOM     10  N   UNK d   1      17.101  64.139 -11.378  0.00  0.00    -0.171 NA
ATOM     11  N   UNK d   1      15.836  63.741 -11.168  0.00  0.00    -0.287 N 
ATOM     12  C   UNK d   1      15.854  62.498 -10.647  0.00  0.00     0.131 A 
ATOM     13  H   UNK d   1      14.990  64.316 -11.381  0.00  0.00     0.188 HD
ATOM     14  C   UNK d   1      17.198  62.132 -10.539  0.00  0.00     0.061 A 
ATOM     15 Br   UNK d   1      17.783  60.472  -9.862  0.00  0.00    -0.047 Br
ENDBRANCH   8   9
BRANCH   4  16
ATOM     16  C   UNK d   1      22.809  64.052  -8.258  0.00  0.00     0.123 A 
ATOM     17  N   UNK d   1      21.998  64.985  -7.728  0.00  0.00    -0.254 NA
ATOM     18  C   UNK d   1      22.105  65.330  -6.425  0.00  0.00     0.136 A 
ATOM     19  C   UNK d   1      23.041  64.732  -5.627  0.00  0.00     0.135 A 
ATOM     20  N   UNK d   1      23.837  63.808  -6.166  0.00  0.00    -0.269 NA
ATOM     21  C   UNK d   1      23.752  63.445  -7.465  0.00  0.00     0.151 A 
ENDBRANCH   4  16
TORSDOF 2
ENDMDL
