/Users/jonathanwahrer/Desktop/Msc/3_Semester/Drug_Design_Praktikum/waehrer_HTS_screening/HTS_experiment/out/docking_results/vina_output/3sx0/1255_docked.pdbqt
 OpenBabel03192222253D

 34 38  0  0  1  0  0  0  0  0999 V2000
   10.6450   63.8810  -15.2740 C   0  0  1  0  0  3  0  0  0  0  0  0
   11.9660   63.9160  -15.9900 C   0  0  2  0  0  3  0  0  0  0  0  0
   12.5250   62.4950  -16.0290 C   0  0  0  0  0  0  0  0  0  0  0  0
   12.8770   61.9130  -14.7530 N   0  0  0  0  0  0  0  0  0  0  0  0
   12.6390   61.9460  -17.1240 O   0  0  0  0  0  0  0  0  0  0  0  0
   13.2610   62.6800  -13.7840 C   0  0  0  0  0  0  0  0  0  0  0  0
   13.7570   62.2960  -12.1130 S   0  0  0  0  0  0  0  0  0  0  0  0
   13.3700   64.0820  -13.9050 N   0  0  0  0  0  0  0  0  0  0  0  0
   14.0880   63.9870  -11.6410 C   0  0  0  0  0  0  0  0  0  0  0  0
   13.8000   64.7520  -12.7910 N   0  0  0  0  0  0  0  0  0  0  0  0
   14.5130   64.3990  -10.4500 C   0  0  0  0  0  2  0  0  0  0  0  0
   13.9370   65.8240  -12.7500 H   0  0  0  0  0  0  0  0  0  0  0  0
   13.0220   64.6330  -15.2080 C   0  0  0  0  0  0  0  0  0  0  0  0
   13.6090   65.6710  -15.6270 O   0  0  0  0  0  0  0  0  0  0  0  0
    9.6600   64.9290  -15.6080 C   0  0  2  0  0  3  0  0  0  0  0  0
   10.1210   66.0830  -16.3650 C   0  0  0  0  0  0  0  0  0  0  0  0
    9.8780   66.1650  -17.6170 O   0  0  0  0  0  0  0  0  0  0  0  0
   10.8570   67.1630  -15.7330 N   0  0  0  0  0  0  0  0  0  0  0  0
   11.7100   68.0450  -16.3130 N   0  0  0  0  0  0  0  0  0  0  0  0
   10.6410   67.3000  -14.3470 C   0  0  0  0  0  0  0  0  0  0  0  0
   12.3050   69.0220  -15.4770 C   0  0  0  0  0  0  0  0  0  0  0  0
   11.9680   68.0620  -17.3600 H   0  0  0  0  0  0  0  0  0  0  0  0
   13.1490   69.9840  -15.7780 C   0  0  0  0  0  2  0  0  0  0  0  0
   11.6530   68.6790  -13.8440 S   0  0  0  0  0  0  0  0  0  0  0  0
    9.8580   66.5440  -13.6630 N   0  0  0  0  0  0  0  0  0  0  0  0
    9.1320   65.4740  -14.2920 C   0  0  0  0  0  0  0  0  0  0  0  0
    8.1000   64.9640  -13.8340 O   0  0  0  0  0  0  0  0  0  0  0  0
   10.0120   62.5340  -15.3680 C   0  0  0  0  0  0  0  0  0  0  0  0
    9.5910   62.0260  -16.5750 C   0  0  0  0  0  3  0  0  0  0  0  0
    9.0050   60.7850  -16.6670 C   0  0  0  0  0  3  0  0  0  0  0  0
    8.8330   60.0300  -15.5290 C   0  0  0  0  0  0  0  0  0  0  0  0
    9.2450   60.5080  -14.2830 C   0  0  0  0  0  3  0  0  0  0  0  0
    8.0220   58.3000  -15.6240 Br  0  0  0  0  0  0  0  0  0  0  0  0
    9.8280   61.7570  -14.2330 C   0  0  0  0  0  3  0  0  0  0  0  0
  1 28  1  6  0  0  0
  2  1  1  1  0  0  0
  2 13  1  0  0  0  0
  3  2  1  0  0  0  0
  3  4  1  0  0  0  0
  4  6  2  0  0  0  0
  5  3  2  0  0  0  0
  6  7  1  0  0  0  0
  7  9  1  0  0  0  0
  8  6  1  0  0  0  0
  8 10  1  0  0  0  0
  9 11  2  0  0  0  0
 10 12  1  0  0  0  0
 10  9  1  0  0  0  0
 13  8  1  0  0  0  0
 14 13  2  0  0  0  0
 15  1  1  1  0  0  0
 15 26  1  0  0  0  0
 16 18  1  0  0  0  0
 16 15  1  0  0  0  0
 17 16  2  0  0  0  0
 18 20  1  0  0  0  0
 19 18  1  0  0  0  0
 19 21  1  0  0  0  0
 20 24  1  0  0  0  0
 20 25  2  0  0  0  0
 21 24  1  0  0  0  0
 22 19  1  0  0  0  0
 23 21  2  0  0  0  0
 26 27  2  0  0  0  0
 26 25  1  0  0  0  0
 28 34  1  0  0  0  0
 29 28  2  0  0  0  0
 30 29  1  0  0  0  0
 30 31  2  0  0  0  0
 31 32  1  0  0  0  0
 32 34  2  0  0  0  0
 33 31  1  0  0  0  0
M  END
>  <Pose>
1

>  <Score>
-2.097

$$$$
