MODEL 1
REMARK VINA RESULT:    -2.097      0.000      0.000
REMARK INTER + INTRA:          -2.505
REMARK INTER:                  -2.465
REMARK INTRA:                  -0.040
REMARK UNBOUND:                -0.040
REMARK  3 active torsions:
REMARK  status: ('A' for Active; 'I' for Inactive)
REMARK    1  A    between atoms: C_6  and  C_13 
REMARK    2  A    between atoms: C_13  and  C_14 
REMARK    3  A    between atoms: C_13  and  C_26 
ROOT
ATOM      1  C   UNK d   1      10.645  63.881 -15.274  0.00  0.00     0.063 C 
ENDROOT
BRANCH   1   2
ATOM      2  C   UNK d   1      11.966  63.916 -15.990  0.00  0.00     0.184 C 
ATOM      3  C   UNK d   1      12.525  62.495 -16.029  0.00  0.00     0.259 C 
ATOM      4  N   UNK d   1      12.877  61.913 -14.753  0.00  0.00    -0.186 NA
ATOM      5  O   UNK d   1      12.639  61.946 -17.124  0.00  0.00    -0.270 OA
ATOM      6  C   UNK d   1      13.261  62.680 -13.784  0.00  0.00     0.200 A 
ATOM      7  S   UNK d   1      13.757  62.296 -12.113  0.00  0.00    -0.032 SA
ATOM      8  N   UNK d   1      13.370  64.082 -13.905  0.00  0.00    -0.197 N 
ATOM      9  C   UNK d   1      14.088  63.987 -11.641  0.00  0.00     0.083 A 
ATOM     10  N   UNK d   1      13.800  64.752 -12.791  0.00  0.00    -0.283 N 
ATOM     11  C   UNK d   1      14.513  64.399 -10.450  0.00  0.00     0.052 C 
ATOM     12  H   UNK d   1      13.937  65.824 -12.750  0.00  0.00     0.188 HD
ATOM     13  C   UNK d   1      13.022  64.633 -15.208  0.00  0.00     0.259 C 
ATOM     14  O   UNK d   1      13.609  65.671 -15.627  0.00  0.00    -0.270 OA
ENDBRANCH   1   2
BRANCH   1  15
ATOM     15  C   UNK d   1       9.660  64.929 -15.608  0.00  0.00     0.184 C 
ATOM     16  C   UNK d   1      10.121  66.083 -16.365  0.00  0.00     0.259 C 
ATOM     17  O   UNK d   1       9.878  66.165 -17.617  0.00  0.00    -0.270 OA
ATOM     18  N   UNK d   1      10.857  67.163 -15.733  0.00  0.00    -0.197 N 
ATOM     19  N   UNK d   1      11.710  68.045 -16.313  0.00  0.00    -0.283 N 
ATOM     20  C   UNK d   1      10.641  67.300 -14.347  0.00  0.00     0.200 A 
ATOM     21  C   UNK d   1      12.305  69.022 -15.477  0.00  0.00     0.083 A 
ATOM     22  H   UNK d   1      11.968  68.062 -17.360  0.00  0.00     0.188 HD
ATOM     23  C   UNK d   1      13.149  69.984 -15.778  0.00  0.00     0.052 C 
ATOM     24  S   UNK d   1      11.653  68.679 -13.844  0.00  0.00    -0.032 SA
ATOM     25  N   UNK d   1       9.858  66.544 -13.663  0.00  0.00    -0.186 NA
ATOM     26  C   UNK d   1       9.132  65.474 -14.292  0.00  0.00     0.259 C 
ATOM     27  O   UNK d   1       8.100  64.964 -13.834  0.00  0.00    -0.270 OA
ENDBRANCH   1  15
BRANCH   1  28
ATOM     28  C   UNK d   1      10.012  62.534 -15.368  0.00  0.00    -0.051 A 
ATOM     29  C   UNK d   1       9.591  62.026 -16.575  0.00  0.00     0.009 A 
ATOM     30  C   UNK d   1       9.005  60.785 -16.667  0.00  0.00     0.019 A 
ATOM     31  C   UNK d   1       8.833  60.030 -15.529  0.00  0.00     0.011 A 
ATOM     32  C   UNK d   1       9.245  60.508 -14.283  0.00  0.00     0.019 A 
ATOM     33 Br   UNK d   1       8.022  58.300 -15.624  0.00  0.00    -0.051 Br
ATOM     34  C   UNK d   1       9.828  61.757 -14.233  0.00  0.00     0.009 A 
ENDBRANCH   1  28
TORSDOF 3
ENDMDL
