/Users/jonathanwahrer/Desktop/Msc/3_Semester/Drug_Design_Praktikum/waehrer_HTS_screening/HTS_experiment/out/docking_results/vina_output/3sx0/1256_docked.pdbqt
 OpenBabel03192222253D

 30 33  0  0  0  0  0  0  0  0999 V2000
   21.0950   63.7750   -7.0980 S   0  0  0  0  0  0  0  0  0  0  0  0
   20.7280   63.6900   -8.7680 C   0  0  0  0  0  0  0  0  0  0  0  0
   19.5760   63.7970   -9.5010 N   0  0  0  0  0  0  0  0  0  0  0  0
   19.5950   63.7180  -10.8410 C   0  0  0  0  0  0  0  0  0  0  0  0
   18.6010   63.8050  -11.5870 O   0  0  0  0  0  0  0  0  0  0  0  0
   20.8380   63.5250  -11.3960 C   0  0  0  0  0  3  0  0  0  0  0  0
   21.9900   63.4160  -10.6740 C   0  0  0  0  0  0  0  0  0  0  0  0
   21.9370   63.5030   -9.3050 N   0  0  0  0  0  0  0  0  0  0  0  0
   22.9380   63.4450   -8.5140 N   0  0  0  0  0  0  0  0  0  0  0  0
   22.8040   63.5620   -7.2230 C   0  0  0  0  0  0  0  0  0  0  0  0
   23.2390   63.2240  -11.4090 C   0  0  0  0  0  0  0  0  0  0  0  0
   24.1890   62.5490  -10.8670 O   0  0  0  0  0  0  0  0  0  0  0  0
   23.5010   63.7360  -12.6960 N   0  0  0  0  0  0  0  0  0  0  0  0
   22.8020   64.3120  -13.2030 H   0  0  0  0  0  0  0  0  0  0  0  0
   24.7840   63.4670  -13.3360 C   0  0  0  0  0  2  0  0  0  0  0  0
   24.6280   63.3790  -14.8080 C   0  0  0  0  0  0  0  0  0  0  0  0
   25.7360   63.0870  -15.5880 C   0  0  0  0  0  0  0  0  0  0  0  0
   25.6110   63.0450  -16.9550 C   0  0  0  0  0  3  0  0  0  0  0  0
   24.4190   63.2850  -17.5860 C   0  0  0  0  0  3  0  0  0  0  0  0
   23.3090   63.5770  -16.8160 C   0  0  0  0  0  0  0  0  0  0  0  0
   23.4380   63.6170  -15.4370 C   0  0  0  0  0  3  0  0  0  0  0  0
   21.6100   63.9170  -17.6160 Br  0  0  0  0  0  0  0  0  0  0  0  0
   26.9280   62.8490  -14.9430 O   0  0  0  0  0  0  0  0  0  0  0  0
   28.1270   63.3570  -15.5280 C   0  0  0  0  0  1  0  0  0  0  0  0
   23.8020   63.5450   -6.1750 N   0  0  0  0  0  0  0  0  0  0  0  0
   25.0780   62.9840   -6.4070 C   0  0  0  0  0  2  0  0  0  0  0  0
   25.8970   63.0040   -5.1380 C   0  0  0  0  0  2  0  0  0  0  0  0
   25.0820   62.6850   -4.0490 O   0  0  0  0  0  0  0  0  0  0  0  0
   24.2240   63.7530   -3.7590 C   0  0  0  0  0  2  0  0  0  0  0  0
   23.3860   64.1230   -4.9430 C   0  0  0  0  0  2  0  0  0  0  0  0
  2  1  1  0  0  0  0
  3  2  2  0  0  0  0
  4  3  1  0  0  0  0
  5  4  2  0  0  0  0
  6  4  1  0  0  0  0
  6  7  2  0  0  0  0
  7  8  1  0  0  0  0
  8  2  1  0  0  0  0
  8  9  1  0  0  0  0
  9 10  2  0  0  0  0
 10  1  1  0  0  0  0
 10 25  1  0  0  0  0
 11 12  2  0  0  0  0
 11  7  1  0  0  0  0
 13 11  1  0  0  0  0
 14 13  1  0  0  0  0
 15 13  1  0  0  0  0
 16 15  1  0  0  0  0
 17 23  1  0  0  0  0
 17 16  2  0  0  0  0
 18 17  1  0  0  0  0
 19 18  2  0  0  0  0
 19 20  1  0  0  0  0
 20 21  2  0  0  0  0
 21 16  1  0  0  0  0
 22 20  1  0  0  0  0
 24 23  1  0  0  0  0
 25 30  1  0  0  0  0
 26 25  1  0  0  0  0
 26 27  1  0  0  0  0
 27 28  1  0  0  0  0
 28 29  1  0  0  0  0
 30 29  1  0  0  0  0
M  END
>  <Pose>
1

>  <Score>
-8.022

$$$$
