MODEL 1
REMARK VINA RESULT:    -8.022      0.000      0.000
REMARK INTER + INTRA:         -10.704
REMARK INTER:                 -10.366
REMARK INTRA:                  -0.338
REMARK UNBOUND:                -0.338
REMARK  5 active torsions:
REMARK  status: ('A' for Active; 'I' for Inactive)
REMARK    1  A    between atoms: C_7  and  C_17 
REMARK    2  A    between atoms: C_10  and  N_11 
REMARK       I    between atoms: C_17  and  N_19 
REMARK    3  A    between atoms: N_19  and  C_20 
REMARK    4  A    between atoms: C_20  and  C_21 
REMARK    5  A    between atoms: C_22  and  O_28 
ROOT
ATOM      1  S   UNK d   1      21.095  63.775  -7.098  0.00  0.00    -0.010 SA
ATOM      2  C   UNK d   1      20.728  63.690  -8.768  0.00  0.00     0.201 A 
ATOM      3  N   UNK d   1      19.576  63.797  -9.501  0.00  0.00    -0.183 NA
ATOM      4  C   UNK d   1      19.595  63.718 -10.841  0.00  0.00     0.271 A 
ATOM      5  O   UNK d   1      18.601  63.805 -11.587  0.00  0.00    -0.266 OA
ATOM      6  C   UNK d   1      20.838  63.525 -11.396  0.00  0.00     0.114 A 
ATOM      7  C   UNK d   1      21.990  63.416 -10.674  0.00  0.00     0.134 A 
ATOM      8  N   UNK d   1      21.937  63.503  -9.305  0.00  0.00    -0.201 N 
ATOM      9  N   UNK d   1      22.938  63.445  -8.514  0.00  0.00    -0.139 NA
ATOM     10  C   UNK d   1      22.804  63.562  -7.223  0.00  0.00     0.192 A 
ENDROOT
BRANCH   7  11
ATOM     11  C   UNK d   1      23.239  63.224 -11.409  0.00  0.00     0.270 C 
ATOM     12  O   UNK d   1      24.189  62.549 -10.867  0.00  0.00    -0.266 OA
ATOM     13  N   UNK d   1      23.501  63.736 -12.696  0.00  0.00    -0.351 N 
ATOM     14  H   UNK d   1      22.802  64.312 -13.203  0.00  0.00     0.163 HD
BRANCH  13  15
ATOM     15  C   UNK d   1      24.784  63.467 -13.336  0.00  0.00     0.164 C 
BRANCH  15  16
ATOM     16  C   UNK d   1      24.628  63.379 -14.808  0.00  0.00    -0.006 A 
ATOM     17  C   UNK d   1      25.736  63.087 -15.588  0.00  0.00     0.076 A 
ATOM     18  C   UNK d   1      25.611  63.045 -16.955  0.00  0.00     0.039 A 
ATOM     19  C   UNK d   1      24.419  63.285 -17.586  0.00  0.00     0.022 A 
ATOM     20  C   UNK d   1      23.309  63.577 -16.816  0.00  0.00     0.011 A 
ATOM     21  C   UNK d   1      23.438  63.617 -15.437  0.00  0.00     0.030 A 
ATOM     22 Br   UNK d   1      21.610  63.917 -17.616  0.00  0.00    -0.051 Br
BRANCH  17  23
ATOM     23  O   UNK d   1      26.928  62.849 -14.943  0.00  0.00    -0.355 OA
ATOM     24  C   UNK d   1      28.127  63.357 -15.528  0.00  0.00     0.210 C 
ENDBRANCH  17  23
ENDBRANCH  15  16
ENDBRANCH  13  15
ENDBRANCH   7  11
BRANCH  10  25
ATOM     25  N   UNK d   1      23.802  63.545  -6.175  0.00  0.00    -0.355 N 
ATOM     26  C   UNK d   1      25.078  62.984  -6.407  0.00  0.00     0.151 C 
ATOM     27  C   UNK d   1      25.897  63.004  -5.138  0.00  0.00     0.187 C 
ATOM     28  O   UNK d   1      25.082  62.685  -4.049  0.00  0.00    -0.388 OA
ATOM     29  C   UNK d   1      24.224  63.753  -3.759  0.00  0.00     0.187 C 
ATOM     30  C   UNK d   1      23.386  64.123  -4.943  0.00  0.00     0.151 C 
ENDBRANCH  10  25
TORSDOF 5
ENDMDL
