/Users/jonathanwahrer/Desktop/Msc/3_Semester/Drug_Design_Praktikum/waehrer_HTS_screening/HTS_experiment/out/docking_results/vina_output/3sx0/1265_docked.pdbqt
 OpenBabel03192222253D

 24 27  0  0  1  0  0  0  0  0999 V2000
   22.3410   63.6580   -9.2250 S   0  0  0  0  0  0  0  0  0  0  0  0
   21.1600   63.2420  -10.5020 C   0  0  1  0  0  3  0  0  0  0  0  0
   19.9050   62.9950  -10.6940 N   0  0  0  0  0  0  0  0  0  0  0  0
   19.6300   62.7200  -12.0550 C   0  0  0  0  0  3  0  0  0  0  0  0
   20.9520   62.8370  -12.7390 C   0  0  0  0  0  3  0  0  0  0  0  0
   21.9270   63.1870  -11.6790 N   0  0  0  0  0  0  0  0  0  0  0  0
   23.2950   63.4530  -11.5430 C   0  0  0  0  0  0  0  0  0  0  0  0
   23.7390   63.7260  -10.3360 C   0  0  0  0  0  3  0  0  0  0  0  0
   18.9370   63.0260   -9.5830 C   0  0  0  0  0  2  0  0  0  0  0  0
   17.8460   62.0960   -9.9380 C   0  0  0  0  0  0  0  0  0  0  0  0
   17.9300   60.8750   -9.6980 O   0  0  0  0  0  0  0  0  0  0  0  0
   16.6410   62.5970  -10.5820 C   0  0  0  0  0  0  0  0  0  0  0  0
   16.5380   63.9330  -10.9740 C   0  0  0  0  0  3  0  0  0  0  0  0
   15.4020   64.4370  -11.5800 C   0  0  0  0  0  3  0  0  0  0  0  0
   14.3590   63.5750  -11.7900 C   0  0  0  0  0  0  0  0  0  0  0  0
   14.4120   62.2440  -11.4210 C   0  0  0  0  0  3  0  0  0  0  0  0
   12.7880   64.2840  -12.6330 Br  0  0  0  0  0  0  0  0  0  0  0  0
   15.5700   61.7580  -10.8110 C   0  0  0  0  0  3  0  0  0  0  0  0
   24.2750   63.4600  -12.6780 C   0  0  0  0  0  0  0  0  0  0  0  0
   25.6330   63.4060  -12.4560 C   0  0  0  0  0  3  0  0  0  0  0  0
   26.5760   63.4130  -13.4610 C   0  0  0  0  0  3  0  0  0  0  0  0
   26.1790   63.4770  -14.7770 C   0  0  0  0  0  3  0  0  0  0  0  0
   24.8360   63.5320  -15.0230 C   0  0  0  0  0  3  0  0  0  0  0  0
   23.8810   63.5240  -13.9890 C   0  0  0  0  0  3  0  0  0  0  0  0
  2  1  1  6  0  0  0
  3  2  1  0  0  0  0
  3  9  1  0  0  0  0
  4  3  1  0  0  0  0
  5  4  2  0  0  0  0
  5  6  1  0  0  0  0
  6  7  1  0  0  0  0
  6  2  1  0  0  0  0
  7  8  2  0  0  0  0
  8  1  1  0  0  0  0
 10 11  2  0  0  0  0
 10  9  1  0  0  0  0
 12 10  1  0  0  0  0
 13 12  2  0  0  0  0
 14 13  1  0  0  0  0
 15 14  2  0  0  0  0
 15 16  1  0  0  0  0
 16 18  2  0  0  0  0
 17 15  1  0  0  0  0
 18 12  1  0  0  0  0
 19 20  1  0  0  0  0
 19  7  1  0  0  0  0
 21 20  2  0  0  0  0
 22 21  1  0  0  0  0
 23 22  2  0  0  0  0
 23 24  1  0  0  0  0
 24 19  2  0  0  0  0
M  END
>  <Pose>
1

>  <Score>
-9.189

$$$$
