MODEL 1
REMARK VINA RESULT:    -8.401      0.000      0.000
REMARK INTER + INTRA:          -9.653
REMARK INTER:                  -9.383
REMARK INTRA:                  -0.270
REMARK UNBOUND:                -0.270
REMARK  2 active torsions:
REMARK  status: ('A' for Active; 'I' for Inactive)
REMARK    1  A    between atoms: C_3  and  C_8 
REMARK       I    between atoms: N_12  and  C_14 
REMARK    2  A    between atoms: C_14  and  C_16 
ROOT
ATOM      1  C   UNK d   1      20.085  63.670 -11.445  0.00  0.00     0.273 C 
ATOM      2  N   UNK d   1      21.142  62.877 -12.061  0.00  0.00     0.095 NA
ATOM      3  C   UNK d   1      22.449  63.024 -11.619  0.00  0.00     0.290 C 
ATOM      4  C   UNK d   1      22.705  63.504 -10.206  0.00  0.00     0.155 C 
ATOM      5  N   UNK d   1      21.680  64.301  -9.688  0.00  0.00    -0.355 N 
ATOM      6  C   UNK d   1      20.619  64.701 -10.562  0.00  0.00     0.165 C 
ATOM      7  C   UNK d   1      21.573  64.768  -8.353  0.00  0.00     0.189 C 
ATOM      8  O   UNK d   1      20.583  65.620  -8.211  0.00  0.00    -0.171 OA
ATOM      9  H   UNK d   1      20.844  61.885 -12.153  0.00  0.00     0.316 HD
ENDROOT
BRANCH   7  10
ATOM     10  C   UNK d   1      22.299  64.499  -7.165  0.00  0.00     0.038 A 
ATOM     11  C   UNK d   1      21.598  64.603  -5.939  0.00  0.00     0.135 A 
ATOM     12  N   UNK d   1      22.163  64.240  -4.788  0.00  0.00    -0.234 NA
ATOM     13  C   UNK d   1      23.408  63.764  -4.734  0.00  0.00     0.192 A 
ATOM     14  C   UNK d   1      24.136  63.641  -5.886  0.00  0.00     0.089 A 
ATOM     15  O   UNK d   1      23.986  63.391  -3.515  0.00  0.00    -0.323 OA
ATOM     16  C   UNK d   1      23.583  64.010  -7.110  0.00  0.00     0.051 A 
ATOM     17  N   UNK d   1      25.460  63.100  -5.846  0.00  0.00    -0.322 N 
ATOM     18  C   UNK d   1      25.993  62.697  -4.583  0.00  0.00     0.246 C 
ATOM     19  H   UNK d   1      26.029  62.990  -6.698  0.00  0.00     0.169 HD
ATOM     20  O   UNK d   1      26.899  61.851  -4.438  0.00  0.00    -0.271 OA
ATOM     21  C   UNK d   1      25.414  63.342  -3.364  0.00  0.00     0.280 C 
ENDBRANCH   7  10
BRANCH   1  22
ATOM     22  C   UNK d   1      19.212  62.657 -10.753  0.00  0.00    -0.002 A 
ATOM     23  C   UNK d   1      17.822  62.824 -10.847  0.00  0.00     0.042 A 
ATOM     24 Cl   UNK d   1      17.236  64.302 -11.638  0.00  0.00    -0.084 Cl
ATOM     25  C   UNK d   1      16.917  61.907 -10.357  0.00  0.00     0.024 A 
ATOM     26  C   UNK d   1      17.391  60.756  -9.736  0.00  0.00     0.002 A 
ATOM     27  C   UNK d   1      18.762  60.593  -9.645  0.00  0.00     0.001 A 
ATOM     28  C   UNK d   1      19.659  61.522 -10.142  0.00  0.00     0.011 A 
ENDBRANCH   1  22
TORSDOF 2
ENDMDL
