/Users/jonathanwahrer/Desktop/Msc/3_Semester/Drug_Design_Praktikum/waehrer_HTS_screening/HTS_experiment/out/docking_results/vina_output/3sx0/1271_docked.pdbqt
 OpenBabel03192222263D

 35 38  0  0  0  0  0  0  0  0999 V2000
   20.0890   62.8930  -11.5250 C   0  0  0  0  0  0  0  0  0  0  0  0
   20.0660   62.3610  -12.7540 N   0  0  0  0  0  0  0  0  0  0  0  0
   21.2870   62.4420  -13.2190 N   0  0  0  0  0  0  0  0  0  0  0  0
   22.0890   63.0100  -12.3230 N   0  0  0  0  0  0  0  0  0  0  0  0
   21.3960   63.3170  -11.2380 C   0  0  0  0  0  0  0  0  0  0  0  0
   18.9300   62.9860  -10.6560 C   0  0  0  0  0  0  0  0  0  0  0  0
   18.1270   64.1480  -10.5770 N   0  0  0  0  0  0  0  0  0  0  0  0
   18.3320   65.0140  -11.1420 H   0  0  0  0  0  0  0  0  0  0  0  0
   18.6340   61.9940   -9.9520 O   0  0  0  0  0  0  0  0  0  0  0  0
   17.0120   64.2230   -9.7420 N   0  0  0  0  0  0  0  0  0  0  0  0
   16.9790   63.9120   -8.7570 H   0  0  0  0  0  0  0  0  0  0  0  0
   15.7960   64.7800  -10.2850 C   0  0  0  0  0  0  0  0  0  0  0  0
   15.5130   66.0330  -10.0270 C   0  0  0  0  0  2  0  0  0  0  0  0
   14.9360   63.9240  -11.0770 C   0  0  0  0  0  0  0  0  0  0  0  0
   14.1630   64.4670  -12.1040 C   0  0  0  0  0  3  0  0  0  0  0  0
   13.3560   63.6650  -12.8720 C   0  0  0  0  0  0  0  0  0  0  0  0
   12.2960   64.3930  -14.2740 Br  0  0  0  0  0  0  0  0  0  0  0  0
   13.2770   62.2990  -12.6610 C   0  0  0  0  0  3  0  0  0  0  0  0
   14.0260   61.7580  -11.6620 C   0  0  0  0  0  3  0  0  0  0  0  0
   14.8460   62.5770  -10.8840 C   0  0  0  0  0  3  0  0  0  0  0  0
   21.7430   63.9740   -9.9980 C   0  0  0  0  0  2  0  0  0  0  0  0
   21.7410   63.1450   -8.8090 N   0  0  0  0  0  0  0  0  0  0  0  0
   23.0660   63.1160   -8.1970 C   0  0  0  0  0  2  0  0  0  0  0  0
   23.6580   64.5020   -8.0660 C   0  0  0  0  0  2  0  0  0  0  0  0
   22.7250   65.3890   -7.2620 C   0  0  0  0  0  2  0  0  0  0  0  0
   21.5120   64.6250   -6.8120 C   0  0  0  0  0  2  0  0  0  0  0  0
   20.8670   63.7430   -7.8040 C   0  0  0  0  0  2  0  0  0  0  0  0
   23.4640   63.2580  -12.5480 C   0  0  0  0  0  0  0  0  0  0  0  0
   24.4200   63.0480  -11.6010 N   0  0  0  0  0  0  0  0  0  0  0  0
   25.5620   63.3730  -12.1190 O   0  0  0  0  0  0  0  0  0  0  0  0
   25.4300   63.7810  -13.3300 N   0  0  0  0  0  0  0  0  0  0  0  0
   24.1290   63.7260  -13.6430 C   0  0  0  0  0  0  0  0  0  0  0  0
   23.5290   64.0780  -14.8610 N   0  0  0  0  0  0  0  0  0  0  0  0
   22.5680   64.4660  -14.9840 H   0  0  0  0  0  0  0  0  0  0  0  0
   24.0730   63.9470  -15.7420 H   0  0  0  0  0  0  0  0  0  0  0  0
  1  5  2  0  0  0  0
  1  6  1  0  0  0  0
  2  1  1  0  0  0  0
  3  2  2  0  0  0  0
  3  4  1  0  0  0  0
  4  5  1  0  0  0  0
  5 21  1  0  0  0  0
  6  7  1  0  0  0  0
  6  9  2  0  0  0  0
  7 10  1  0  0  0  0
  8  7  1  0  0  0  0
 10 11  1  0  0  0  0
 12 13  2  0  0  0  0
 12 10  1  0  0  0  0
 14 20  1  0  0  0  0
 14 12  1  0  0  0  0
 15 14  2  0  0  0  0
 16 18  2  0  0  0  0
 16 15  1  0  0  0  0
 17 16  1  0  0  0  0
 18 19  1  0  0  0  0
 19 20  2  0  0  0  0
 21 22  1  0  0  0  0
 22 23  1  0  0  0  0
 22 27  1  0  0  0  0
 23 24  1  0  0  0  0
 24 25  1  0  0  0  0
 25 26  1  0  0  0  0
 27 26  1  0  0  0  0
 28  4  1  0  0  0  0
 28 29  2  0  0  0  0
 30 29  1  0  0  0  0
 31 30  1  0  0  0  0
 32 31  2  0  0  0  0
 32 28  1  0  0  0  0
 33 32  1  0  0  0  0
 34 33  1  0  0  0  0
 35 33  1  0  0  0  0
M  END
>  <Pose>
1

>  <Score>
-8.521

$$$$
