/Users/jonathanwahrer/Desktop/Msc/3_Semester/Drug_Design_Praktikum/waehrer_HTS_screening/HTS_experiment/out/docking_results/vina_output/3sx0/1280_docked.pdbqt
 OpenBabel03192222263D

 35 38  0  0  1  0  0  0  0  0999 V2000
   11.3580   66.0850  -15.2870 C   0  0  1  0  0  3  0  0  0  0  0  0
   11.7670   65.5590  -16.5740 N   0  0  0  0  0  0  0  0  0  0  0  0
   13.1840   65.5840  -16.5990 C   0  0  0  0  0  0  0  0  0  0  0  0
   13.8810   65.6550  -17.6160 O   0  0  0  0  0  0  0  0  0  0  0  0
   13.6270   65.5070  -15.1960 C   0  0  0  0  0  0  0  0  0  0  0  0
   14.8050   65.4930  -14.7640 O   0  0  0  0  0  0  0  0  0  0  0  0
   12.3990   65.4470  -14.4130 C   0  0  0  0  0  0  0  0  0  0  0  0
   12.2790   64.9010  -13.2110 C   0  0  0  0  0  0  0  0  0  0  0  0
   10.9750   64.9180  -12.6640 O   0  0  0  0  0  1  0  0  0  0  0  0
   11.4120   67.5540  -15.2920 C   0  0  0  0  0  0  0  0  0  0  0  0
   11.6660   68.2470  -14.1170 C   0  0  0  0  0  3  0  0  0  0  0  0
   11.7450   69.6440  -14.0950 C   0  0  0  0  0  0  0  0  0  0  0  0
   12.0990   70.5700  -12.4490 Br  0  0  0  0  0  0  0  0  0  0  0  0
   11.5720   70.3620  -15.2510 C   0  0  0  0  0  3  0  0  0  0  0  0
   11.3210   69.6890  -16.4230 C   0  0  0  0  0  3  0  0  0  0  0  0
   11.2450   68.3030  -16.4250 C   0  0  0  0  0  3  0  0  0  0  0  0
   13.3870   64.3120  -12.4670 C   0  0  0  0  0  0  0  0  0  0  0  0
   13.6390   62.9750  -12.3870 C   0  0  0  0  0  0  0  0  0  0  0  0
   14.7020   62.4890  -11.6040 C   0  0  0  0  0  3  0  0  0  0  0  0
   12.8260   62.0100  -13.1630 C   0  0  0  0  0  1  0  0  0  0  0  0
   15.5300   63.3140  -10.8920 C   0  0  0  0  0  0  0  0  0  0  0  0
   15.2770   64.6670  -10.9730 C   0  0  0  0  0  3  0  0  0  0  0  0
   14.2450   65.1520  -11.7320 C   0  0  0  0  0  3  0  0  0  0  0  0
   16.5860   62.8370  -10.1150 O   0  0  0  0  0  0  0  0  0  0  0  0
   17.3240   61.7140  -10.5230 C   0  0  0  0  0  1  0  0  0  0  0  0
   10.8500   65.1160  -17.6040 C   0  0  0  0  0  2  0  0  0  0  0  0
   10.0990   63.8720  -17.2440 C   0  0  0  0  0  2  0  0  0  0  0  0
   10.8980   62.7880  -16.6270 C   0  0  0  0  0  2  0  0  0  0  0  0
   10.1830   61.9040  -15.7780 N   0  0  0  0  0  4  0  0  0  0  0  0
    9.0750   62.5490  -15.0530 C   0  0  0  0  0  2  0  0  0  0  0  0
    8.8230   61.6610  -13.8320 C   0  0  0  0  0  2  0  0  0  0  0  0
    9.4740   60.4450  -13.9310 O   0  0  0  0  0  0  0  0  0  0  0  0
    9.2060   59.8320  -15.1550 C   0  0  0  0  0  2  0  0  0  0  0  0
    9.6640   60.7080  -16.3360 C   0  0  0  0  0  2  0  0  0  0  0  0
   10.8570   61.6090  -15.0070 H   0  0  0  0  0  0  0  0  0  0  0  0
  1 10  1  6  0  0  0
  1  7  1  0  0  0  0
  2  1  1  0  0  0  0
  3  2  1  0  0  0  0
  3  5  1  0  0  0  0
  4  3  2  0  0  0  0
  5  6  2  0  0  0  0
  5  7  1  0  0  0  0
  7  8  2  0  0  0  0
  8  9  1  0  0  0  0
  8 17  1  0  0  0  0
 10 11  1  0  0  0  0
 11 12  2  0  0  0  0
 12 13  1  0  0  0  0
 14 12  1  0  0  0  0
 15 14  2  0  0  0  0
 16 15  1  0  0  0  0
 16 10  2  0  0  0  0
 17 18  2  0  0  0  0
 17 23  1  0  0  0  0
 18 19  1  0  0  0  0
 19 21  2  0  0  0  0
 20 18  1  0  0  0  0
 21 24  1  0  0  0  0
 22 21  1  0  0  0  0
 23 22  2  0  0  0  0
 25 24  1  0  0  0  0
 26 27  1  0  0  0  0
 26  2  1  0  0  0  0
 27 28  1  0  0  0  0
 28 29  1  0  0  0  0
 29 30  1  0  0  0  0
 29 35  1  0  0  0  0
 30 31  1  0  0  0  0
 32 31  1  0  0  0  0
 33 32  1  0  0  0  0
 34 29  1  0  0  0  0
 34 33  1  0  0  0  0
M  END
>  <Pose>
1

>  <Score>
-4.817

$$$$
