MODEL 1
REMARK VINA RESULT:    -4.817      0.000      0.000
REMARK INTER + INTRA:          -8.301
REMARK INTER:                  -6.788
REMARK INTRA:                  -1.513
REMARK UNBOUND:                -1.513
REMARK  7 active torsions:
REMARK  status: ('A' for Active; 'I' for Inactive)
REMARK    1  A    between atoms: C_4  and  C_8 
REMARK    2  A    between atoms: N_9  and  C_26 
REMARK    3  A    between atoms: C_15  and  C_17 
REMARK    4  A    between atoms: C_20  and  O_23 
REMARK    5  A    between atoms: C_26  and  C_27 
REMARK    6  A    between atoms: C_27  and  C_28 
REMARK    7  A    between atoms: C_28  and  N_29 
ROOT
ATOM      1  C   UNK d   1      11.358  66.085 -15.287  0.00  0.00     0.161 C 
ATOM      2  N   UNK d   1      11.767  65.559 -16.574  0.00  0.00    -0.332 N 
ATOM      3  C   UNK d   1      13.184  65.584 -16.599  0.00  0.00     0.295 C 
ATOM      4  O   UNK d   1      13.881  65.655 -17.616  0.00  0.00    -0.264 OA
ATOM      5  C   UNK d   1      13.627  65.507 -15.196  0.00  0.00     0.250 C 
ATOM      6  O   UNK d   1      14.805  65.493 -14.764  0.00  0.00    -0.282 OA
ATOM      7  C   UNK d   1      12.399  65.447 -14.413  0.00  0.00     0.062 C 
ATOM      8  C   UNK d   1      12.279  64.901 -13.211  0.00  0.00     0.130 C 
ATOM      9  O   UNK d   1      10.975  64.918 -12.664  0.00  0.00    -0.190 OA
ENDROOT
BRANCH   1  10
ATOM     10  C   UNK d   1      11.412  67.554 -15.292  0.00  0.00    -0.029 A 
ATOM     11  C   UNK d   1      11.666  68.247 -14.117  0.00  0.00     0.028 A 
ATOM     12  C   UNK d   1      11.745  69.644 -14.095  0.00  0.00     0.011 A 
ATOM     13 Br   UNK d   1      12.099  70.570 -12.449  0.00  0.00    -0.051 Br
ATOM     14  C   UNK d   1      11.572  70.362 -15.251  0.00  0.00     0.019 A 
ATOM     15  C   UNK d   1      11.321  69.689 -16.423  0.00  0.00     0.002 A 
ATOM     16  C   UNK d   1      11.245  68.303 -16.425  0.00  0.00     0.009 A 
ENDBRANCH   1  10
BRANCH   8  17
ATOM     17  C   UNK d   1      13.387  64.312 -12.467  0.00  0.00     0.007 A 
ATOM     18  C   UNK d   1      13.639  62.975 -12.387  0.00  0.00    -0.046 A 
ATOM     19  C   UNK d   1      14.702  62.489 -11.604  0.00  0.00     0.044 A 
ATOM     20  C   UNK d   1      12.826  62.010 -13.163  0.00  0.00     0.049 C 
ATOM     21  C   UNK d   1      15.530  63.314 -10.892  0.00  0.00     0.068 A 
ATOM     22  C   UNK d   1      15.277  64.667 -10.973  0.00  0.00     0.037 A 
ATOM     23  C   UNK d   1      14.245  65.152 -11.732  0.00  0.00     0.017 A 
BRANCH  21  24
ATOM     24  O   UNK d   1      16.586  62.837 -10.115  0.00  0.00    -0.356 OA
ATOM     25  C   UNK d   1      17.324  61.714 -10.523  0.00  0.00     0.210 C 
ENDBRANCH  21  24
ENDBRANCH   8  17
BRANCH   2  26
ATOM     26  C   UNK d   1      10.850  65.116 -17.604  0.00  0.00     0.129 C 
BRANCH  26  27
ATOM     27  C   UNK d   1      10.099  63.872 -17.244  0.00  0.00     0.048 C 
BRANCH  27  28
ATOM     28  C   UNK d   1      10.898  62.788 -16.627  0.00  0.00     0.236 C 
BRANCH  28  29
ATOM     29  N   UNK d   1      10.183  61.904 -15.778  0.00  0.00    -0.067 N 
ATOM     30  C   UNK d   1       9.075  62.549 -15.053  0.00  0.00     0.261 C 
ATOM     31  C   UNK d   1       8.823  61.661 -13.832  0.00  0.00     0.195 C 
ATOM     32  O   UNK d   1       9.474  60.445 -13.931  0.00  0.00    -0.388 OA
ATOM     33  C   UNK d   1       9.206  59.832 -15.155  0.00  0.00     0.195 C 
ATOM     34  C   UNK d   1       9.664  60.708 -16.336  0.00  0.00     0.261 C 
ATOM     35  H   UNK d   1      10.857  61.609 -15.007  0.00  0.00     0.280 HD
ENDBRANCH  28  29
ENDBRANCH  27  28
ENDBRANCH  26  27
ENDBRANCH   2  26
TORSDOF 7
ENDMDL
