/Users/jonathanwahrer/Desktop/Msc/3_Semester/Drug_Design_Praktikum/waehrer_HTS_screening/HTS_experiment/out/docking_results/vina_output/3sx0/1282_docked.pdbqt
 OpenBabel03192222263D

 30 33  0  0  1  0  0  0  0  0999 V2000
   21.8100   64.0910   -8.1740 C   0  0  2  0  0  3  0  0  0  0  0  0
   20.5580   63.2610   -7.9670 C   0  0  0  0  0  2  0  0  0  0  0  0
   19.8430   63.4370   -9.2160 N   0  0  0  0  0  0  0  0  0  0  0  0
   20.6640   64.1240  -10.1920 C   0  0  1  0  0  3  0  0  0  0  0  0
   22.0750   63.8820   -9.6380 C   0  0  0  0  0  2  0  0  0  0  0  0
   20.4760   63.4830  -11.4930 C   0  0  0  0  0  0  0  0  0  0  0  0
   21.4380   63.0830  -12.1640 O   0  0  0  0  0  0  0  0  0  0  0  0
   19.1490   63.3310  -11.9710 N   0  0  0  0  0  0  0  0  0  0  0  0
   18.0580   63.2410  -11.0260 C   0  0  1  0  0  3  0  0  0  0  0  0
   18.5200   63.0660   -9.6310 C   0  0  0  0  0  0  0  0  0  0  0  0
   17.7390   62.5780   -8.7720 O   0  0  0  0  0  0  0  0  0  0  0  0
   18.9200   63.2790  -12.9890 H   0  0  0  0  0  0  0  0  0  0  0  0
   22.9000   63.6280   -7.3330 N   0  0  0  0  0  0  0  0  0  0  0  0
   22.8870   64.0180   -5.9790 C   0  0  0  0  0  0  0  0  0  0  0  0
   21.9290   64.7570   -5.5430 O   0  0  0  0  0  0  0  0  0  0  0  0
   23.6660   63.0410   -7.6900 H   0  0  0  0  0  0  0  0  0  0  0  0
   23.9250   63.6130   -5.0470 C   0  0  0  0  0  0  0  0  0  0  0  0
   25.0470   62.9280   -5.4970 C   0  0  0  0  0  3  0  0  0  0  0  0
   26.0290   62.5500   -4.6250 C   0  0  0  0  0  0  0  0  0  0  0  0
   27.5690   61.6070   -5.2580 Br  0  0  0  0  0  0  0  0  0  0  0  0
   25.9450   62.8290   -3.2900 C   0  0  0  0  0  3  0  0  0  0  0  0
   24.8380   63.5060   -2.8420 C   0  0  0  0  0  3  0  0  0  0  0  0
   23.8370   63.8940   -3.7190 C   0  0  0  0  0  3  0  0  0  0  0  0
   17.0770   64.3860  -11.1610 C   0  0  0  0  0  2  0  0  0  0  0  0
   15.7240   63.9490  -11.5450 C   0  0  0  0  0  0  0  0  0  0  0  0
   15.2660   62.7040  -11.1530 C   0  0  0  0  0  3  0  0  0  0  0  0
   14.0030   62.2890  -11.5070 C   0  0  0  0  0  3  0  0  0  0  0  0
   13.1440   63.0700  -12.2560 C   0  0  0  0  0  3  0  0  0  0  0  0
   13.5980   64.3110  -12.6490 C   0  0  0  0  0  3  0  0  0  0  0  0
   14.8620   64.7450  -12.3030 C   0  0  0  0  0  3  0  0  0  0  0  0
  1  2  1  0  0  0  0
  1 13  1  1  0  0  0
  3  2  1  0  0  0  0
  4  5  1  1  0  0  0
  4  3  1  0  0  0  0
  5  1  1  0  0  0  0
  6  4  1  0  0  0  0
  7  6  2  0  0  0  0
  8  6  1  0  0  0  0
  8  9  1  0  0  0  0
  9 24  1  1  0  0  0
  9 10  1  0  0  0  0
 10  3  1  0  0  0  0
 10 11  2  0  0  0  0
 12  8  1  0  0  0  0
 13 14  1  0  0  0  0
 14 15  2  0  0  0  0
 14 17  1  0  0  0  0
 16 13  1  0  0  0  0
 17 23  1  0  0  0  0
 18 17  2  0  0  0  0
 18 19  1  0  0  0  0
 19 21  2  0  0  0  0
 20 19  1  0  0  0  0
 21 22  1  0  0  0  0
 23 22  2  0  0  0  0
 25 24  1  0  0  0  0
 25 26  1  0  0  0  0
 27 26  2  0  0  0  0
 28 27  1  0  0  0  0
 29 30  1  0  0  0  0
 29 28  2  0  0  0  0
 30 25  2  0  0  0  0
M  END
>  <Pose>
1

>  <Score>
-8.754

$$$$
