/Users/jonathanwahrer/Desktop/Msc/3_Semester/Drug_Design_Praktikum/waehrer_HTS_screening/HTS_experiment/out/docking_results/vina_output/3sx0/1285_docked.pdbqt
 OpenBabel03192222273D

 34 37  0  0  1  0  0  0  0  0999 V2000
   21.8830   64.3110   -9.9630 C   0  0  1  0  0  3  0  0  0  0  0  0
   20.5730   63.7110  -10.1300 N   0  0  0  0  0  0  0  0  0  0  0  0
   20.5560   62.4680   -9.3950 C   0  0  0  0  0  0  0  0  0  0  0  0
   19.8340   61.4830   -9.5860 O   0  0  0  0  0  0  0  0  0  0  0  0
   21.5850   62.6320   -8.3710 C   0  0  0  0  0  0  0  0  0  0  0  0
   21.9500   61.8070   -7.4810 O   0  0  0  0  0  0  0  0  0  0  0  0
   22.1710   63.9530   -8.5270 C   0  0  0  0  0  0  0  0  0  0  0  0
   22.8460   64.6660   -7.6400 C   0  0  0  0  0  0  0  0  0  0  0  0
   23.3750   65.9170   -8.0660 O   0  0  0  0  0  1  0  0  0  0  0  0
   22.9230   63.7690  -10.8470 C   0  0  0  0  0  0  0  0  0  0  0  0
   22.7610   63.9420  -12.2250 C   0  0  0  0  0  3  0  0  0  0  0  0
   23.6900   63.4660  -13.0980 C   0  0  0  0  0  0  0  0  0  0  0  0
   23.4500   63.7140  -14.9760 Br  0  0  0  0  0  0  0  0  0  0  0  0
   24.8070   62.8040  -12.6490 C   0  0  0  0  0  3  0  0  0  0  0  0
   24.9960   62.6180  -11.3000 C   0  0  0  0  0  3  0  0  0  0  0  0
   24.0470   63.1040  -10.4090 C   0  0  0  0  0  3  0  0  0  0  0  0
   23.0370   64.2100   -6.2860 C   0  0  0  0  0  0  0  0  0  0  0  0
   24.1430   63.6700   -5.7310 N   0  0  0  0  0  0  0  0  0  0  0  0
   23.8890   63.4210   -4.4230 C   0  0  0  0  0  0  0  0  0  0  0  0
   25.3580   63.3370   -6.1980 C   0  0  0  0  0  3  0  0  0  0  0  0
   22.6150   63.8030   -4.1320 N   0  0  0  0  0  0  0  0  0  0  0  0
   24.7840   62.8590   -3.5500 C   0  0  0  0  0  0  0  0  0  0  0  0
   22.1000   64.2860   -5.2870 C   0  0  0  0  0  0  0  0  0  0  0  0
   20.7160   64.8170   -5.4250 C   0  0  0  0  0  1  0  0  0  0  0  0
   26.0270   62.5220   -4.0380 C   0  0  0  0  0  3  0  0  0  0  0  0
   24.4510   62.6090   -2.1180 C   0  0  0  0  0  1  0  0  0  0  0  0
   26.2900   62.7720   -5.3700 C   0  0  0  0  0  3  0  0  0  0  0  0
   19.4640   64.2460  -10.9020 C   0  0  0  0  0  2  0  0  0  0  0  0
   18.1430   64.1610  -10.2180 C   0  0  0  0  0  2  0  0  0  0  0  0
   17.1220   63.2990  -10.9180 C   0  0  0  0  0  2  0  0  0  0  0  0
   15.9200   64.0620  -11.1550 N   0  0  0  0  0  4  0  0  0  0  0  0
   14.7610   63.1880  -11.1870 C   0  0  0  0  0  1  0  0  0  0  0  0
   15.7240   64.9670  -10.0390 C   0  0  0  0  0  1  0  0  0  0  0  0
   15.9860   64.6600  -12.0070 H   0  0  0  0  0  0  0  0  0  0  0  0
  1 10  1  6  0  0  0
  1  7  1  0  0  0  0
  2  1  1  0  0  0  0
  2  3  1  0  0  0  0
  3  5  1  0  0  0  0
  4  3  2  0  0  0  0
  5  6  2  0  0  0  0
  7  5  1  0  0  0  0
  7  8  2  0  0  0  0
  8 17  1  0  0  0  0
  9  8  1  0  0  0  0
 10 16  1  0  0  0  0
 11 10  2  0  0  0  0
 12 14  2  0  0  0  0
 12 11  1  0  0  0  0
 13 12  1  0  0  0  0
 14 15  1  0  0  0  0
 15 16  2  0  0  0  0
 17 18  1  0  0  0  0
 17 23  2  0  0  0  0
 18 19  1  0  0  0  0
 19 21  2  0  0  0  0
 19 22  1  0  0  0  0
 20 18  1  0  0  0  0
 20 27  2  0  0  0  0
 22 26  1  0  0  0  0
 23 21  1  0  0  0  0
 24 23  1  0  0  0  0
 25 22  2  0  0  0  0
 27 25  1  0  0  0  0
 28 29  1  0  0  0  0
 28  2  1  0  0  0  0
 30 29  1  0  0  0  0
 31 30  1  0  0  0  0
 31 33  1  0  0  0  0
 32 31  1  0  0  0  0
 34 31  1  0  0  0  0
M  END
>  <Pose>
1

>  <Score>
-1.162

$$$$
