MODEL 1
REMARK VINA RESULT:    -5.020      0.000      0.000
REMARK INTER + INTRA:          -5.199
REMARK INTER:                  -5.313
REMARK INTRA:                   0.114
REMARK UNBOUND:                 0.114
REMARK  1 active torsions:
REMARK  status: ('A' for Active; 'I' for Inactive)
REMARK    1  A    between atoms: C_5  and  C_8 
ROOT
ATOM      1  C   UNK d   1      11.270  63.122 -15.389  0.00  0.00     0.102 A 
ATOM      2  C   UNK d   1      11.450  61.818 -15.987  0.00  0.00     0.068 A 
ATOM      3  C   UNK d   1      10.404  60.949 -16.120  0.00  0.00     0.124 A 
ATOM      4  N   UNK d   1       9.076  61.285 -15.701  0.00  0.00    -0.343 N 
ATOM      5  C   UNK d   1       8.912  62.581 -15.138  0.00  0.00     0.048 A 
ATOM      6  C   UNK d   1       9.893  63.429 -15.003  0.00  0.00     0.055 A 
ATOM      7  C   UNK d   1       9.357  64.694 -14.413  0.00  0.00     0.292 A 
ATOM      8  O   UNK d   1      10.084  65.702 -14.167  0.00  0.00    -0.259 OA
ATOM      9  O   UNK d   1       8.028  64.488 -14.234  0.00  0.00    -0.312 OA
ATOM     10  C   UNK d   1       7.637  63.210 -14.606  0.00  0.00     0.237 A 
ATOM     11  N   UNK d   1      10.618  59.716 -16.683  0.00  0.00    -0.289 N 
ATOM     12  C   UNK d   1      11.838  59.361 -17.101  0.00  0.00     0.332 A 
ATOM     13  O   UNK d   1      12.012  58.220 -17.616  0.00  0.00    -0.246 OA
ATOM     14  N   UNK d   1      12.860  60.222 -16.966  0.00  0.00    -0.270 N 
ATOM     15  C   UNK d   1      12.737  61.434 -16.432  0.00  0.00     0.262 A 
ATOM     16  O   UNK d   1      13.687  62.246 -16.302  0.00  0.00    -0.267 OA
ATOM     17  C   UNK d   1      14.177  59.789 -17.438  0.00  0.00     0.164 C 
ATOM     18  C   UNK d   1       9.464  58.836 -16.796  0.00  0.00     0.163 C 
ATOM     19  H   UNK d   1       8.311  60.597 -15.817  0.00  0.00     0.167 HD
ENDROOT
BRANCH   1  20
ATOM     20  C   UNK d   1      12.246  63.492 -14.368  0.00  0.00    -0.045 A 
ATOM     21  C   UNK d   1      12.897  64.690 -14.381  0.00  0.00     0.009 A 
ATOM     22  C   UNK d   1      13.836  65.016 -13.386  0.00  0.00     0.019 A 
ATOM     23  C   UNK d   1      14.101  64.116 -12.386  0.00  0.00     0.011 A 
ATOM     24 Br   UNK d   1      15.376  64.518 -11.004  0.00  0.00    -0.051 Br
ATOM     25  C   UNK d   1      13.455  62.914 -12.362  0.00  0.00     0.019 A 
ATOM     26  C   UNK d   1      12.519  62.599 -13.362  0.00  0.00     0.009 A 
ENDBRANCH   1  20
TORSDOF 1
ENDMDL
