MODEL 1
REMARK VINA RESULT:    -7.083      0.000      0.000
REMARK INTER + INTRA:          -7.996
REMARK INTER:                  -7.911
REMARK INTRA:                  -0.085
REMARK UNBOUND:                -0.085
REMARK  2 active torsions:
REMARK  status: ('A' for Active; 'I' for Inactive)
REMARK    1  A    between atoms: C_3  and  N_11 
REMARK    2  A    between atoms: C_6  and  N_8 
ROOT
ATOM      1  N   UNK d   1      20.078  63.022 -10.294  0.00  0.00    -0.250 N 
ATOM      2  C   UNK d   1      19.222  61.924 -10.038  0.00  0.00     0.239 C 
ATOM      3  O   UNK d   1      19.522  60.715 -10.110  0.00  0.00    -0.272 OA
ATOM      4  C   UNK d   1      17.874  62.397  -9.658  0.00  0.00     0.127 C 
ATOM      5  C   UNK d   1      17.039  62.390 -10.920  0.00  0.00     0.159 C 
ATOM      6  O   UNK d   1      17.581  63.526 -11.577  0.00  0.00    -0.371 OA
ATOM      7  C   UNK d   1      17.245  64.464 -10.564  0.00  0.00     0.159 C 
ATOM      8  C   UNK d   1      18.029  63.895  -9.412  0.00  0.00     0.127 C 
ATOM      9  C   UNK d   1      19.465  64.150  -9.663  0.00  0.00     0.239 C 
ATOM     10  O   UNK d   1      20.080  65.224  -9.362  0.00  0.00    -0.272 OA
ATOM     11  C   UNK d   1      15.796  64.194 -10.446  0.00  0.00     0.004 C 
ATOM     12  C   UNK d   1      15.668  62.884 -10.640  0.00  0.00     0.004 C 
ENDROOT
BRANCH   1  13
ATOM     13  C   UNK d   1      21.301  63.100 -11.010  0.00  0.00     0.062 A 
ATOM     14  C   UNK d   1      22.509  63.229 -10.363  0.00  0.00     0.040 A 
ATOM     15 Br   UNK d   1      22.458  63.288  -8.449  0.00  0.00    -0.049 Br
ATOM     16  C   UNK d   1      23.723  63.313 -11.041  0.00  0.00     0.057 A 
ATOM     17  C   UNK d   1      23.760  63.268 -12.421  0.00  0.00     0.104 A 
ATOM     18  C   UNK d   1      22.545  63.138 -13.072  0.00  0.00     0.038 A 
ATOM     19  C   UNK d   1      21.347  63.055 -12.404  0.00  0.00     0.034 A 
BRANCH  17  20
ATOM     20  N   UNK d   1      24.984  63.354 -13.140  0.00  0.00    -0.116 N 
ATOM     21  O   UNK d   1      24.932  63.479 -14.376  0.00  0.00    -0.532 OA
ATOM     22  O   UNK d   1      26.223  63.310 -12.562  0.00  0.00    -0.532 OA
ENDBRANCH  17  20
ENDBRANCH   1  13
TORSDOF 2
ENDMDL
