MODEL 1
REMARK VINA RESULT:    15.685      0.000      0.000
REMARK INTER + INTRA:          19.896
REMARK INTER:                  21.187
REMARK INTRA:                  -1.291
REMARK UNBOUND:                -1.291
REMARK  6 active torsions:
REMARK  status: ('A' for Active; 'I' for Inactive)
REMARK    1  A    between atoms: C_4  and  C_8 
REMARK    2  A    between atoms: N_9  and  C_26 
REMARK    3  A    between atoms: C_15  and  C_17 
REMARK    4  A    between atoms: C_26  and  C_27 
REMARK    5  A    between atoms: C_27  and  C_28 
REMARK    6  A    between atoms: C_28  and  N_29 
ROOT
ATOM      1  C   UNK d   1      11.303  65.873 -15.283  0.00  0.00     0.161 C 
ATOM      2  N   UNK d   1      11.725  65.303 -16.545  0.00  0.00    -0.332 N 
ATOM      3  C   UNK d   1      13.138  65.395 -16.585  0.00  0.00     0.295 C 
ATOM      4  O   UNK d   1      13.880  65.463 -17.596  0.00  0.00    -0.264 OA
ATOM      5  C   UNK d   1      13.582  65.395 -15.191  0.00  0.00     0.251 C 
ATOM      6  O   UNK d   1      14.746  65.463 -14.733  0.00  0.00    -0.282 OA
ATOM      7  C   UNK d   1      12.354  65.297 -14.386  0.00  0.00     0.064 C 
ATOM      8  C   UNK d   1      12.283  64.833 -13.159  0.00  0.00     0.153 C 
ATOM      9  O   UNK d   1      11.027  64.864 -12.539  0.00  0.00    -0.188 OA
ENDROOT
BRANCH   1  10
ATOM     10  C   UNK d   1      11.254  67.338 -15.268  0.00  0.00    -0.029 A 
ATOM     11  C   UNK d   1      11.625  68.130 -14.212  0.00  0.00     0.028 A 
ATOM     12  C   UNK d   1      11.564  69.524 -14.253  0.00  0.00     0.011 A 
ATOM     13 Br   UNK d   1      12.102  70.565 -12.727  0.00  0.00    -0.051 Br
ATOM     14  C   UNK d   1      11.116  70.156 -15.392  0.00  0.00     0.019 A 
ATOM     15  C   UNK d   1      10.737  69.386 -16.469  0.00  0.00     0.002 A 
ATOM     16  C   UNK d   1      10.801  68.013 -16.414  0.00  0.00     0.009 A 
ENDBRANCH   1  10
BRANCH   8  17
ATOM     17  C   UNK d   1      13.456  64.289 -12.446  0.00  0.00     0.114 A 
ATOM     18  O   UNK d   1      14.485  64.921 -11.965  0.00  0.00    -0.307 OA
ATOM     19  C   UNK d   1      15.334  64.099 -11.390  0.00  0.00     0.086 A 
ATOM     20  C   UNK d   1      14.843  62.808 -11.488  0.00  0.00     0.001 A 
ATOM     21  C   UNK d   1      16.546  64.274 -10.748  0.00  0.00     0.038 A 
ATOM     22  C   UNK d   1      13.646  62.949 -12.163  0.00  0.00     0.054 A 
ATOM     23  C   UNK d   1      15.550  61.750 -10.959  0.00  0.00     0.014 A 
ATOM     24  C   UNK d   1      16.756  61.923 -10.319  0.00  0.00     0.001 A 
ATOM     25  C   UNK d   1      17.258  63.202 -10.214  0.00  0.00     0.003 A 
ENDBRANCH   8  17
BRANCH   2  26
ATOM     26  C   UNK d   1      10.933  64.703 -17.617  0.00  0.00     0.129 C 
BRANCH  26  27
ATOM     27  C   UNK d   1       9.849  63.812 -17.040  0.00  0.00     0.048 C 
BRANCH  27  28
ATOM     28  C   UNK d   1      10.404  62.620 -16.307  0.00  0.00     0.235 C 
BRANCH  28  29
ATOM     29  N   UNK d   1       9.977  62.651 -14.945  0.00  0.00    -0.079 N 
ATOM     30  C   UNK d   1       8.712  63.328 -14.756  0.00  0.00     0.269 C 
ATOM     31  C   UNK d   1       9.890  61.375 -14.300  0.00  0.00     0.269 C 
ATOM     32  H   UNK d   1      10.694  63.222 -14.405  0.00  0.00     0.278 HD
ENDBRANCH  28  29
ENDBRANCH  27  28
ENDBRANCH  26  27
ENDBRANCH   2  26
TORSDOF 6
ENDMDL
