MODEL 1
REMARK VINA RESULT:    -9.292      0.000      0.000
REMARK INTER + INTRA:         -12.318
REMARK INTER:                 -12.822
REMARK INTRA:                   0.504
REMARK UNBOUND:                 0.504
REMARK  7 active torsions:
REMARK  status: ('A' for Active; 'I' for Inactive)
REMARK    1  A    between atoms: C_3  and  C_8 
REMARK    2  A    between atoms: C_8  and  N_9 
REMARK    3  A    between atoms: N_9  and  N_10 
REMARK       I    between atoms: N_10  and  C_11 
REMARK    4  A    between atoms: C_11  and  C_13 
REMARK    5  A    between atoms: N_16  and  C_24 
REMARK    6  A    between atoms: C_17  and  C_18 
REMARK    7  A    between atoms: C_28  and  N_29 
ROOT
ATOM      1  C   UNK d   1      21.949  64.378  -7.022  0.00  0.00     0.176 A 
ATOM      2  N   UNK d   1      21.905  64.944  -5.855  0.00  0.00    -0.124 NA
ATOM      3  N   UNK d   1      22.888  64.527  -5.135  0.00  0.00    -0.058 NA
ATOM      4  N   UNK d   1      23.684  63.614  -5.813  0.00  0.00    -0.191 N 
ATOM      5  C   UNK d   1      23.129  63.500  -6.999  0.00  0.00     0.093 A 
ENDROOT
BRANCH   1   6
ATOM      6  C   UNK d   1      21.001  64.300  -8.057  0.00  0.00     0.294 C 
ATOM      7  N   UNK d   1      20.190  63.013  -8.326  0.00  0.00    -0.242 N 
ATOM      8  H   UNK d   1      20.373  62.258  -7.670  0.00  0.00     0.192 HD
ATOM      9  O   UNK d   1      20.730  65.205  -8.839  0.00  0.00    -0.264 OA
BRANCH   7  10
ATOM     10  N   UNK d   1      19.515  63.288  -9.393  0.00  0.00    -0.183 NA
BRANCH  10  11
ATOM     11  C   UNK d   1      18.543  63.663 -10.070  0.00  0.00     0.151 C 
BRANCH  11  12
ATOM     12  C   UNK d   1      17.666  62.435 -10.423  0.00  0.00     0.000 A 
ATOM     13  C   UNK d   1      16.365  62.698 -10.778  0.00  0.00     0.022 A 
ATOM     14 Br   UNK d   1      15.833  64.470 -11.152  0.00  0.00    -0.050 Br
ATOM     15  C   UNK d   1      15.462  61.631 -10.785  0.00  0.00     0.020 A 
ATOM     16  C   UNK d   1      15.885  60.337 -10.463  0.00  0.00     0.001 A 
ATOM     17  C   UNK d   1      17.180  60.105 -10.143  0.00  0.00     0.001 A 
ATOM     18  C   UNK d   1      18.089  61.208 -10.116  0.00  0.00     0.014 A 
ENDBRANCH  11  12
ENDBRANCH  10  11
ENDBRANCH   7  10
ENDBRANCH   1   6
BRANCH   5  19
ATOM     19  C   UNK d   1      23.468  62.888  -8.281  0.00  0.00     0.179 C 
ATOM     20  N   UNK d   1      23.722  63.428  -9.478  0.00  0.00    -0.407 N 
ATOM     21  C   UNK d   1      24.184  62.404 -10.404  0.00  0.00     0.117 C 
ATOM     22  C   UNK d   1      23.153  64.430 -10.214  0.00  0.00     0.117 C 
ATOM     23  C   UNK d   1      23.428  62.597 -11.684  0.00  0.00     0.021 C 
ATOM     24  C   UNK d   1      22.466  63.752 -11.425  0.00  0.00     0.021 C 
ENDBRANCH   5  19
BRANCH   4  25
ATOM     25  C   UNK d   1      24.747  63.050  -5.109  0.00  0.00     0.229 A 
ATOM     26  N   UNK d   1      26.042  63.041  -5.628  0.00  0.00    -0.081 NA
ATOM     27  O   UNK d   1      26.785  62.370  -4.840  0.00  0.00    -0.103 OA
ATOM     28  N   UNK d   1      26.135  61.927  -3.839  0.00  0.00    -0.083 NA
ATOM     29  C   UNK d   1      24.844  62.340  -3.985  0.00  0.00     0.201 A 
BRANCH  29  30
ATOM     30  N   UNK d   1      23.854  61.978  -3.015  0.00  0.00    -0.379 N 
ATOM     31  H   UNK d   1      22.885  62.273  -3.202  0.00  0.00     0.158 HD
ATOM     32  H   UNK d   1      24.116  61.505  -2.152  0.00  0.00     0.158 HD
ENDBRANCH  29  30
ENDBRANCH   4  25
TORSDOF 7
ENDMDL
