/Users/jonathanwahrer/Desktop/Msc/3_Semester/Drug_Design_Praktikum/waehrer_HTS_screening/HTS_experiment/out/docking_results/vina_output/3sx0/1314_docked.pdbqt
 OpenBabel03192222293D

 32 35  0  0  0  0  0  0  0  0999 V2000
   21.9490   64.3780   -7.0220 C   0  0  0  0  0  0  0  0  0  0  0  0
   21.9050   64.9440   -5.8550 N   0  0  0  0  0  0  0  0  0  0  0  0
   22.8880   64.5270   -5.1350 N   0  0  0  0  0  0  0  0  0  0  0  0
   23.6840   63.6140   -5.8130 N   0  0  0  0  0  0  0  0  0  0  0  0
   23.1290   63.5000   -6.9990 C   0  0  0  0  0  0  0  0  0  0  0  0
   21.0010   64.3000   -8.0570 C   0  0  0  0  0  0  0  0  0  0  0  0
   20.1900   63.0130   -8.3260 N   0  0  0  0  0  0  0  0  0  0  0  0
   20.3730   62.2580   -7.6700 H   0  0  0  0  0  0  0  0  0  0  0  0
   20.7300   65.2050   -8.8390 O   0  0  0  0  0  0  0  0  0  0  0  0
   19.5150   63.2880   -9.3930 N   0  0  0  0  0  2  0  0  0  0  0  0
   18.5430   63.6630  -10.0700 C   0  0  0  0  0  2  0  0  0  0  0  0
   17.6660   62.4350  -10.4230 C   0  0  0  0  0  0  0  0  0  0  0  0
   16.3650   62.6980  -10.7780 C   0  0  0  0  0  0  0  0  0  0  0  0
   15.8330   64.4700  -11.1520 Br  0  0  0  0  0  0  0  0  0  0  0  0
   15.4620   61.6310  -10.7850 C   0  0  0  0  0  3  0  0  0  0  0  0
   15.8850   60.3370  -10.4630 C   0  0  0  0  0  3  0  0  0  0  0  0
   17.1800   60.1050  -10.1430 C   0  0  0  0  0  3  0  0  0  0  0  0
   18.0890   61.2080  -10.1160 C   0  0  0  0  0  3  0  0  0  0  0  0
   23.4680   62.8880   -8.2810 C   0  0  0  0  0  2  0  0  0  0  0  0
   23.7220   63.4280   -9.4780 N   0  0  0  0  0  0  0  0  0  0  0  0
   24.1840   62.4040  -10.4040 C   0  0  0  0  0  2  0  0  0  0  0  0
   23.1530   64.4300  -10.2140 C   0  0  0  0  0  2  0  0  0  0  0  0
   23.4280   62.5970  -11.6840 C   0  0  0  0  0  2  0  0  0  0  0  0
   22.4660   63.7520  -11.4250 C   0  0  0  0  0  2  0  0  0  0  0  0
   24.7470   63.0500   -5.1090 C   0  0  0  0  0  0  0  0  0  0  0  0
   26.0420   63.0410   -5.6280 N   0  0  0  0  0  0  0  0  0  0  0  0
   26.7850   62.3700   -4.8400 O   0  0  0  0  0  0  0  0  0  0  0  0
   26.1350   61.9270   -3.8390 N   0  0  0  0  0  0  0  0  0  0  0  0
   24.8440   62.3400   -3.9850 C   0  0  0  0  0  0  0  0  0  0  0  0
   23.8540   61.9780   -3.0150 N   0  0  0  0  0  0  0  0  0  0  0  0
   22.8850   62.2730   -3.2020 H   0  0  0  0  0  0  0  0  0  0  0  0
   24.1160   61.5050   -2.1520 H   0  0  0  0  0  0  0  0  0  0  0  0
  1  5  2  0  0  0  0
  1  2  1  0  0  0  0
  2  3  2  0  0  0  0
  4  3  1  0  0  0  0
  4 25  1  0  0  0  0
  5  4  1  0  0  0  0
  6  1  1  0  0  0  0
  7  6  1  0  0  0  0
  7  8  1  0  0  0  0
  9  6  2  0  0  0  0
 10  7  1  0  0  0  0
 11 10  1  0  0  0  0
 12 18  1  0  0  0  0
 12 11  1  0  0  0  0
 13 12  2  0  0  0  0
 14 13  1  0  0  0  0
 15 13  1  0  0  0  0
 15 16  2  0  0  0  0
 16 17  1  0  0  0  0
 17 18  2  0  0  0  0
 19  5  1  0  0  0  0
 20 19  1  0  0  0  0
 21 20  1  0  0  0  0
 22 20  1  0  0  0  0
 23 24  1  0  0  0  0
 23 21  1  0  0  0  0
 24 22  1  0  0  0  0
 25 29  1  0  0  0  0
 26 25  2  0  0  0  0
 26 27  1  0  0  0  0
 27 28  1  0  0  0  0
 29 28  2  0  0  0  0
 29 30  1  0  0  0  0
 30 32  1  0  0  0  0
 31 30  1  0  0  0  0
M  END
>  <Pose>
1

>  <Score>
-9.292

$$$$
