/Users/jonathanwahrer/Desktop/Msc/3_Semester/Drug_Design_Praktikum/waehrer_HTS_screening/HTS_experiment/out/docking_results/vina_output/3sx0/1315_docked.pdbqt
 OpenBabel03192222293D

 30 33  0  0  1  0  0  0  0  0999 V2000
   20.8610   63.7170   -9.2590 N   0  0  0  0  0  0  0  0  0  0  0  0
   21.6710   63.4850  -10.3430 C   0  0  0  0  0  0  0  0  0  0  0  0
   22.9470   63.4090   -9.8630 C   0  0  0  0  0  0  0  0  0  0  0  0
   24.0020   63.1820  -10.7520 C   0  0  0  0  0  3  0  0  0  0  0  0
   23.7370   63.0380  -12.0970 C   0  0  0  0  0  3  0  0  0  0  0  0
   22.4500   63.1130  -12.5850 C   0  0  0  0  0  3  0  0  0  0  0  0
   21.4040   63.3400  -11.6870 C   0  0  0  0  0  3  0  0  0  0  0  0
   22.8960   63.5880   -8.5250 N   0  0  0  0  0  0  0  0  0  0  0  0
   21.6320   63.7750   -8.1400 C   0  0  2  0  0  3  0  0  0  0  0  0
   19.4180   63.8040   -9.3270 C   0  0  0  0  0  2  0  0  0  0  0  0
   18.7600   62.5320   -9.6520 C   0  0  1  0  0  3  0  0  0  0  0  0
   19.4860   61.4520   -9.4720 O   0  0  0  0  0  1  0  0  0  0  0  0
   17.4330   62.2610  -10.1410 C   0  0  0  0  0  0  0  0  0  0  0  0
   16.5350   63.1930  -10.5770 C   0  0  0  0  0  3  0  0  0  0  0  0
   15.2960   62.8570  -11.0420 C   0  0  0  0  0  0  0  0  0  0  0  0
   14.0610   64.2140  -11.6570 Br  0  0  0  0  0  0  0  0  0  0  0  0
   14.9190   61.5330  -11.0800 C   0  0  0  0  0  3  0  0  0  0  0  0
   15.7790   60.5480  -10.6560 C   0  0  0  0  0  3  0  0  0  0  0  0
   17.0110   60.9230  -10.1970 C   0  0  0  0  0  3  0  0  0  0  0  0
   21.2130   63.8880   -6.8990 N   0  0  0  0  0  0  0  0  0  0  0  0
   20.4490   64.4980   -6.6210 H   0  0  0  0  0  0  0  0  0  0  0  0
   21.7030   63.3550   -6.1670 H   0  0  0  0  0  0  0  0  0  0  0  0
   24.0890   63.5220   -7.6990 C   0  0  0  0  0  2  0  0  0  0  0  0
   23.8860   63.0950   -6.3040 C   0  0  0  0  0  2  0  0  0  0  0  0
   24.4860   63.8350   -5.2520 N   0  0  0  0  0  0  0  0  0  0  0  0
   25.9110   63.4460   -5.0910 C   0  0  0  0  0  2  0  0  0  0  0  0
   26.0710   61.9780   -4.8640 C   0  0  0  0  0  2  0  0  0  0  0  0
   25.5230   61.6980   -3.6110 O   0  0  0  0  0  0  0  0  0  0  0  0
   24.2040   62.0700   -3.5360 C   0  0  0  0  0  2  0  0  0  0  0  0
   23.9190   63.4920   -3.9370 C   0  0  0  0  0  2  0  0  0  0  0  0
  1  9  1  0  0  0  0
  2  3  1  0  0  0  0
  2  1  1  0  0  0  0
  3  8  1  0  0  0  0
  4  3  2  0  0  0  0
  5  4  1  0  0  0  0
  6  5  2  0  0  0  0
  6  7  1  0  0  0  0
  7  2  2  0  0  0  0
  8  9  1  0  0  0  0
  8 23  1  0  0  0  0
  9 20  1  1  0  0  0
 10  1  1  0  0  0  0
 11 12  1  1  0  0  0
 11 10  1  0  0  0  0
 13 11  1  0  0  0  0
 14 13  2  0  0  0  0
 15 14  1  0  0  0  0
 16 15  1  0  0  0  0
 17 15  2  0  0  0  0
 17 18  1  0  0  0  0
 18 19  2  0  0  0  0
 19 13  1  0  0  0  0
 20 21  1  0  0  0  0
 20 22  1  0  0  0  0
 23 24  1  0  0  0  0
 24 25  1  0  0  0  0
 25 26  1  0  0  0  0
 25 30  1  0  0  0  0
 26 27  1  0  0  0  0
 27 28  1  0  0  0  0
 28 29  1  0  0  0  0
 30 29  1  0  0  0  0
M  END
>  <Pose>
1

>  <Score>
-9.443

$$$$
