MODEL 1
REMARK VINA RESULT:    -9.443      0.000      0.000
REMARK INTER + INTRA:         -13.043
REMARK INTER:                 -13.031
REMARK INTRA:                  -0.012
REMARK UNBOUND:                -0.012
REMARK  7 active torsions:
REMARK  status: ('A' for Active; 'I' for Inactive)
REMARK    1  A    between atoms: C_4  and  C_8 
REMARK    2  A    between atoms: C_8  and  C_10 
REMARK    3  A    between atoms: C_10  and  N_11 
REMARK    4  A    between atoms: N_18  and  C_21 
REMARK    5  A    between atoms: C_19  and  N_20 
REMARK    6  A    between atoms: C_21  and  C_22 
REMARK    7  A    between atoms: C_22  and  N_23 
ROOT
ATOM      1  N   UNK d   1      20.861  63.717  -9.259  0.00  0.00    -0.175 N 
ATOM      2  C   UNK d   1      21.671  63.485 -10.343  0.00  0.00     0.079 A 
ATOM      3  C   UNK d   1      22.947  63.409  -9.863  0.00  0.00     0.079 A 
ATOM      4  C   UNK d   1      24.002  63.182 -10.752  0.00  0.00     0.032 A 
ATOM      5  C   UNK d   1      23.737  63.038 -12.097  0.00  0.00     0.002 A 
ATOM      6  C   UNK d   1      22.450  63.113 -12.585  0.00  0.00     0.002 A 
ATOM      7  C   UNK d   1      21.404  63.340 -11.687  0.00  0.00     0.032 A 
ATOM      8  N   UNK d   1      22.896  63.588  -8.525  0.00  0.00    -0.179 N 
ATOM      9  C   UNK d   1      21.632  63.775  -8.140  0.00  0.00     0.681 A 
ENDROOT
BRANCH   1  10
ATOM     10  C   UNK d   1      19.418  63.804  -9.327  0.00  0.00     0.216 C 
BRANCH  10  11
ATOM     11  C   UNK d   1      18.760  62.532  -9.652  0.00  0.00     0.113 C 
ATOM     12  O   UNK d   1      19.486  61.452  -9.472  0.00  0.00    -0.194 OA
BRANCH  11  13
ATOM     13  C   UNK d   1      17.433  62.261 -10.141  0.00  0.00    -0.001 A 
ATOM     14  C   UNK d   1      16.535  63.193 -10.577  0.00  0.00     0.033 A 
ATOM     15  C   UNK d   1      15.296  62.857 -11.042  0.00  0.00     0.011 A 
ATOM     16 Br   UNK d   1      14.061  64.214 -11.657  0.00  0.00    -0.051 Br
ATOM     17  C   UNK d   1      14.919  61.533 -11.080  0.00  0.00     0.019 A 
ATOM     18  C   UNK d   1      15.779  60.548 -10.656  0.00  0.00     0.002 A 
ATOM     19  C   UNK d   1      17.011  60.923 -10.197  0.00  0.00     0.014 A 
ENDBRANCH  11  13
ENDBRANCH  10  11
ENDBRANCH   1  10
BRANCH   9  20
ATOM     20  N   UNK d   1      21.213  63.888  -6.899  0.00  0.00    -0.234 N 
ATOM     21  H   UNK d   1      20.449  64.498  -6.621  0.00  0.00     0.174 HD
ATOM     22  H   UNK d   1      21.703  63.355  -6.167  0.00  0.00     0.174 HD
ENDBRANCH   9  20
BRANCH   8  23
ATOM     23  C   UNK d   1      24.089  63.522  -7.699  0.00  0.00     0.178 C 
BRANCH  23  24
ATOM     24  C   UNK d   1      23.886  63.095  -6.304  0.00  0.00     0.293 C 
BRANCH  24  25
ATOM     25  N   UNK d   1      24.486  63.835  -5.252  0.00  0.00     0.094 N 
ATOM     26  C   UNK d   1      25.911  63.446  -5.091  0.00  0.00     0.298 C 
ATOM     27  C   UNK d   1      26.071  61.978  -4.864  0.00  0.00     0.198 C 
ATOM     28  O   UNK d   1      25.523  61.698  -3.611  0.00  0.00    -0.388 OA
ATOM     29  C   UNK d   1      24.204  62.070  -3.536  0.00  0.00     0.198 C 
ATOM     30  C   UNK d   1      23.919  63.492  -3.937  0.00  0.00     0.298 C 
ENDBRANCH  24  25
ENDBRANCH  23  24
ENDBRANCH   8  23
TORSDOF 7
ENDMDL
