MODEL 1
REMARK VINA RESULT:    -9.119      0.000      0.000
REMARK INTER + INTRA:         -11.144
REMARK INTER:                 -11.784
REMARK INTRA:                   0.640
REMARK UNBOUND:                 0.640
REMARK  5 active torsions:
REMARK  status: ('A' for Active; 'I' for Inactive)
REMARK    1  A    between atoms: C_5  and  C_8 
REMARK    2  A    between atoms: N_9  and  C_26 
REMARK    3  A    between atoms: C_15  and  C_17 
REMARK    4  A    between atoms: C_26  and  C_27 
REMARK    5  A    between atoms: C_27  and  N_28 
ROOT
ATOM      1  C   UNK d   1      22.235  64.154  -9.824  0.00  0.00     0.161 C 
ATOM      2  N   UNK d   1      23.004  63.472 -10.823  0.00  0.00    -0.331 N 
ATOM      3  C   UNK d   1      22.122  63.466 -11.985  0.00  0.00     0.295 C 
ATOM      4  O   UNK d   1      22.479  63.399 -13.182  0.00  0.00    -0.264 OA
ATOM      5  C   UNK d   1      20.758  63.550 -11.498  0.00  0.00     0.251 C 
ATOM      6  O   UNK d   1      19.675  63.576 -12.156  0.00  0.00    -0.282 OA
ATOM      7  C   UNK d   1      20.866  63.604 -10.037  0.00  0.00     0.064 C 
ATOM      8  C   UNK d   1      19.934  63.275  -9.185  0.00  0.00     0.153 C 
ATOM      9  O   UNK d   1      20.191  63.444  -7.819  0.00  0.00    -0.188 OA
ENDROOT
BRANCH   1  10
ATOM     10  C   UNK d   1      22.695  64.137  -8.458  0.00  0.00    -0.030 A 
ATOM     11  C   UNK d   1      23.434  63.020  -8.028  0.00  0.00     0.011 A 
ATOM     12  C   UNK d   1      23.939  62.902  -6.758  0.00  0.00     0.019 A 
ATOM     13  C   UNK d   1      23.738  63.894  -5.831  0.00  0.00     0.011 A 
ATOM     14 Br   UNK d   1      24.427  63.762  -4.048  0.00  0.00    -0.051 Br
ATOM     15  C   UNK d   1      23.016  64.989  -6.244  0.00  0.00     0.019 A 
ATOM     16  C   UNK d   1      22.508  65.108  -7.523  0.00  0.00     0.011 A 
ENDBRANCH   1  10
BRANCH   8  17
ATOM     17  C   UNK d   1      18.635  62.731  -9.629  0.00  0.00     0.114 A 
ATOM     18  O   UNK d   1      17.573  63.454  -9.967  0.00  0.00    -0.307 OA
ATOM     19  C   UNK d   1      16.567  62.694 -10.315  0.00  0.00     0.086 A 
ATOM     20  C   UNK d   1      16.932  61.368 -10.218  0.00  0.00     0.001 A 
ATOM     21  C   UNK d   1      15.263  62.962 -10.742  0.00  0.00     0.038 A 
ATOM     22  C   UNK d   1      18.245  61.423  -9.782  0.00  0.00     0.054 A 
ATOM     23  C   UNK d   1      16.038  60.369 -10.534  0.00  0.00     0.014 A 
ATOM     24  C   UNK d   1      14.751  60.622 -10.956  0.00  0.00     0.001 A 
ATOM     25  C   UNK d   1      14.381  61.951 -11.054  0.00  0.00     0.003 A 
ENDBRANCH   8  17
BRANCH   2  26
ATOM     26  C   UNK d   1      24.348  62.940 -10.849  0.00  0.00     0.155 C 
BRANCH  26  27
ATOM     27  C   UNK d   1      24.906  62.523 -12.144  0.00  0.00     0.254 C 
BRANCH  27  28
ATOM     28  N   UNK d   1      25.755  63.461 -12.831  0.00  0.00    -0.077 N 
ATOM     29  C   UNK d   1      27.149  63.145 -12.696  0.00  0.00     0.269 C 
ATOM     30  C   UNK d   1      25.338  63.791 -14.164  0.00  0.00     0.269 C 
ATOM     31  H   UNK d   1      25.633  64.371 -12.267  0.00  0.00     0.279 HD
ENDBRANCH  27  28
ENDBRANCH  26  27
ENDBRANCH   2  26
TORSDOF 5
ENDMDL
