/Users/jonathanwahrer/Desktop/Msc/3_Semester/Drug_Design_Praktikum/waehrer_HTS_screening/HTS_experiment/out/docking_results/vina_output/3sx0/1325_docked.pdbqt
 OpenBabel03192222293D

 31 34  0  0  1  0  0  0  0  0999 V2000
   22.2350   64.1540   -9.8240 C   0  0  1  0  0  3  0  0  0  0  0  0
   23.0040   63.4720  -10.8230 N   0  0  0  0  0  0  0  0  0  0  0  0
   22.1220   63.4660  -11.9850 C   0  0  0  0  0  0  0  0  0  0  0  0
   22.4790   63.3990  -13.1820 O   0  0  0  0  0  0  0  0  0  0  0  0
   20.7580   63.5500  -11.4980 C   0  0  0  0  0  0  0  0  0  0  0  0
   19.6750   63.5760  -12.1560 O   0  0  0  0  0  0  0  0  0  0  0  0
   20.8660   63.6040  -10.0370 C   0  0  0  0  0  0  0  0  0  0  0  0
   19.9340   63.2750   -9.1850 C   0  0  0  0  0  0  0  0  0  0  0  0
   20.1910   63.4440   -7.8190 O   0  0  0  0  0  1  0  0  0  0  0  0
   22.6950   64.1370   -8.4580 C   0  0  0  0  0  0  0  0  0  0  0  0
   23.4340   63.0200   -8.0280 C   0  0  0  0  0  3  0  0  0  0  0  0
   23.9390   62.9020   -6.7580 C   0  0  0  0  0  3  0  0  0  0  0  0
   23.7380   63.8940   -5.8310 C   0  0  0  0  0  0  0  0  0  0  0  0
   24.4270   63.7620   -4.0480 Br  0  0  0  0  0  0  0  0  0  0  0  0
   23.0160   64.9890   -6.2440 C   0  0  0  0  0  3  0  0  0  0  0  0
   22.5080   65.1080   -7.5230 C   0  0  0  0  0  3  0  0  0  0  0  0
   18.6350   62.7310   -9.6290 C   0  0  0  0  0  0  0  0  0  0  0  0
   17.5730   63.4540   -9.9670 O   0  0  0  0  0  0  0  0  0  0  0  0
   16.5670   62.6940  -10.3150 C   0  0  0  0  0  0  0  0  0  0  0  0
   16.9320   61.3680  -10.2180 C   0  0  0  0  0  0  0  0  0  0  0  0
   15.2630   62.9620  -10.7420 C   0  0  0  0  0  3  0  0  0  0  0  0
   18.2450   61.4230   -9.7820 C   0  0  0  0  0  3  0  0  0  0  0  0
   16.0380   60.3690  -10.5340 C   0  0  0  0  0  3  0  0  0  0  0  0
   14.7510   60.6220  -10.9560 C   0  0  0  0  0  3  0  0  0  0  0  0
   14.3810   61.9510  -11.0540 C   0  0  0  0  0  3  0  0  0  0  0  0
   24.3480   62.9400  -10.8490 C   0  0  0  0  0  2  0  0  0  0  0  0
   24.9060   62.5230  -12.1440 C   0  0  0  0  0  2  0  0  0  0  0  0
   25.7550   63.4610  -12.8310 N   0  0  0  0  0  4  0  0  0  0  0  0
   27.1490   63.1450  -12.6960 C   0  0  0  0  0  1  0  0  0  0  0  0
   25.3380   63.7910  -14.1640 C   0  0  0  0  0  1  0  0  0  0  0  0
   25.6330   64.3710  -12.2670 H   0  0  0  0  0  0  0  0  0  0  0  0
  1 10  1  1  0  0  0
  2  1  1  0  0  0  0
  3  5  1  0  0  0  0
  3  2  1  0  0  0  0
  4  3  2  0  0  0  0
  5  7  1  0  0  0  0
  6  5  2  0  0  0  0
  7  1  1  0  0  0  0
  7  8  2  0  0  0  0
  8  9  1  0  0  0  0
 10 11  2  0  0  0  0
 10 16  1  0  0  0  0
 11 12  1  0  0  0  0
 12 13  2  0  0  0  0
 13 14  1  0  0  0  0
 15 13  1  0  0  0  0
 16 15  2  0  0  0  0
 17  8  1  0  0  0  0
 18 17  1  0  0  0  0
 19 20  1  0  0  0  0
 19 18  1  0  0  0  0
 20 22  1  0  0  0  0
 21 19  2  0  0  0  0
 22 17  2  0  0  0  0
 23 20  2  0  0  0  0
 24 23  1  0  0  0  0
 25 24  2  0  0  0  0
 25 21  1  0  0  0  0
 26  2  1  0  0  0  0
 27 26  1  0  0  0  0
 28 29  1  0  0  0  0
 28 31  1  0  0  0  0
 28 27  1  0  0  0  0
 30 28  1  0  0  0  0
M  END
>  <Pose>
1

>  <Score>
-9.119

$$$$
