/Users/jonathanwahrer/Desktop/Msc/3_Semester/Drug_Design_Praktikum/waehrer_HTS_screening/HTS_experiment/out/docking_results/vina_output/3sx0/1329_docked.pdbqt
 OpenBabel03192222293D

 28 31  0  0  0  0  0  0  0  0999 V2000
   13.4210   62.3950  -12.3700 C   0  0  0  0  0  3  0  0  0  0  0  0
   12.7630   62.9760  -13.3750 C   0  0  0  0  0  0  0  0  0  0  0  0
   12.9050   64.2870  -13.8270 O   0  0  0  0  0  0  0  0  0  0  0  0
   12.0700   64.5270  -14.8830 C   0  0  0  0  0  0  0  0  0  0  0  0
   11.3330   63.3870  -15.1840 C   0  0  0  0  0  0  0  0  0  0  0  0
   10.4350   63.4460  -16.2370 C   0  0  0  0  0  3  0  0  0  0  0  0
   10.2890   64.6080  -16.9600 C   0  0  0  0  0  3  0  0  0  0  0  0
   11.0460   65.7340  -16.6280 C   0  0  0  0  0  0  0  0  0  0  0  0
   11.9400   65.7040  -15.5910 C   0  0  0  0  0  0  0  0  0  0  0  0
   10.8260   66.8550  -17.4140 O   0  0  0  0  0  1  0  0  0  0  0  0
   11.7520   62.3510  -14.2240 C   0  0  0  0  0  0  0  0  0  0  0  0
   11.2930   61.1800  -14.1860 O   0  0  0  0  0  0  0  0  0  0  0  0
   12.6510   66.9330  -15.2340 C   0  0  0  0  0  2  0  0  0  0  0  0
   12.0230   68.1530  -15.5920 N   0  0  0  0  0  4  0  0  0  0  0  0
   13.0590   69.1180  -15.9260 C   0  0  0  0  0  2  0  0  0  0  0  0
   12.7960   70.5120  -15.4730 C   0  0  0  0  0  2  0  0  0  0  0  0
   12.4060   70.6490  -14.1140 N   0  0  0  0  0  0  0  0  0  0  0  0
   12.0230   69.4010  -13.5400 C   0  0  0  0  0  2  0  0  0  0  0  0
   11.3650   71.6490  -14.0000 C   0  0  0  0  0  1  0  0  0  0  0  0
   11.1940   68.6290  -14.5110 C   0  0  0  0  0  2  0  0  0  0  0  0
   11.3600   68.0490  -16.4170 H   0  0  0  0  0  0  0  0  0  0  0  0
   14.4120   63.1230  -11.6040 C   0  0  0  0  0  0  0  0  0  0  0  0
   15.5780   62.5160  -11.1920 C   0  0  0  0  0  3  0  0  0  0  0  0
   16.5160   63.2230  -10.4450 C   0  0  0  0  0  0  0  0  0  0  0  0
   18.1290   62.3780   -9.8660 Br  0  0  0  0  0  0  0  0  0  0  0  0
   16.2760   64.5480  -10.1140 C   0  0  0  0  0  3  0  0  0  0  0  0
   15.0990   65.1180  -10.5430 C   0  0  0  0  0  3  0  0  0  0  0  0
   14.1620   64.4350  -11.2820 C   0  0  0  0  0  3  0  0  0  0  0  0
  1 22  1  0  0  0  0
  2  1  2  0  0  0  0
  3  2  1  0  0  0  0
  4  3  1  0  0  0  0
  5  4  1  0  0  0  0
  5 11  1  0  0  0  0
  6  5  2  0  0  0  0
  7  8  2  0  0  0  0
  7  6  1  0  0  0  0
  8  9  1  0  0  0  0
  9 13  1  0  0  0  0
  9  4  2  0  0  0  0
 10  8  1  0  0  0  0
 11 12  2  0  0  0  0
 11  2  1  0  0  0  0
 14 13  1  0  0  0  0
 14 20  1  0  0  0  0
 15 14  1  0  0  0  0
 15 16  1  0  0  0  0
 16 17  1  0  0  0  0
 17 19  1  0  0  0  0
 17 18  1  0  0  0  0
 20 18  1  0  0  0  0
 21 14  1  0  0  0  0
 22 28  2  0  0  0  0
 22 23  1  0  0  0  0
 23 24  2  0  0  0  0
 24 26  1  0  0  0  0
 24 25  1  0  0  0  0
 27 26  2  0  0  0  0
 28 27  1  0  0  0  0
M  END
>  <Pose>
1

>  <Score>
-6.002

$$$$
