/Users/jonathanwahrer/Desktop/Msc/3_Semester/Drug_Design_Praktikum/waehrer_HTS_screening/HTS_experiment/out/docking_results/vina_output/3sx0/1337_docked.pdbqt
 OpenBabel03192222303D

 32 35  0  0  1  0  0  0  0  0999 V2000
   12.4610   65.0840  -13.5330 C   0  0  2  0  0  3  0  0  0  0  0  0
   11.1440   64.8550  -13.3900 O   0  0  0  0  0  0  0  0  0  0  0  0
   10.2850   65.4070  -14.2870 C   0  0  2  0  0  3  0  0  0  0  0  0
    9.0500   64.7550  -14.1520 O   0  0  0  0  0  0  0  0  0  0  0  0
    9.0630   63.6670  -14.9890 C   0  0  0  0  0  0  0  0  0  0  0  0
   10.1820   63.7400  -15.7950 O   0  0  0  0  0  0  0  0  0  0  0  0
   10.6160   65.0840  -15.7250 C   0  0  2  0  0  3  0  0  0  0  0  0
   12.0590   65.2260  -16.0220 C   0  0  1  0  0  3  0  0  0  0  0  0
   12.3070   66.3430  -16.8520 O   0  0  0  0  0  0  0  0  0  0  0  0
   13.4210   66.9790  -16.3640 C   0  0  0  0  0  0  0  0  0  0  0  0
   13.3890   66.7360  -15.0160 O   0  0  0  0  0  0  0  0  0  0  0  0
   12.9730   65.4020  -14.8880 C   0  0  1  0  0  3  0  0  0  0  0  0
   13.2480   68.4720  -16.6690 C   0  0  0  0  0  1  0  0  0  0  0  0
   14.6990   66.5570  -17.0400 C   0  0  0  0  0  1  0  0  0  0  0  0
    7.8530   63.6510  -15.9230 C   0  0  0  0  0  1  0  0  0  0  0  0
    9.0340   62.3490  -14.2320 C   0  0  0  0  0  1  0  0  0  0  0  0
   13.2130   63.9520  -12.9320 C   0  0  0  0  0  0  0  0  0  0  0  0
   13.9190   64.1370  -11.7170 N   0  0  0  0  0  0  0  0  0  0  0  0
   13.8900   65.0780  -11.2710 H   0  0  0  0  0  0  0  0  0  0  0  0
   13.2530   62.8110  -13.4670 O   0  0  0  0  0  0  0  0  0  0  0  0
   14.6690   63.1020  -11.0700 C   0  0  0  0  0  2  0  0  0  0  0  0
   16.0610   63.5430  -10.7950 C   0  0  0  0  0  0  0  0  0  0  0  0
   17.1380   62.6440  -10.7050 N   0  0  0  0  0  0  0  0  0  0  0  0
   16.8800   61.6130  -10.8480 H   0  0  0  0  0  0  0  0  0  0  0  0
   16.2350   64.7690  -10.6470 O   0  0  0  0  0  0  0  0  0  0  0  0
   18.4800   62.9120  -10.4560 C   0  0  0  0  0  0  0  0  0  0  0  0
   19.3530   63.0700  -11.5230 C   0  0  0  0  0  3  0  0  0  0  0  0
   20.6950   63.3360  -11.3810 C   0  0  0  0  0  3  0  0  0  0  0  0
   21.2330   63.4600  -10.1190 C   0  0  0  0  0  0  0  0  0  0  0  0
   23.1050   63.8320   -9.9500 Br  0  0  0  0  0  0  0  0  0  0  0  0
   20.4160   63.3130   -9.0450 C   0  0  0  0  0  3  0  0  0  0  0  0
   19.0490   63.0410   -9.2090 C   0  0  0  0  0  3  0  0  0  0  0  0
  1  2  1  0  0  0  0
  1 17  1  6  0  0  0
  3  4  1  1  0  0  0
  3  2  1  0  0  0  0
  5 16  1  0  0  0  0
  5  4  1  0  0  0  0
  6  5  1  0  0  0  0
  7  6  1  1  0  0  0
  7  3  1  0  0  0  0
  8  9  1  6  0  0  0
  8  7  1  0  0  0  0
  8 12  1  0  0  0  0
  9 10  1  0  0  0  0
 10 11  1  0  0  0  0
 12 11  1  1  0  0  0
 12  1  1  0  0  0  0
 13 10  1  0  0  0  0
 14 10  1  0  0  0  0
 15  5  1  0  0  0  0
 17 18  1  0  0  0  0
 18 19  1  0  0  0  0
 18 21  1  0  0  0  0
 20 17  2  0  0  0  0
 21 22  1  0  0  0  0
 22 23  1  0  0  0  0
 22 25  2  0  0  0  0
 23 26  1  0  0  0  0
 24 23  1  0  0  0  0
 26 32  1  0  0  0  0
 27 28  1  0  0  0  0
 27 26  2  0  0  0  0
 28 29  2  0  0  0  0
 29 30  1  0  0  0  0
 29 31  1  0  0  0  0
 32 31  2  0  0  0  0
M  END
>  <Pose>
1

>  <Score>
-8.040

$$$$
