MODEL 1
REMARK VINA RESULT:    -8.040      0.000      0.000
REMARK INTER + INTRA:         -10.540
REMARK INTER:                  -9.920
REMARK INTRA:                  -0.620
REMARK UNBOUND:                -0.620
REMARK  4 active torsions:
REMARK  status: ('A' for Active; 'I' for Inactive)
REMARK    1  A    between atoms: C_5  and  N_8 
REMARK       I    between atoms: N_8  and  C_9 
REMARK    2  A    between atoms: C_9  and  C_11 
REMARK    3  A    between atoms: C_11  and  N_12 
REMARK       I    between atoms: N_12  and  C_13 
REMARK    4  A    between atoms: C_13  and  C_15 
ROOT
ATOM      1  C   UNK d   1      12.461  65.084 -13.533  0.00  0.00     0.248 C 
ATOM      2  O   UNK d   1      11.144  64.855 -13.390  0.00  0.00    -0.341 OA
ATOM      3  C   UNK d   1      10.285  65.407 -14.287  0.00  0.00     0.296 C 
ATOM      4  O   UNK d   1       9.050  64.755 -14.152  0.00  0.00    -0.323 OA
ATOM      5  C   UNK d   1       9.063  63.667 -14.989  0.00  0.00     0.160 C 
ATOM      6  O   UNK d   1      10.182  63.740 -15.795  0.00  0.00    -0.343 OA
ATOM      7  C   UNK d   1      10.616  65.084 -15.725  0.00  0.00     0.212 C 
ATOM      8  C   UNK d   1      12.059  65.226 -16.022  0.00  0.00     0.191 C 
ATOM      9  O   UNK d   1      12.307  66.343 -16.852  0.00  0.00    -0.345 OA
ATOM     10  C   UNK d   1      13.421  66.979 -16.364  0.00  0.00     0.158 C 
ATOM     11  O   UNK d   1      13.389  66.736 -15.016  0.00  0.00    -0.345 OA
ATOM     12  C   UNK d   1      12.973  65.402 -14.888  0.00  0.00     0.195 C 
ATOM     13  C   UNK d   1      13.248  68.472 -16.669  0.00  0.00     0.078 C 
ATOM     14  C   UNK d   1      14.699  66.557 -17.040  0.00  0.00     0.078 C 
ATOM     15  C   UNK d   1       7.853  63.651 -15.923  0.00  0.00     0.078 C 
ATOM     16  C   UNK d   1       9.034  62.349 -14.232  0.00  0.00     0.078 C 
ENDROOT
BRANCH   1  17
ATOM     17  C   UNK d   1      13.213  63.952 -12.932  0.00  0.00     0.249 C 
ATOM     18  N   UNK d   1      13.919  64.137 -11.717  0.00  0.00    -0.350 N 
ATOM     19  H   UNK d   1      13.890  65.078 -11.271  0.00  0.00     0.163 HD
ATOM     20  O   UNK d   1      13.253  62.811 -13.467  0.00  0.00    -0.271 OA
BRANCH  18  21
ATOM     21  C   UNK d   1      14.669  63.102 -11.070  0.00  0.00     0.225 C 
BRANCH  21  22
ATOM     22  C   UNK d   1      16.061  63.543 -10.795  0.00  0.00     0.239 C 
ATOM     23  N   UNK d   1      17.138  62.644 -10.705  0.00  0.00    -0.326 N 
ATOM     24  H   UNK d   1      16.880  61.613 -10.848  0.00  0.00     0.169 HD
ATOM     25  O   UNK d   1      16.235  64.769 -10.647  0.00  0.00    -0.271 OA
BRANCH  23  26
ATOM     26  C   UNK d   1      18.480  62.912 -10.456  0.00  0.00     0.034 A 
ATOM     27  C   UNK d   1      19.353  63.070 -11.523  0.00  0.00     0.031 A 
ATOM     28  C   UNK d   1      20.695  63.336 -11.381  0.00  0.00     0.021 A 
ATOM     29  C   UNK d   1      21.233  63.460 -10.119  0.00  0.00     0.011 A 
ATOM     30 Br   UNK d   1      23.105  63.832  -9.950  0.00  0.00    -0.051 Br
ATOM     31  C   UNK d   1      20.416  63.313  -9.045  0.00  0.00     0.021 A 
ATOM     32  C   UNK d   1      19.049  63.041  -9.209  0.00  0.00     0.031 A 
ENDBRANCH  23  26
ENDBRANCH  21  22
ENDBRANCH  18  21
ENDBRANCH   1  17
TORSDOF 4
ENDMDL
