/Users/jonathanwahrer/Desktop/Msc/3_Semester/Drug_Design_Praktikum/waehrer_HTS_screening/HTS_experiment/out/docking_results/vina_output/3sx0/1341_docked.pdbqt
 OpenBabel03192222303D

 28 31  0  0  0  0  0  0  0  0999 V2000
   19.8190   63.2130   -9.6130 C   0  0  0  0  0  0  0  0  0  0  0  0
   20.9360   63.2480  -10.3770 N   0  0  0  0  0  0  0  0  0  0  0  0
   22.0030   63.4240   -9.5710 C   0  0  0  0  0  0  0  0  0  0  0  0
   21.6090   63.5060   -8.2820 N   0  0  0  0  0  0  0  0  0  0  0  0
   20.2630   63.3740   -8.3190 C   0  0  0  0  0  3  0  0  0  0  0  0
   23.2450   63.4650  -10.3850 C   0  0  0  0  0  3  0  0  0  0  0  0
   22.8120   63.3850  -11.8090 C   0  0  0  0  0  3  0  0  0  0  0  0
   21.3460   63.1620  -11.7610 C   0  0  0  0  0  3  0  0  0  0  0  0
   22.4250   63.6920   -7.1000 C   0  0  0  0  0  2  0  0  0  0  0  0
   22.9450   65.0880   -7.0570 C   0  0  0  0  0  0  0  0  0  0  0  0
   24.0860   65.2920   -7.4750 O   0  0  0  0  0  0  0  0  0  0  0  0
   22.1070   66.0810   -6.5460 N   0  0  0  0  0  0  0  0  0  0  0  0
   21.1200   65.8460   -6.1940 H   0  0  0  0  0  0  0  0  0  0  0  0
   22.4490   67.4550   -6.4450 C   0  0  0  0  0  0  0  0  0  0  0  0
   23.7390   67.8000   -6.0200 C   0  0  0  0  0  3  0  0  0  0  0  0
   24.0940   69.1050   -5.8940 C   0  0  0  0  0  3  0  0  0  0  0  0
   23.2000   70.1240   -6.1800 C   0  0  0  0  0  0  0  0  0  0  0  0
   21.9450   69.7780   -6.5920 C   0  0  0  0  0  3  0  0  0  0  0  0
   21.5490   68.4420   -6.7310 C   0  0  0  0  0  3  0  0  0  0  0  0
   23.6110   71.5440   -6.0350 C   0  0  0  0  0  2  0  0  0  0  0  0
   24.5360   71.6490   -4.8190 C   0  0  0  0  0  1  0  0  0  0  0  0
   18.4210   63.0450  -10.0040 C   0  0  0  0  0  0  0  0  0  0  0  0
   17.5880   64.1370  -10.1470 C   0  0  0  0  0  3  0  0  0  0  0  0
   16.2610   64.0060  -10.5140 C   0  0  0  0  0  3  0  0  0  0  0  0
   15.7060   62.7680  -10.7560 C   0  0  0  0  0  0  0  0  0  0  0  0
   14.0200   62.5930  -11.2240 Cl  0  0  0  0  0  0  0  0  0  0  0  0
   16.5250   61.6670  -10.6160 C   0  0  0  0  0  3  0  0  0  0  0  0
   17.8680   61.8040  -10.2440 C   0  0  0  0  0  3  0  0  0  0  0  0
  1  5  2  0  0  0  0
  2  1  1  0  0  0  0
  2  3  1  0  0  0  0
  3  4  1  0  0  0  0
  4  9  1  0  0  0  0
  5  4  1  0  0  0  0
  6  3  2  0  0  0  0
  7  8  2  0  0  0  0
  7  6  1  0  0  0  0
  8  2  1  0  0  0  0
  9 10  1  0  0  0  0
 10 12  1  0  0  0  0
 11 10  2  0  0  0  0
 12 14  1  0  0  0  0
 12 13  1  0  0  0  0
 14 15  1  0  0  0  0
 15 16  2  0  0  0  0
 17 20  1  0  0  0  0
 17 16  1  0  0  0  0
 18 17  2  0  0  0  0
 19 18  1  0  0  0  0
 19 14  2  0  0  0  0
 20 21  1  0  0  0  0
 22  1  1  0  0  0  0
 23 22  1  0  0  0  0
 24 23  2  0  0  0  0
 25 27  2  0  0  0  0
 25 24  1  0  0  0  0
 26 25  1  0  0  0  0
 27 28  1  0  0  0  0
 28 22  2  0  0  0  0
M  END
>  <Pose>
1

>  <Score>
-8.578

$$$$
