MODEL 1
REMARK VINA RESULT:    -8.578      0.000      0.000
REMARK INTER + INTRA:         -11.539
REMARK INTER:                 -11.085
REMARK INTRA:                  -0.455
REMARK UNBOUND:                -0.455
REMARK  5 active torsions:
REMARK  status: ('A' for Active; 'I' for Inactive)
REMARK    1  A    between atoms: C_5  and  C_8 
REMARK    2  A    between atoms: N_11  and  C_13 
REMARK    3  A    between atoms: C_13  and  C_14 
REMARK       I    between atoms: C_14  and  N_16 
REMARK    4  A    between atoms: N_16  and  C_17 
REMARK    5  A    between atoms: C_20  and  C_23 
ROOT
ATOM      1  C   UNK d   1      19.819  63.213  -9.613  0.00  0.00     0.061 A 
ATOM      2  N   UNK d   1      20.936  63.248 -10.377  0.00  0.00    -0.335 N 
ATOM      3  C   UNK d   1      22.003  63.424  -9.571  0.00  0.00     0.086 A 
ATOM      4  N   UNK d   1      21.609  63.506  -8.282  0.00  0.00    -0.336 N 
ATOM      5  C   UNK d   1      20.263  63.374  -8.319  0.00  0.00     0.123 A 
ATOM      6  C   UNK d   1      23.245  63.465 -10.385  0.00  0.00     0.078 A 
ATOM      7  C   UNK d   1      22.812  63.385 -11.809  0.00  0.00     0.028 A 
ATOM      8  C   UNK d   1      21.346  63.162 -11.761  0.00  0.00     0.131 A 
ENDROOT
BRANCH   4   9
ATOM      9  C   UNK d   1      22.425  63.692  -7.100  0.00  0.00     0.232 C 
BRANCH   9  10
ATOM     10  C   UNK d   1      22.945  65.088  -7.057  0.00  0.00     0.240 C 
ATOM     11  O   UNK d   1      24.086  65.292  -7.475  0.00  0.00    -0.271 OA
ATOM     12  N   UNK d   1      22.107  66.081  -6.546  0.00  0.00    -0.326 N 
ATOM     13  H   UNK d   1      21.120  65.846  -6.194  0.00  0.00     0.169 HD
BRANCH  12  14
ATOM     14  C   UNK d   1      22.449  67.455  -6.445  0.00  0.00     0.034 A 
ATOM     15  C   UNK d   1      23.739  67.800  -6.020  0.00  0.00     0.030 A 
ATOM     16  C   UNK d   1      24.094  69.105  -5.894  0.00  0.00     0.009 A 
ATOM     17  C   UNK d   1      23.200  70.124  -6.180  0.00  0.00    -0.058 A 
ATOM     18  C   UNK d   1      21.945  69.778  -6.592  0.00  0.00     0.009 A 
ATOM     19  C   UNK d   1      21.549  68.442  -6.731  0.00  0.00     0.030 A 
BRANCH  17  20
ATOM     20  C   UNK d   1      23.611  71.544  -6.035  0.00  0.00     0.034 C 
ATOM     21  C   UNK d   1      24.536  71.649  -4.819  0.00  0.00     0.010 C 
ENDBRANCH  17  20
ENDBRANCH  12  14
ENDBRANCH   9  10
ENDBRANCH   4   9
BRANCH   1  22
ATOM     22  C   UNK d   1      18.421  63.045 -10.004  0.00  0.00    -0.008 A 
ATOM     23  C   UNK d   1      17.588  64.137 -10.147  0.00  0.00     0.015 A 
ATOM     24  C   UNK d   1      16.261  64.006 -10.514  0.00  0.00     0.024 A 
ATOM     25  C   UNK d   1      15.706  62.768 -10.756  0.00  0.00     0.034 A 
ATOM     26 Cl   UNK d   1      14.020  62.593 -11.224  0.00  0.00    -0.084 Cl
ATOM     27  C   UNK d   1      16.525  61.667 -10.616  0.00  0.00     0.024 A 
ATOM     28  C   UNK d   1      17.868  61.804 -10.244  0.00  0.00     0.015 A 
ENDBRANCH   1  22
TORSDOF 5
ENDMDL
