MODEL 1
REMARK VINA RESULT:    -8.874      0.000      0.000
REMARK INTER + INTRA:         -11.331
REMARK INTER:                 -10.950
REMARK INTRA:                  -0.382
REMARK UNBOUND:                -0.382
REMARK  4 active torsions:
REMARK  status: ('A' for Active; 'I' for Inactive)
REMARK    1  A    between atoms: C_3  and  C_8 
REMARK    2  A    between atoms: C_11  and  C_13 
REMARK    3  A    between atoms: C_13  and  N_14 
REMARK       I    between atoms: N_14  and  C_15 
REMARK    4  A    between atoms: C_15  and  C_17 
ROOT
ATOM      1  N   UNK d   1      19.328  63.457 -11.402  0.00  0.00    -0.353 N 
ATOM      2  C   UNK d   1      18.539  62.551 -10.673  0.00  0.00     0.229 C 
ATOM      3  O   UNK d   1      18.932  61.372 -10.527  0.00  0.00    -0.273 OA
ATOM      4  H   UNK d   1      18.997  64.436 -11.520  0.00  0.00     0.162 HD
ENDROOT
BRANCH   1   5
ATOM      5  C   UNK d   1      20.592  63.055 -11.992  0.00  0.00     0.211 C 
BRANCH   5   6
ATOM      6  C   UNK d   1      21.725  63.330 -11.036  0.00  0.00     0.190 A 
ATOM      7  O   UNK d   1      22.978  63.574 -11.325  0.00  0.00    -0.194 OA
ATOM      8  N   UNK d   1      23.664  63.765 -10.218  0.00  0.00    -0.105 NA
ATOM      9  C   UNK d   1      22.844  63.645  -9.160  0.00  0.00     0.191 A 
ATOM     10  N   UNK d   1      21.638  63.374  -9.689  0.00  0.00    -0.202 NA
BRANCH   9  11
ATOM     11  C   UNK d   1      23.189  63.779  -7.749  0.00  0.00     0.036 A 
ATOM     12  C   UNK d   1      22.573  64.693  -6.921  0.00  0.00     0.048 A 
ATOM     13 Cl   UNK d   1      21.338  65.715  -7.615  0.00  0.00    -0.083 Cl
ATOM     14  C   UNK d   1      22.898  64.824  -5.575  0.00  0.00     0.025 A 
ATOM     15  C   UNK d   1      23.866  64.027  -5.020  0.00  0.00     0.002 A 
ATOM     16  C   UNK d   1      24.504  63.091  -5.844  0.00  0.00     0.001 A 
ATOM     17  C   UNK d   1      24.156  62.990  -7.172  0.00  0.00     0.017 A 
ENDBRANCH   9  11
ENDBRANCH   5   6
ENDBRANCH   1   5
BRANCH   2  18
ATOM     18  C   UNK d   1      17.261  62.981 -10.085  0.00  0.00     0.151 C 
ATOM     19  C   UNK d   1      17.116  64.491 -10.077  0.00  0.00     0.022 C 
ATOM     20  C   UNK d   1      15.745  64.904  -9.657  0.00  0.00     0.003 C 
ATOM     21  C   UNK d   1      14.770  65.088 -10.773  0.00  0.00     0.022 C 
ATOM     22  C   UNK d   1      15.091  64.200 -11.972  0.00  0.00     0.154 C 
ATOM     23  N   UNK d   1      15.160  62.839 -11.493  0.00  0.00    -0.234 N 
ATOM     24  N   UNK d   1      14.289  61.917 -11.805  0.00  0.00    -0.044 NA
ATOM     25  C   UNK d   1      16.092  62.319 -10.684  0.00  0.00     0.161 A 
ATOM     26  N   UNK d   1      14.631  60.799 -11.214  0.00  0.00    -0.023 NA
ATOM     27  N   UNK d   1      15.732  61.034 -10.526  0.00  0.00    -0.113 NA
ENDBRANCH   2  18
TORSDOF 4
ENDMDL
