/Users/jonathanwahrer/Desktop/Msc/3_Semester/Drug_Design_Praktikum/waehrer_HTS_screening/HTS_experiment/out/docking_results/vina_output/3sx0/1360_docked.pdbqt
 OpenBabel03192222313D

 34 37  0  0  1  0  0  0  0  0999 V2000
   19.8980   64.6230   -9.8280 C   0  0  1  0  0  3  0  0  0  0  0  0
   20.8950   64.9060   -8.8290 N   0  0  0  0  0  0  0  0  0  0  0  0
   21.5820   63.5990   -8.7240 C   0  0  2  0  0  3  0  0  0  0  0  0
   22.7030   63.7970   -7.8890 N   0  0  0  0  0  0  0  0  0  0  0  0
   22.6400   65.1340   -7.3840 C   0  0  0  0  0  0  0  0  0  0  0  0
   21.5450   65.7790   -7.9620 C   0  0  0  0  0  0  0  0  0  0  0  0
   21.2880   67.0890   -7.6150 C   0  0  0  0  0  0  0  0  0  0  0  0
   20.2960   67.6480   -8.1490 O   0  0  0  0  0  0  0  0  0  0  0  0
   22.0860   67.7090   -6.7390 N   0  0  0  0  0  0  0  0  0  0  0  0
   23.1160   67.0740   -6.2060 C   0  0  0  0  0  0  0  0  0  0  0  0
   23.8430   67.6950   -5.3840 O   0  0  0  0  0  0  0  0  0  0  0  0
   23.4220   65.7750   -6.5110 N   0  0  0  0  0  0  0  0  0  0  0  0
   24.5740   65.1960   -5.8570 C   0  0  0  0  0  1  0  0  0  0  0  0
   21.7760   69.1020   -6.3980 C   0  0  0  0  0  1  0  0  0  0  0  0
   23.7340   62.8530   -7.5400 C   0  0  0  0  0  1  0  0  0  0  0  0
   21.7320   63.1480  -10.1150 C   0  0  1  0  0  3  0  0  0  0  0  0
   20.8330   64.0920  -10.9260 C   0  0  1  0  0  3  0  0  0  0  0  0
   18.9990   63.5690   -9.4170 C   0  0  2  0  0  3  0  0  0  0  0  0
   19.4370   62.8710   -8.4080 O   0  0  0  0  0  1  0  0  0  0  0  0
   17.7100   63.1650   -9.9350 C   0  0  0  0  0  0  0  0  0  0  0  0
   17.4110   61.8650  -10.2690 C   0  0  0  0  0  3  0  0  0  0  0  0
   16.1740   61.5670  -10.7840 C   0  0  0  0  0  3  0  0  0  0  0  0
   15.2100   62.5460  -10.9780 C   0  0  0  0  0  0  0  0  0  0  0  0
   13.5010   62.1030  -11.6960 Br  0  0  0  0  0  0  0  0  0  0  0  0
   15.5180   63.8520  -10.6410 C   0  0  0  0  0  3  0  0  0  0  0  0
   16.7520   64.1630  -10.1250 C   0  0  0  0  0  3  0  0  0  0  0  0
   20.1260   63.3890  -11.9920 C   0  0  0  0  0  0  0  0  0  0  0  0
   18.9600   63.7700  -12.3420 O   0  0  0  0  0  0  0  0  0  0  0  0
   20.6740   62.3180  -12.6450 O   0  0  0  0  0  0  0  0  0  0  0  0
   20.2690   61.9130  -13.9550 C   0  0  0  0  0  1  0  0  0  0  0  0
   23.0670   63.0680  -10.6930 C   0  0  0  0  0  0  0  0  0  0  0  0
   23.9020   62.2460  -10.2330 O   0  0  0  0  0  0  0  0  0  0  0  0
   23.4550   63.8720  -11.7430 O   0  0  0  0  0  0  0  0  0  0  0  0
   24.4530   63.4640  -12.6530 C   0  0  0  0  0  1  0  0  0  0  0  0
  1 18  1  1  0  0  0
  1  2  1  0  0  0  0
  2  6  1  0  0  0  0
  3  2  1  6  0  0  0
  3  4  1  0  0  0  0
  4 15  1  0  0  0  0
  4  5  1  0  0  0  0
  5 12  1  0  0  0  0
  6  7  1  0  0  0  0
  6  5  2  0  0  0  0
  7  9  1  0  0  0  0
  8  7  2  0  0  0  0
  9 14  1  0  0  0  0
  9 10  1  0  0  0  0
 10 11  2  0  0  0  0
 12 10  1  0  0  0  0
 12 13  1  0  0  0  0
 16 31  1  6  0  0  0
 16  3  1  0  0  0  0
 17 27  1  6  0  0  0
 17 16  1  0  0  0  0
 17  1  1  0  0  0  0
 18 19  1  6  0  0  0
 20 18  1  0  0  0  0
 21 20  2  0  0  0  0
 22 21  1  0  0  0  0
 23 22  2  0  0  0  0
 23 25  1  0  0  0  0
 24 23  1  0  0  0  0
 25 26  2  0  0  0  0
 26 20  1  0  0  0  0
 28 27  2  0  0  0  0
 29 27  1  0  0  0  0
 30 29  1  0  0  0  0
 31 32  2  0  0  0  0
 33 31  1  0  0  0  0
 34 33  1  0  0  0  0
M  END
>  <Pose>
1

>  <Score>
-3.653

$$$$
