MODEL 1
REMARK VINA RESULT:    -6.909      0.000      0.000
REMARK INTER + INTRA:          -8.695
REMARK INTER:                  -8.120
REMARK INTRA:                  -0.574
REMARK UNBOUND:                -0.574
REMARK  3 active torsions:
REMARK  status: ('A' for Active; 'I' for Inactive)
REMARK    1  A    between atoms: C_4  and  C_8 
REMARK       I    between atoms: C_8  and  N_10 
REMARK    2  A    between atoms: N_10  and  C_11 
REMARK    3  A    between atoms: C_11  and  C_13 
REMARK       I    between atoms: C_13  and  N_15 
ROOT
ATOM      1  C   UNK d   1      13.061  64.835 -13.850  0.00  0.00     0.242 C 
ATOM      2  O   UNK d   1      14.242  64.904 -14.249  0.00  0.00    -0.271 OA
ATOM      3  N   UNK d   1      12.174  65.889 -14.095  0.00  0.00    -0.350 N 
ATOM      4  C   UNK d   1      12.243  66.961 -15.030  0.00  0.00     0.129 C 
ATOM      5  C   UNK d   1      10.775  67.263 -15.368  0.00  0.00     0.068 C 
ATOM      6  C   UNK d   1       9.905  66.035 -15.262  0.00  0.00     0.206 C 
ATOM      7  N   UNK d   1       8.534  66.336 -15.573  0.00  0.00     0.099 N 
ATOM      8  C   UNK d   1       7.749  65.113 -15.352  0.00  0.00     0.277 C 
ATOM      9  C   UNK d   1       8.101  64.041 -16.337  0.00  0.00     0.089 C 
ATOM     10  C   UNK d   1       9.525  64.077 -16.739  0.00  0.00     0.039 A 
ATOM     11  N   UNK d   1      10.208  63.290 -17.575  0.00  0.00    -0.352 N 
ATOM     12  C   UNK d   1      11.486  63.715 -17.616  0.00  0.00     0.207 A 
ATOM     13  N   UNK d   1      11.582  64.770 -16.796  0.00  0.00    -0.244 NA
ATOM     14  C   UNK d   1      10.399  65.043 -16.224  0.00  0.00     0.097 A 
ATOM     15  C   UNK d   1       9.858  65.471 -13.833  0.00  0.00     0.068 C 
ATOM     16  C   UNK d   1      11.016  66.070 -13.157  0.00  0.00     0.129 C 
ATOM     17  H   UNK d   1       8.167  67.033 -14.881  0.00  0.00     0.317 HD
ATOM     18  H   UNK d   1       9.887  62.471 -18.138  0.00  0.00     0.166 HD
ENDROOT
BRANCH   1  19
ATOM     19  C   UNK d   1      12.644  63.596 -13.124  0.00  0.00     0.173 C 
ATOM     20  C   UNK d   1      11.994  62.668 -14.183  0.00  0.00     0.042 C 
BRANCH  19  21
ATOM     21  N   UNK d   1      13.747  62.812 -12.625  0.00  0.00    -0.344 N 
ATOM     22  C   UNK d   1      14.212  63.036 -11.266  0.00  0.00     0.252 C 
ATOM     23  O   UNK d   1      13.656  63.847 -10.515  0.00  0.00    -0.268 OA
ATOM     24  H   UNK d   1      14.191  62.109 -13.212  0.00  0.00     0.163 HD
BRANCH  22  25
ATOM     25  C   UNK d   1      15.386  62.249 -10.852  0.00  0.00     0.033 A 
ATOM     26  C   UNK d   1      16.567  62.947 -10.552  0.00  0.00     0.036 A 
ATOM     27  C   UNK d   1      17.729  62.325 -10.169  0.00  0.00     0.011 A 
ATOM     28 Br   UNK d   1      19.300  63.372  -9.768  0.00  0.00    -0.051 Br
ATOM     29  C   UNK d   1      17.738  60.953 -10.077  0.00  0.00     0.019 A 
ATOM     30  C   UNK d   1      16.583  60.248 -10.373  0.00  0.00     0.002 A 
ATOM     31  C   UNK d   1      15.412  60.891 -10.760  0.00  0.00     0.017 A 
ENDBRANCH  22  25
ENDBRANCH  19  21
ENDBRANCH   1  19
TORSDOF 3
ENDMDL
