/Users/jonathanwahrer/Desktop/Msc/3_Semester/Drug_Design_Praktikum/waehrer_HTS_screening/HTS_experiment/out/docking_results/vina_output/3sx0/1381_docked.pdbqt
 OpenBabel03192222323D

 31 34  0  0  0  0  0  0  0  0999 V2000
   18.7850   63.0340   -9.9310 C   0  0  0  0  0  0  0  0  0  0  0  0
   18.1520   62.0060   -9.7310 O   0  0  0  0  0  0  0  0  0  0  0  0
   18.0200   63.9730  -10.6760 O   0  0  0  0  0  0  0  0  0  0  0  0
   16.8420   64.4630  -10.0950 C   0  0  0  0  0  2  0  0  0  0  0  0
   15.7240   64.0990  -10.9880 C   0  0  0  0  0  0  0  0  0  0  0  0
   15.2930   64.9740  -11.9110 N   0  0  0  0  0  0  0  0  0  0  0  0
   14.2800   64.6960  -12.7490 C   0  0  0  0  0  0  0  0  0  0  0  0
   13.6540   63.5160  -12.6900 N   0  0  0  0  0  0  0  0  0  0  0  0
   13.8690   65.6150  -13.6770 C   0  0  0  0  0  3  0  0  0  0  0  0
   12.6320   63.2300  -13.5340 C   0  0  0  0  0  3  0  0  0  0  0  0
   14.0240   62.5790  -11.7930 C   0  0  0  0  0  0  0  0  0  0  0  0
   12.2020   64.1460  -14.4780 C   0  0  0  0  0  0  0  0  0  0  0  0
   10.7480   63.7190  -15.6640 Br  0  0  0  0  0  0  0  0  0  0  0  0
   12.8330   65.3630  -14.5520 C   0  0  0  0  0  3  0  0  0  0  0  0
   15.0830   62.8870  -10.9260 C   0  0  0  0  0  3  0  0  0  0  0  0
   13.4590   61.4610  -11.7100 O   0  0  0  0  0  0  0  0  0  0  0  0
   20.1310   63.3940   -9.5310 C   0  0  0  0  0  0  0  0  0  0  0  0
   20.3940   63.7730   -8.2450 N   0  0  0  0  0  0  0  0  0  0  0  0
   21.6120   64.1050   -7.8550 N   0  0  0  0  0  0  0  0  0  0  0  0
   22.6510   64.0850   -8.7070 C   0  0  0  0  0  0  0  0  0  0  0  0
   23.8230   64.4080   -8.3190 O   0  0  0  0  0  0  0  0  0  0  0  0
   22.4710   63.7150  -10.0190 C   0  0  0  0  0  0  0  0  0  0  0  0
   21.1740   63.3690  -10.4050 C   0  0  0  0  0  0  0  0  0  0  0  0
   23.5440   63.7020  -10.8700 C   0  0  0  0  0  3  0  0  0  0  0  0
   21.0400   63.0050  -11.7230 C   0  0  0  0  0  3  0  0  0  0  0  0
   22.1220   62.9880  -12.5970 C   0  0  0  0  0  3  0  0  0  0  0  0
   23.3860   63.3360  -12.1830 C   0  0  0  0  0  3  0  0  0  0  0  0
   21.8780   64.5060   -6.4890 C   0  0  0  0  0  2  0  0  0  0  0  0
   22.1620   65.9800   -6.3670 C   0  0  0  0  0  2  0  0  0  0  0  0
   23.4790   66.2450   -6.0390 O   0  0  0  0  0  0  0  0  0  0  0  0
   23.6600   67.1860   -6.2730 H   0  0  0  0  0  0  0  0  0  0  0  0
  1  2  2  0  0  0  0
  1 17  1  0  0  0  0
  3  4  1  0  0  0  0
  3  1  1  0  0  0  0
  5 15  2  0  0  0  0
  5  4  1  0  0  0  0
  6  5  1  0  0  0  0
  7  8  1  0  0  0  0
  7  6  2  0  0  0  0
  8 11  1  0  0  0  0
  9  7  1  0  0  0  0
 10  8  1  0  0  0  0
 11 16  2  0  0  0  0
 11 15  1  0  0  0  0
 12 10  2  0  0  0  0
 13 12  1  0  0  0  0
 14 12  1  0  0  0  0
 14  9  2  0  0  0  0
 17 18  2  0  0  0  0
 18 19  1  0  0  0  0
 19 28  1  0  0  0  0
 20 21  2  0  0  0  0
 20 19  1  0  0  0  0
 22 20  1  0  0  0  0
 23 22  1  0  0  0  0
 23 17  1  0  0  0  0
 24 22  2  0  0  0  0
 25 23  2  0  0  0  0
 26 27  2  0  0  0  0
 26 25  1  0  0  0  0
 27 24  1  0  0  0  0
 28 29  1  0  0  0  0
 29 30  1  0  0  0  0
 31 30  1  0  0  0  0
M  END
>  <Pose>
1

>  <Score>
-8.271

$$$$
