MODEL 1
REMARK VINA RESULT:    -8.271      0.000      0.000
REMARK INTER + INTRA:         -11.950
REMARK INTER:                 -11.414
REMARK INTRA:                  -0.535
REMARK UNBOUND:                -0.535
REMARK  7 active torsions:
REMARK  status: ('A' for Active; 'I' for Inactive)
REMARK    1  A    between atoms: C_7  and  C_11 
REMARK    2  A    between atoms: C_11  and  O_12 
REMARK    3  A    between atoms: O_12  and  C_13 
REMARK    4  A    between atoms: C_13  and  C_15 
REMARK    5  A    between atoms: N_17  and  C_26 
REMARK    6  A    between atoms: C_26  and  C_27 
REMARK    7  A    between atoms: C_27  and  O_28 
ROOT
ATOM      1  C   UNK d   1      18.785  63.034  -9.931  0.00  0.00     0.315 C 
ATOM      2  O   UNK d   1      18.152  62.006  -9.731  0.00  0.00    -0.257 OA
ENDROOT
BRANCH   1   3
ATOM      3  O   UNK d   1      18.020  63.973 -10.676  0.00  0.00    -0.310 OA
BRANCH   3   4
ATOM      4  C   UNK d   1      16.842  64.463 -10.095  0.00  0.00     0.238 C 
BRANCH   4   5
ATOM      5  C   UNK d   1      15.724  64.099 -10.988  0.00  0.00     0.066 A 
ATOM      6  N   UNK d   1      15.293  64.974 -11.911  0.00  0.00    -0.233 NA
ATOM      7  C   UNK d   1      14.280  64.696 -12.749  0.00  0.00     0.137 A 
ATOM      8  N   UNK d   1      13.654  63.516 -12.690  0.00  0.00    -0.272 N 
ATOM      9  C   UNK d   1      13.869  65.615 -13.677  0.00  0.00     0.052 A 
ATOM     10  C   UNK d   1      12.632  63.230 -13.534  0.00  0.00     0.121 A 
ATOM     11  C   UNK d   1      14.024  62.579 -11.793  0.00  0.00     0.255 A 
ATOM     12  C   UNK d   1      12.202  64.146 -14.478  0.00  0.00     0.027 A 
ATOM     13 Br   UNK d   1      10.748  63.719 -15.664  0.00  0.00    -0.050 Br
ATOM     14  C   UNK d   1      12.833  65.363 -14.552  0.00  0.00     0.024 A 
ATOM     15  C   UNK d   1      15.083  62.887 -10.926  0.00  0.00     0.104 A 
ATOM     16  O   UNK d   1      13.459  61.461 -11.710  0.00  0.00    -0.268 OA
ENDBRANCH   4   5
ENDBRANCH   3   4
ENDBRANCH   1   3
BRANCH   1  17
ATOM     17  C   UNK d   1      20.131  63.394  -9.531  0.00  0.00     0.163 A 
ATOM     18  N   UNK d   1      20.394  63.773  -8.245  0.00  0.00    -0.163 NA
ATOM     19  N   UNK d   1      21.612  64.105  -7.855  0.00  0.00    -0.231 N 
ATOM     20  C   UNK d   1      22.651  64.085  -8.707  0.00  0.00     0.274 A 
ATOM     21  O   UNK d   1      23.823  64.408  -8.319  0.00  0.00    -0.266 OA
ATOM     22  C   UNK d   1      22.471  63.715 -10.019  0.00  0.00     0.046 A 
ATOM     23  C   UNK d   1      21.174  63.369 -10.405  0.00  0.00     0.016 A 
ATOM     24  C   UNK d   1      23.544  63.702 -10.870  0.00  0.00     0.018 A 
ATOM     25  C   UNK d   1      21.040  63.005 -11.723  0.00  0.00     0.015 A 
ATOM     26  C   UNK d   1      22.122  62.988 -12.597  0.00  0.00     0.001 A 
ATOM     27  C   UNK d   1      23.386  63.336 -12.183  0.00  0.00     0.001 A 
BRANCH  19  28
ATOM     28  C   UNK d   1      21.878  64.506  -6.489  0.00  0.00     0.180 C 
BRANCH  28  29
ATOM     29  C   UNK d   1      22.162  65.980  -6.367  0.00  0.00     0.186 C 
BRANCH  29  30
ATOM     30  O   UNK d   1      23.479  66.245  -6.039  0.00  0.00    -0.399 OA
ATOM     31  H   UNK d   1      23.660  67.186  -6.273  0.00  0.00     0.209 HD
ENDBRANCH  29  30
ENDBRANCH  28  29
ENDBRANCH  19  28
ENDBRANCH   1  17
TORSDOF 7
ENDMDL
