MODEL 1
REMARK VINA RESULT:    -7.708      0.000      0.000
REMARK INTER + INTRA:          -9.168
REMARK INTER:                  -9.736
REMARK INTRA:                   0.568
REMARK UNBOUND:                 0.568
REMARK  5 active torsions:
REMARK  status: ('A' for Active; 'I' for Inactive)
REMARK    1  A    between atoms: C_6  and  C_12 
REMARK    2  A    between atoms: C_12  and  C_13 
REMARK    3  A    between atoms: C_13  and  C_14 
REMARK       I    between atoms: C_14  and  N_16 
REMARK    4  A    between atoms: C_18  and  N_24 
REMARK    5  A    between atoms: C_19  and  O_22 
ROOT
ATOM      1  C   UNK d   1      13.807  64.161 -13.171  0.00  0.00     0.220 C 
ATOM      2  O   UNK d   1      14.658  64.928 -12.666  0.00  0.00    -0.273 OA
ATOM      3  N   UNK d   1      12.991  64.646 -14.259  0.00  0.00    -0.350 N 
ATOM      4  C   UNK d   1      13.183  65.992 -14.726  0.00  0.00     0.154 C 
ATOM      5  C   UNK d   1      11.936  66.773 -14.368  0.00  0.00     0.146 C 
ATOM      6  C   UNK d   1      10.695  65.956 -14.388  0.00  0.00     0.078 C 
ATOM      7  C   UNK d   1      10.769  64.695 -15.169  0.00  0.00     0.059 C 
ATOM      8  C   UNK d   1      11.983  63.863 -14.919  0.00  0.00     0.129 C 
ATOM      9  C   UNK d   1       9.592  66.819 -15.015  0.00  0.00     0.048 C 
ENDROOT
BRANCH   1  10
ATOM     10  C   UNK d   1      13.605  62.787 -12.699  0.00  0.00     0.110 C 
BRANCH  10  11
ATOM     11  C   UNK d   1      13.851  62.501 -11.279  0.00  0.00     0.088 C 
BRANCH  11  12
ATOM     12  C   UNK d   1      15.264  62.504 -10.821  0.00  0.00     0.107 A 
ATOM     13  N   UNK d   1      15.998  63.645 -10.574  0.00  0.00    -0.233 NA
ATOM     14  C   UNK d   1      17.250  63.302 -10.236  0.00  0.00     0.087 A 
ATOM     15  C   UNK d   1      18.380  64.026  -9.892  0.00  0.00     0.057 A 
ATOM     16  C   UNK d   1      17.347  61.930 -10.260  0.00  0.00     0.064 A 
ATOM     17  C   UNK d   1      19.561  63.392  -9.584  0.00  0.00     0.036 A 
ATOM     18 Cl   UNK d   1      20.976  64.363  -9.151  0.00  0.00    -0.084 Cl
ATOM     19  C   UNK d   1      19.641  62.013  -9.613  0.00  0.00     0.026 A 
ATOM     20  C   UNK d   1      18.526  61.284  -9.952  0.00  0.00     0.034 A 
ATOM     21  N   UNK d   1      16.106  61.495 -10.624  0.00  0.00    -0.338 N 
ATOM     22  C   UNK d   1      15.843  60.078 -10.799  0.00  0.00     0.158 C 
ENDBRANCH  11  12
ENDBRANCH  10  11
ENDBRANCH   1  10
BRANCH   5  23
ATOM     23  N   UNK d   1      11.880  67.933 -15.224  0.00  0.00    -0.300 N 
ATOM     24  C   UNK d   1      12.019  67.799 -16.558  0.00  0.00     0.102 A 
ATOM     25  C   UNK d   1      11.973  68.878 -17.412  0.00  0.00     0.092 A 
ATOM     26  C   UNK d   1      11.778  70.130 -16.876  0.00  0.00     0.250 A 
ATOM     27  O   UNK d   1      11.726  71.169 -17.613  0.00  0.00    -0.268 OA
ATOM     28  N   UNK d   1      11.643  70.233 -15.544  0.00  0.00    -0.275 N 
ATOM     29  C   UNK d   1      11.692  69.172 -14.738  0.00  0.00     0.329 A 
ATOM     30  H   UNK d   1      11.491  71.182 -15.088  0.00  0.00     0.173 HD
ATOM     31  O   UNK d   1      11.559  69.323 -13.490  0.00  0.00    -0.246 OA
ENDBRANCH   5  23
BRANCH   6  32
ATOM     32  O   UNK d   1      10.229  65.641 -13.102  0.00  0.00    -0.388 OA
ATOM     33  H   UNK d   1      10.152  64.638 -13.041  0.00  0.00     0.210 HD
ENDBRANCH   6  32
TORSDOF 5
ENDMDL
