MODEL 1
REMARK VINA RESULT:    -7.528      0.000      0.000
REMARK INTER + INTRA:          -8.707
REMARK INTER:                  -8.408
REMARK INTRA:                  -0.299
REMARK UNBOUND:                -0.299
REMARK  2 active torsions:
REMARK  status: ('A' for Active; 'I' for Inactive)
REMARK    1  A    between atoms: N_4  and  C_8 
REMARK    2  A    between atoms: C_8  and  C_9 
ROOT
ATOM      1  C   UNK d   1      22.395  63.767  -8.661  0.00  0.00     0.168 A 
ATOM      2  N   UNK d   1      21.872  64.393  -7.594  0.00  0.00    -0.148 NA
ATOM      3  N   UNK d   1      22.629  64.184  -6.505  0.00  0.00    -0.206 N 
ATOM      4  C   UNK d   1      23.659  63.407  -6.886  0.00  0.00     0.169 A 
ATOM      5  N   UNK d   1      23.508  63.158  -8.200  0.00  0.00    -0.209 NA
ATOM      6  C   UNK d   1      24.587  63.053  -5.925  0.00  0.00     0.079 A 
ATOM      7  C   UNK d   1      24.481  63.470  -4.611  0.00  0.00     0.162 A 
ATOM      8  N   UNK d   1      25.511  62.986  -3.883  0.00  0.00    -0.256 N 
ATOM      9  N   UNK d   1      26.247  62.281  -4.722  0.00  0.00    -0.182 NA
ATOM     10  C   UNK d   1      25.731  62.291  -5.964  0.00  0.00     0.158 A 
ATOM     11  C   UNK d   1      25.737  63.215  -2.458  0.00  0.00     0.182 C 
ATOM     12  N   UNK d   1      23.427  64.244  -4.302  0.00  0.00    -0.222 NA
ATOM     13  C   UNK d   1      22.519  64.595  -5.227  0.00  0.00     0.239 A 
ENDROOT
BRANCH   1  14
ATOM     14  C   UNK d   1      21.886  63.730 -10.060  0.00  0.00     0.232 C 
BRANCH  14  15
ATOM     15  N   UNK d   1      20.472  63.396 -10.109  0.00  0.00    -0.272 N 
ATOM     16  C   UNK d   1      19.444  64.254 -10.261  0.00  0.00     0.134 A 
ATOM     17  C   UNK d   1      18.258  63.523 -10.255  0.00  0.00     0.054 A 
ATOM     18 Br   UNK d   1      16.475  64.173 -10.430  0.00  0.00    -0.047 Br
ATOM     19  C   UNK d   1      18.625  62.204 -10.096  0.00  0.00     0.069 A 
ATOM     20  N   UNK d   1      19.969  62.165 -10.011  0.00  0.00    -0.176 NA
ATOM     21  C   UNK d   1      17.656  61.084 -10.037  0.00  0.00     0.074 C 
ENDBRANCH  14  15
ENDBRANCH   1  14
TORSDOF 2
ENDMDL
