MODEL 1
REMARK VINA RESULT:    -6.011      0.000      0.000
REMARK INTER + INTRA:          -6.884
REMARK INTER:                  -7.241
REMARK INTRA:                   0.357
REMARK UNBOUND:                 0.357
REMARK  4 active torsions:
REMARK  status: ('A' for Active; 'I' for Inactive)
REMARK    1  A    between atoms: C_10  and  O_27 
REMARK    2  A    between atoms: C_11  and  N_14 
REMARK    3  A    between atoms: C_11  and  C_20 
REMARK    4  A    between atoms: C_20  and  N_21 
ROOT
ATOM      1 Br   UNK d   1      15.870  65.734 -10.240  0.00  0.00    -0.048 Br
ATOM      2  C   UNK d   1      16.505  63.948 -10.291  0.00  0.00     0.051 A 
ATOM      3  C   UNK d   1      17.865  63.691 -10.091  0.00  0.00     0.095 A 
ATOM      4  C   UNK d   1      18.359  62.409 -10.109  0.00  0.00     0.008 A 
ATOM      5  C   UNK d   1      17.467  61.387 -10.332  0.00  0.00     0.020 A 
ATOM      6  C   UNK d   1      16.107  61.615 -10.534  0.00  0.00    -0.054 A 
ATOM      7  C   UNK d   1      15.618  62.925 -10.510  0.00  0.00    -0.036 A 
ATOM      8  C   UNK d   1      14.166  63.180 -10.719  0.00  0.00     0.050 C 
ATOM      9  C   UNK d   1      15.186  60.477 -10.793  0.00  0.00     0.049 C 
ATOM     10  C   UNK d   1      19.783  62.040  -9.868  0.00  0.00     0.197 C 
ATOM     11  C   UNK d   1      20.727  63.203  -9.817  0.00  0.00     0.236 C 
ATOM     12  C   UNK d   1      20.080  64.388 -10.511  0.00  0.00     0.222 C 
ATOM     13  O   UNK d   1      18.811  64.683  -9.872  0.00  0.00    -0.346 OA
ENDROOT
BRANCH  11  14
ATOM     14  N   UNK d   1      21.888  62.819 -10.591  0.00  0.00     0.109 N 
ATOM     15  C   UNK d   1      23.114  62.919  -9.872  0.00  0.00     0.299 C 
ATOM     16  C   UNK d   1      24.359  62.920 -10.712  0.00  0.00     0.198 C 
ATOM     17  O   UNK d   1      24.259  63.584 -11.905  0.00  0.00    -0.388 OA
ATOM     18  C   UNK d   1      23.208  63.008 -12.630  0.00  0.00     0.198 C 
ATOM     19  C   UNK d   1      21.941  63.472 -11.865  0.00  0.00     0.299 C 
ENDBRANCH  11  14
BRANCH  11  20
ATOM     20  C   UNK d   1      21.070  63.704  -8.466  0.00  0.00     0.319 C 
BRANCH  20  21
ATOM     21  N   UNK d   1      21.637  64.949  -8.219  0.00  0.00     0.095 N 
ATOM     22  C   UNK d   1      21.044  65.528  -6.965  0.00  0.00     0.298 C 
ATOM     23  C   UNK d   1      21.204  64.601  -5.817  0.00  0.00     0.198 C 
ATOM     24  O   UNK d   1      22.327  63.819  -5.857  0.00  0.00    -0.388 OA
ATOM     25  C   UNK d   1      23.372  64.307  -6.585  0.00  0.00     0.198 C 
ATOM     26  C   UNK d   1      23.040  65.024  -7.853  0.00  0.00     0.298 C 
ENDBRANCH  20  21
ENDBRANCH  11  20
BRANCH  10  27
ATOM     27  O   UNK d   1      20.164  61.147 -10.917  0.00  0.00    -0.388 OA
ATOM     28  H   UNK d   1      21.152  61.125 -10.927  0.00  0.00     0.210 HD
ENDBRANCH  10  27
TORSDOF 4
ENDMDL
