MODEL 1
REMARK VINA RESULT:    -8.055      0.000      0.000
REMARK INTER + INTRA:          -8.609
REMARK INTER:                  -8.997
REMARK INTRA:                   0.388
REMARK UNBOUND:                 0.388
REMARK  2 active torsions:
REMARK  status: ('A' for Active; 'I' for Inactive)
REMARK    1  A    between atoms: N_5  and  C_8 
REMARK    2  A    between atoms: C_8  and  C_9 
REMARK       I    between atoms: C_9  and  N_11 
ROOT
ATOM      1  C   UNK d   1      21.257  63.244  -8.942  0.00  0.00     0.171 C 
ATOM      2  O   UNK d   1      22.042  63.244 -10.013  0.00  0.00    -0.175 OA
ATOM      3  N   UNK d   1      21.552  64.233  -8.016  0.00  0.00    -0.361 N 
ATOM      4  C   UNK d   1      20.909  64.495  -6.778  0.00  0.00     0.127 C 
ATOM      5  C   UNK d   1      21.824  64.090  -5.622  0.00  0.00     0.061 C 
ATOM      6  C   UNK d   1      23.274  64.307  -6.020  0.00  0.00     0.118 C 
ATOM      7  N   UNK d   1      23.956  64.718  -4.804  0.00  0.00    -0.324 N 
ATOM      8  C   UNK d   1      24.410  63.507  -4.165  0.00  0.00     0.323 C 
ATOM      9  O   UNK d   1      24.753  63.391  -2.962  0.00  0.00    -0.247 OA
ATOM     10  N   UNK d   1      24.392  62.468  -5.162  0.00  0.00    -0.277 N 
ATOM     11  C   UNK d   1      23.937  63.037  -6.383  0.00  0.00     0.254 C 
ATOM     12  O   UNK d   1      24.088  62.530  -7.518  0.00  0.00    -0.270 OA
ATOM     13  C   UNK d   1      23.437  65.388  -7.042  0.00  0.00     0.061 C 
ATOM     14  C   UNK d   1      22.679  65.152  -8.308  0.00  0.00     0.127 C 
ATOM     15  H   UNK d   1      24.097  65.688  -4.452  0.00  0.00     0.165 HD
ATOM     16  H   UNK d   1      24.664  61.486  -5.011  0.00  0.00     0.173 HD
ENDROOT
BRANCH   1  17
ATOM     17  C   UNK d   1      20.266  62.188  -9.001  0.00  0.00     0.216 C 
BRANCH  17  18
ATOM     18  N   UNK d   1      19.007  62.430  -9.615  0.00  0.00    -0.341 N 
ATOM     19  C   UNK d   1      18.074  61.453  -9.817  0.00  0.00     0.046 A 
ATOM     20  C   UNK d   1      16.967  62.005 -10.407  0.00  0.00     0.010 A 
ATOM     21  C   UNK d   1      18.089  60.087  -9.533  0.00  0.00     0.030 A 
ATOM     22  C   UNK d   1      17.229  63.343 -10.568  0.00  0.00     0.045 A 
ATOM     23  C   UNK d   1      15.877  61.204 -10.714  0.00  0.00     0.015 A 
ATOM     24 Br   UNK d   1      15.983  64.562 -11.353  0.00  0.00    -0.048 Br
ATOM     25  C   UNK d   1      18.481  63.588 -10.078  0.00  0.00     0.027 A 
ATOM     26  C   UNK d   1      19.162  64.903 -10.050  0.00  0.00     0.070 C 
ATOM     27  C   UNK d   1      15.900  59.858 -10.430  0.00  0.00     0.001 A 
ATOM     28  C   UNK d   1      16.995  59.289  -9.842  0.00  0.00     0.002 A 
ENDBRANCH  17  18
ENDBRANCH   1  17
TORSDOF 2
ENDMDL
