MODEL 1
REMARK VINA RESULT:    -7.588      0.000      0.000
REMARK INTER + INTRA:         -10.464
REMARK INTER:                  -9.806
REMARK INTRA:                  -0.658
REMARK UNBOUND:                -0.658
REMARK  5 active torsions:
REMARK  status: ('A' for Active; 'I' for Inactive)
REMARK    1  A    between atoms: N_3  and  C_14 
REMARK    2  A    between atoms: C_14  and  C_15 
REMARK    3  A    between atoms: C_15  and  C_16 
REMARK    4  A    between atoms: C_16  and  C_17 
REMARK    5  A    between atoms: C_17  and  N_18 
ROOT
ATOM      1  C   UNK d   1      18.981  63.286 -10.239  0.00  0.00     0.022 C 
ENDROOT
BRANCH   1   2
ATOM      2  C   UNK d   1      17.743  62.999  -9.400  0.00  0.00     0.132 C 
BRANCH   2   3
ATOM      3  N   UNK d   1      16.668  62.474 -10.208  0.00  0.00    -0.318 N 
ATOM      4  C   UNK d   1      16.355  61.182 -10.472  0.00  0.00     0.180 A 
ATOM      5 Br   UNK d   1      17.346  59.704  -9.778  0.00  0.00    -0.008 Br
ATOM      6  N   UNK d   1      15.276  61.114 -11.273  0.00  0.00    -0.203 NA
ATOM      7  C   UNK d   1      14.862  62.374 -11.546  0.00  0.00     0.169 A 
ATOM      8  C   UNK d   1      15.742  63.198 -10.875  0.00  0.00     0.152 A 
ATOM      9  N   UNK d   1      13.840  62.852 -12.291  0.00  0.00    -0.286 N 
ATOM     10  C   UNK d   1      15.555  64.566 -10.978  0.00  0.00     0.280 A 
ATOM     11  N   UNK d   1      14.538  65.031 -11.719  0.00  0.00    -0.273 N 
ATOM     12  O   UNK d   1      16.360  65.300 -10.364  0.00  0.00    -0.265 OA
ATOM     13  C   UNK d   1      13.691  64.187 -12.368  0.00  0.00     0.330 A 
ATOM     14  H   UNK d   1      14.390  66.064 -11.802  0.00  0.00     0.173 HD
ATOM     15  O   UNK d   1      12.762  64.705 -13.042  0.00  0.00    -0.246 OA
ATOM     16  C   UNK d   1      12.925  61.970 -12.991  0.00  0.00     0.163 C 
ENDBRANCH   2   3
ENDBRANCH   1   2
BRANCH   1  17
ATOM     17  C   UNK d   1      20.239  63.032  -9.452  0.00  0.00     0.022 C 
BRANCH  17  18
ATOM     18  C   UNK d   1      21.140  64.221  -9.305  0.00  0.00     0.132 C 
BRANCH  18  19
ATOM     19  N   UNK d   1      22.314  63.871  -8.577  0.00  0.00    -0.318 N 
ATOM     20  C   UNK d   1      22.587  63.947  -7.276  0.00  0.00     0.152 A 
ATOM     21  C   UNK d   1      23.865  63.443  -7.057  0.00  0.00     0.169 A 
ATOM     22  C   UNK d   1      21.901  64.403  -6.181  0.00  0.00     0.280 A 
ATOM     23  N   UNK d   1      24.319  63.079  -8.253  0.00  0.00    -0.203 NA
ATOM     24  N   UNK d   1      24.386  63.409  -5.828  0.00  0.00    -0.286 N 
ATOM     25  C   UNK d   1      23.399  63.330  -9.186  0.00  0.00     0.180 A 
ATOM     26 Br   UNK d   1      23.630  62.965 -11.043  0.00  0.00    -0.008 Br
ATOM     27  C   UNK d   1      23.690  63.863  -4.767  0.00  0.00     0.330 A 
ATOM     28  C   UNK d   1      25.723  62.886  -5.570  0.00  0.00     0.163 C 
ATOM     29  O   UNK d   1      24.187  63.828  -3.614  0.00  0.00    -0.246 OA
ATOM     30  N   UNK d   1      22.461  64.351  -4.964  0.00  0.00    -0.273 N 
ATOM     31  H   UNK d   1      21.879  64.718  -4.157  0.00  0.00     0.173 HD
ATOM     32  O   UNK d   1      20.754  64.864  -6.345  0.00  0.00    -0.265 OA
ENDBRANCH  18  19
ENDBRANCH  17  18
ENDBRANCH   1  17
TORSDOF 5
ENDMDL
