MODEL 1
REMARK VINA RESULT:    -8.526      0.000      0.000
REMARK INTER + INTRA:         -10.501
REMARK INTER:                 -11.018
REMARK INTRA:                   0.517
REMARK UNBOUND:                 0.517
REMARK  5 active torsions:
REMARK  status: ('A' for Active; 'I' for Inactive)
REMARK    1  A    between atoms: C_3  and  C_8 
REMARK    2  A    between atoms: C_8  and  N_9 
REMARK    3  A    between atoms: C_13  and  N_14 
REMARK    4  A    between atoms: C_15  and  C_17 
REMARK    5  A    between atoms: C_17  and  N_18 
ROOT
ATOM      1  N   UNK d   1      20.861  63.065  -9.747  0.00  0.00    -0.322 N 
ATOM      2  C   UNK d   1      19.519  63.129  -9.947  0.00  0.00     0.174 C 
ATOM      3  O   UNK d   1      18.905  62.800  -8.762  0.00  0.00    -0.175 OA
ATOM      4  H   UNK d   1      21.115  62.783  -8.688  0.00  0.00     0.169 HD
ENDROOT
BRANCH   2   5
ATOM      5  C   UNK d   1      18.517  63.423 -10.959  0.00  0.00     0.210 C 
BRANCH   5   6
ATOM      6  N   UNK d   1      17.163  63.693 -10.733  0.00  0.00    -0.373 N 
ATOM      7  C   UNK d   1      16.684  64.959 -10.115  0.00  0.00     0.123 C 
ATOM      8  C   UNK d   1      15.244  64.678  -9.740  0.00  0.00     0.020 C 
ATOM      9  C   UNK d   1      14.456  64.439 -11.001  0.00  0.00     0.008 C 
ATOM     10  C   UNK d   1      14.896  63.133 -11.627  0.00  0.00     0.061 C 
ATOM     11  C   UNK d   1      16.183  62.685 -11.019  0.00  0.00     0.053 C 
ATOM     12  C   UNK d   1      16.354  61.408 -10.672  0.00  0.00     0.146 A 
ATOM     13  N   UNK d   1      15.365  60.411 -10.979  0.00  0.00    -0.280 N 
ATOM     14  N   UNK d   1      17.346  60.753  -9.950  0.00  0.00    -0.291 N 
ATOM     15  N   UNK d   1      15.769  59.174 -10.444  0.00  0.00    -0.250 N 
ATOM     16  H   UNK d   1      14.469  60.468 -11.501  0.00  0.00     0.188 HD
ATOM     17  C   UNK d   1      17.007  59.363  -9.796  0.00  0.00     0.340 A 
ATOM     18  H   UNK d   1      15.267  58.253 -10.498  0.00  0.00     0.192 HD
ATOM     19  O   UNK d   1      17.723  58.534  -9.189  0.00  0.00    -0.245 OA
ATOM     20  H   UNK d   1      18.196  61.186  -9.553  0.00  0.00     0.172 HD
ENDBRANCH   5   6
ENDBRANCH   2   5
BRANCH   1  21
ATOM     21  C   UNK d   1      22.028  63.158 -10.495  0.00  0.00     0.127 A 
ATOM     22  N   UNK d   1      23.308  63.009 -10.038  0.00  0.00    -0.250 N 
ATOM     23  N   UNK d   1      24.138  63.110 -11.068  0.00  0.00    -0.183 NA
ATOM     24  C   UNK d   1      23.482  63.319 -12.197  0.00  0.00     0.142 A 
ATOM     25  C   UNK d   1      22.122  63.353 -11.855  0.00  0.00     0.071 A 
BRANCH  22  26
ATOM     26  C   UNK d   1      23.665  62.790  -8.680  0.00  0.00     0.193 C 
BRANCH  26  27
ATOM     27  C   UNK d   1      23.275  63.877  -7.763  0.00  0.00    -0.017 A 
ATOM     28  C   UNK d   1      23.748  64.005  -6.491  0.00  0.00     0.042 A 
ATOM     29 Cl   UNK d   1      24.887  62.835  -5.865  0.00  0.00    -0.084 Cl
ATOM     30  C   UNK d   1      23.348  65.041  -5.680  0.00  0.00     0.024 A 
ATOM     31  C   UNK d   1      22.453  65.987  -6.127  0.00  0.00     0.002 A 
ATOM     32  C   UNK d   1      21.968  65.868  -7.412  0.00  0.00     0.001 A 
ATOM     33  C   UNK d   1      22.381  64.827  -8.204  0.00  0.00     0.010 A 
ENDBRANCH  26  27
ENDBRANCH  22  26
ENDBRANCH   1  21
TORSDOF 5
ENDMDL
