/Users/jonathanwahrer/Desktop/Msc/3_Semester/Drug_Design_Praktikum/waehrer_HTS_screening/HTS_experiment/out/docking_results/vina_output/3sx0/1444_docked.pdbqt
 OpenBabel03192222353D

 33 36  0  0  0  0  0  0  0  0999 V2000
   20.8610   63.0650   -9.7470 N   0  0  0  0  0  0  0  0  0  0  0  0
   19.5190   63.1290   -9.9470 C   0  0  0  0  0  0  0  0  0  0  0  0
   18.9050   62.8000   -8.7620 O   0  0  0  0  0  0  0  0  0  0  0  0
   21.1150   62.7830   -8.6880 H   0  0  0  0  0  0  0  0  0  0  0  0
   18.5170   63.4230  -10.9590 C   0  0  0  0  0  2  0  0  0  0  0  0
   17.1630   63.6930  -10.7330 N   0  0  0  0  0  0  0  0  0  0  0  0
   16.6840   64.9590  -10.1150 C   0  0  0  0  0  2  0  0  0  0  0  0
   15.2440   64.6780   -9.7400 C   0  0  0  0  0  2  0  0  0  0  0  0
   14.4560   64.4390  -11.0010 C   0  0  0  0  0  2  0  0  0  0  0  0
   14.8960   63.1330  -11.6270 C   0  0  0  0  0  2  0  0  0  0  0  0
   16.1830   62.6850  -11.0190 C   0  0  0  0  0  0  0  0  0  0  0  0
   16.3540   61.4080  -10.6720 C   0  0  0  0  0  0  0  0  0  0  0  0
   15.3650   60.4110  -10.9790 N   0  0  0  0  0  0  0  0  0  0  0  0
   17.3460   60.7530   -9.9500 N   0  0  0  0  0  0  0  0  0  0  0  0
   15.7690   59.1740  -10.4440 N   0  0  0  0  0  0  0  0  0  0  0  0
   14.4690   60.4680  -11.5010 H   0  0  0  0  0  0  0  0  0  0  0  0
   17.0070   59.3630   -9.7960 C   0  0  0  0  0  0  0  0  0  0  0  0
   15.2670   58.2530  -10.4980 H   0  0  0  0  0  0  0  0  0  0  0  0
   17.7230   58.5340   -9.1890 O   0  0  0  0  0  0  0  0  0  0  0  0
   18.1960   61.1860   -9.5530 H   0  0  0  0  0  0  0  0  0  0  0  0
   22.0280   63.1580  -10.4950 C   0  0  0  0  0  0  0  0  0  0  0  0
   23.3080   63.0090  -10.0380 N   0  0  0  0  0  0  0  0  0  0  0  0
   24.1380   63.1100  -11.0680 N   0  0  0  0  0  0  0  0  0  0  0  0
   23.4820   63.3190  -12.1970 C   0  0  0  0  0  3  0  0  0  0  0  0
   22.1220   63.3530  -11.8550 C   0  0  0  0  0  3  0  0  0  0  0  0
   23.6650   62.7900   -8.6800 C   0  0  0  0  0  2  0  0  0  0  0  0
   23.2750   63.8770   -7.7630 C   0  0  0  0  0  0  0  0  0  0  0  0
   23.7480   64.0050   -6.4910 C   0  0  0  0  0  0  0  0  0  0  0  0
   24.8870   62.8350   -5.8650 Cl  0  0  0  0  0  0  0  0  0  0  0  0
   23.3480   65.0410   -5.6800 C   0  0  0  0  0  3  0  0  0  0  0  0
   22.4530   65.9870   -6.1270 C   0  0  0  0  0  3  0  0  0  0  0  0
   21.9680   65.8680   -7.4120 C   0  0  0  0  0  3  0  0  0  0  0  0
   22.3810   64.8270   -8.2040 C   0  0  0  0  0  3  0  0  0  0  0  0
  1  4  1  0  0  0  0
  2  1  1  0  0  0  0
  2  3  2  0  0  0  0
  5  6  1  0  0  0  0
  5  2  1  0  0  0  0
  6  7  1  0  0  0  0
  7  8  1  0  0  0  0
  9  8  1  0  0  0  0
 10 11  1  0  0  0  0
 10  9  1  0  0  0  0
 11  6  1  0  0  0  0
 11 12  2  0  0  0  0
 12 14  1  0  0  0  0
 13 12  1  0  0  0  0
 13 15  1  0  0  0  0
 14 17  1  0  0  0  0
 14 20  1  0  0  0  0
 15 17  1  0  0  0  0
 16 13  1  0  0  0  0
 17 19  2  0  0  0  0
 18 15  1  0  0  0  0
 21 22  1  0  0  0  0
 21  1  1  0  0  0  0
 22 26  1  0  0  0  0
 23 22  1  0  0  0  0
 24 25  1  0  0  0  0
 24 23  2  0  0  0  0
 25 21  2  0  0  0  0
 26 27  1  0  0  0  0
 27 28  1  0  0  0  0
 28 29  1  0  0  0  0
 28 30  2  0  0  0  0
 31 30  1  0  0  0  0
 32 31  2  0  0  0  0
 33 27  2  0  0  0  0
 33 32  1  0  0  0  0
M  END
>  <Pose>
1

>  <Score>
-8.526

$$$$
