/Users/jonathanwahrer/Desktop/Msc/3_Semester/Drug_Design_Praktikum/waehrer_HTS_screening/HTS_experiment/out/docking_results/vina_output/3sx0/1447_docked.pdbqt
 OpenBabel03192222363D

 38 41  0  0  0  0  0  0  0  0999 V2000
   12.7200   66.6240  -14.9970 C   0  0  0  0  0  0  0  0  0  0  0  0
   13.0940   67.8200  -15.5580 N   0  0  0  0  0  0  0  0  0  0  0  0
   12.0410   68.4210  -16.0380 N   0  0  0  0  0  0  0  0  0  0  0  0
   10.9460   67.7080  -15.8400 N   0  0  0  0  0  0  0  0  0  0  0  0
   11.3370   66.5920  -15.2010 C   0  0  0  0  0  0  0  0  0  0  0  0
   13.6220   65.6770  -14.3680 C   0  0  0  0  0  0  0  0  0  0  0  0
   13.7360   65.3390  -13.0260 N   0  0  0  0  0  0  0  0  0  0  0  0
   13.1810   65.7220  -12.2250 H   0  0  0  0  0  0  0  0  0  0  0  0
   14.4190   65.0780  -15.1830 O   0  0  0  0  0  0  0  0  0  0  0  0
   14.7260   64.3570  -12.6810 N   0  0  0  0  0  0  0  0  0  0  0  0
   15.3620   64.4730  -11.5700 C   0  0  0  0  0  3  0  0  0  0  0  0
   16.3810   63.5350  -11.1240 C   0  0  0  0  0  0  0  0  0  0  0  0
   17.6820   63.9280  -10.9530 C   0  0  0  0  0  3  0  0  0  0  0  0
   18.6700   63.0470  -10.5280 C   0  0  0  0  0  0  0  0  0  0  0  0
   18.3410   61.7200  -10.2630 C   0  0  0  0  0  0  0  0  0  0  0  0
   20.4580   63.6350  -10.3060 Br  0  0  0  0  0  0  0  0  0  0  0  0
   17.0480   61.3200  -10.4300 C   0  0  0  0  0  0  0  0  0  0  0  0
   16.5580   59.5240  -10.0790 Br  0  0  0  0  0  0  0  0  0  0  0  0
   16.0700   62.2200  -10.8580 C   0  0  0  0  0  0  0  0  0  0  0  0
   19.3420   60.8570   -9.8400 O   0  0  0  0  0  0  0  0  0  0  0  0
   20.0270   60.5010  -10.4850 H   0  0  0  0  0  0  0  0  0  0  0  0
   14.7510   61.8320  -11.0340 O   0  0  0  0  0  0  0  0  0  0  0  0
   14.2130   62.1950  -11.8120 H   0  0  0  0  0  0  0  0  0  0  0  0
   10.4790   65.4990  -14.7320 C   0  0  0  0  0  2  0  0  0  0  0  0
   10.5120   64.3020  -15.5760 N   0  0  0  0  0  0  0  0  0  0  0  0
    9.1510   64.0570  -16.0930 C   0  0  0  0  0  2  0  0  0  0  0  0
    8.1630   64.1640  -14.9840 C   0  0  0  0  0  2  0  0  0  0  0  0
    8.5290   63.3280  -13.9570 O   0  0  0  0  0  0  0  0  0  0  0  0
    9.5550   62.4720  -14.2620 C   0  0  0  0  0  2  0  0  0  0  0  0
   10.8280   63.1410  -14.7100 C   0  0  0  0  0  2  0  0  0  0  0  0
    9.6480   68.1240  -16.2260 C   0  0  0  0  0  0  0  0  0  0  0  0
    8.6750   67.4290  -16.8530 N   0  0  0  0  0  0  0  0  0  0  0  0
    7.6220   68.1860  -17.0130 O   0  0  0  0  0  0  0  0  0  0  0  0
    7.8380   69.3780  -16.5170 N   0  0  0  0  0  0  0  0  0  0  0  0
    9.0860   69.3750  -16.0190 C   0  0  0  0  0  0  0  0  0  0  0  0
    9.6940   70.4850  -15.3940 N   0  0  0  0  0  0  0  0  0  0  0  0
   10.7280   70.5600  -15.4040 H   0  0  0  0  0  0  0  0  0  0  0  0
    9.1490   71.2290  -14.9240 H   0  0  0  0  0  0  0  0  0  0  0  0
  1  6  1  0  0  0  0
  2  1  1  0  0  0  0
  3  4  1  0  0  0  0
  3  2  2  0  0  0  0
  4  5  1  0  0  0  0
  5  1  2  0  0  0  0
  5 24  1  0  0  0  0
  6  7  1  0  0  0  0
  7 10  1  0  0  0  0
  7  8  1  0  0  0  0
  9  6  2  0  0  0  0
 10 11  2  0  0  0  0
 11 12  1  0  0  0  0
 12 13  2  0  0  0  0
 12 19  1  0  0  0  0
 13 14  1  0  0  0  0
 14 16  1  0  0  0  0
 14 15  2  0  0  0  0
 15 20  1  0  0  0  0
 17 15  1  0  0  0  0
 17 18  1  0  0  0  0
 19 17  2  0  0  0  0
 21 20  1  0  0  0  0
 22 19  1  0  0  0  0
 23 22  1  0  0  0  0
 25 24  1  0  0  0  0
 25 30  1  0  0  0  0
 26 25  1  0  0  0  0
 26 27  1  0  0  0  0
 27 28  1  0  0  0  0
 29 28  1  0  0  0  0
 30 29  1  0  0  0  0
 31 35  1  0  0  0  0
 31  4  1  0  0  0  0
 32 31  2  0  0  0  0
 33 32  1  0  0  0  0
 33 34  1  0  0  0  0
 34 35  2  0  0  0  0
 35 36  1  0  0  0  0
 36 38  1  0  0  0  0
 37 36  1  0  0  0  0
M  END
>  <Pose>
1

>  <Score>
-6.490

$$$$
