MODEL 1
REMARK VINA RESULT:    -8.784      0.000      0.000
REMARK INTER + INTRA:         -12.402
REMARK INTER:                 -11.865
REMARK INTRA:                  -0.538
REMARK UNBOUND:                -0.538
REMARK  6 active torsions:
REMARK  status: ('A' for Active; 'I' for Inactive)
REMARK    1  A    between atoms: C_6  and  C_8 
REMARK       I    between atoms: C_8  and  N_10 
REMARK    2  A    between atoms: N_10  and  C_11 
REMARK    3  A    between atoms: C_11  and  C_12 
REMARK    4  A    between atoms: C_12  and  N_13 
REMARK    5  A    between atoms: C_16  and  C_18 
REMARK    6  A    between atoms: C_20  and  C_23 
ROOT
ATOM      1  N   UNK d   1      22.711  64.102  -8.254  0.00  0.00    -0.281 N 
ATOM      2  N   UNK d   1      23.024  64.123  -9.539  0.00  0.00     0.005 NA
ATOM      3  N   UNK d   1      22.020  63.657 -10.269  0.00  0.00    -0.154 NA
ATOM      4  C   UNK d   1      21.006  63.314  -9.460  0.00  0.00     0.146 A 
ATOM      5  C   UNK d   1      21.450  63.598  -8.190  0.00  0.00     0.145 A 
ENDROOT
BRANCH   1   6
ATOM      6  C   UNK d   1      23.532  64.526  -7.114  0.00  0.00     0.165 C 
BRANCH   6   7
ATOM      7  C   UNK d   1      22.733  65.592  -6.398  0.00  0.00     0.144 C 
BRANCH   7   8
ATOM      8  N   UNK d   1      23.557  66.760  -6.127  0.00  0.00    -0.355 N 
ATOM      9  C   UNK d   1      22.997  68.043  -6.366  0.00  0.00     0.253 C 
ATOM     10  O   UNK d   1      21.803  68.139  -6.804  0.00  0.00    -0.268 OA
ATOM     11  H   UNK d   1      24.528  66.666  -5.770  0.00  0.00     0.162 HD
BRANCH   9  12
ATOM     12  C   UNK d   1      23.731  69.277  -6.130  0.00  0.00     0.050 A 
ATOM     13  C   UNK d   1      24.044  70.095  -7.178  0.00  0.00     0.133 A 
ATOM     14  N   UNK d   1      24.718  71.255  -7.064  0.00  0.00    -0.271 NA
ATOM     15  C   UNK d   1      25.121  71.649  -5.834  0.00  0.00     0.135 A 
ATOM     16  C   UNK d   1      24.839  70.870  -4.734  0.00  0.00     0.029 A 
ATOM     17 Br   UNK d   1      25.426  71.466  -3.017  0.00  0.00    -0.050 Br
ATOM     18  C   UNK d   1      24.138  69.671  -4.870  0.00  0.00     0.039 A 
ENDBRANCH   9  12
ENDBRANCH   7   8
ENDBRANCH   6   7
ENDBRANCH   1   6
BRANCH   4  19
ATOM     19  C   UNK d   1      19.717  62.762  -9.837  0.00  0.00     0.228 A 
ATOM     20  N   UNK d   1      18.612  63.444 -10.191  0.00  0.00    -0.198 NA
ATOM     21  C   UNK d   1      17.625  62.577 -10.468  0.00  0.00     0.191 A 
ATOM     22  N   UNK d   1      18.148  61.356 -10.277  0.00  0.00    -0.105 NA
ATOM     23  O   UNK d   1      19.383  61.500  -9.905  0.00  0.00    -0.189 OA
BRANCH  21  24
ATOM     24  C   UNK d   1      16.246  62.901 -10.894  0.00  0.00     0.032 A 
ATOM     25  C   UNK d   1      15.945  64.170 -11.331  0.00  0.00     0.131 A 
ATOM     26  N   UNK d   1      14.694  64.476 -11.723  0.00  0.00    -0.272 NA
ATOM     27  C   UNK d   1      13.682  63.584 -11.713  0.00  0.00     0.116 A 
ATOM     28  C   UNK d   1      13.995  62.312 -11.273  0.00  0.00     0.020 A 
ATOM     29  C   UNK d   1      15.255  61.959 -10.866  0.00  0.00     0.018 A 
ENDBRANCH  21  24
ENDBRANCH   4  19
TORSDOF 6
ENDMDL
