/Users/jonathanwahrer/Desktop/Msc/3_Semester/Drug_Design_Praktikum/waehrer_HTS_screening/HTS_experiment/out/docking_results/vina_output/3sx0/1466_docked.pdbqt
 OpenBabel03192222363D

 29 32  0  0  0  0  0  0  0  0999 V2000
   22.7110   64.1020   -8.2540 N   0  0  0  0  0  0  0  0  0  0  0  0
   23.0240   64.1230   -9.5390 N   0  0  0  0  0  0  0  0  0  0  0  0
   22.0200   63.6570  -10.2690 N   0  0  0  0  0  0  0  0  0  0  0  0
   21.0060   63.3140   -9.4600 C   0  0  0  0  0  0  0  0  0  0  0  0
   21.4500   63.5980   -8.1900 C   0  0  0  0  0  3  0  0  0  0  0  0
   23.5320   64.5260   -7.1140 C   0  0  0  0  0  2  0  0  0  0  0  0
   22.7330   65.5920   -6.3980 C   0  0  0  0  0  2  0  0  0  0  0  0
   23.5570   66.7600   -6.1270 N   0  0  0  0  0  0  0  0  0  0  0  0
   22.9970   68.0430   -6.3660 C   0  0  0  0  0  0  0  0  0  0  0  0
   21.8030   68.1390   -6.8040 O   0  0  0  0  0  0  0  0  0  0  0  0
   24.5280   66.6660   -5.7700 H   0  0  0  0  0  0  0  0  0  0  0  0
   23.7310   69.2770   -6.1300 C   0  0  0  0  0  0  0  0  0  0  0  0
   24.0440   70.0950   -7.1780 C   0  0  0  0  0  3  0  0  0  0  0  0
   24.7180   71.2550   -7.0640 N   0  0  0  0  0  0  0  0  0  0  0  0
   25.1210   71.6490   -5.8340 C   0  0  0  0  0  3  0  0  0  0  0  0
   24.8390   70.8700   -4.7340 C   0  0  0  0  0  0  0  0  0  0  0  0
   25.4260   71.4660   -3.0170 Br  0  0  0  0  0  0  0  0  0  0  0  0
   24.1380   69.6710   -4.8700 C   0  0  0  0  0  3  0  0  0  0  0  0
   19.7170   62.7620   -9.8370 C   0  0  0  0  0  0  0  0  0  0  0  0
   18.6120   63.4440  -10.1910 N   0  0  0  0  0  0  0  0  0  0  0  0
   17.6250   62.5770  -10.4680 C   0  0  0  0  0  0  0  0  0  0  0  0
   18.1480   61.3560  -10.2770 N   0  0  0  0  0  0  0  0  0  0  0  0
   19.3830   61.5000   -9.9050 O   0  0  0  0  0  0  0  0  0  0  0  0
   16.2460   62.9010  -10.8940 C   0  0  0  0  0  0  0  0  0  0  0  0
   15.9450   64.1700  -11.3310 C   0  0  0  0  0  3  0  0  0  0  0  0
   14.6940   64.4760  -11.7230 N   0  0  0  0  0  0  0  0  0  0  0  0
   13.6820   63.5840  -11.7130 C   0  0  0  0  0  3  0  0  0  0  0  0
   13.9950   62.3120  -11.2730 C   0  0  0  0  0  3  0  0  0  0  0  0
   15.2550   61.9590  -10.8660 C   0  0  0  0  0  3  0  0  0  0  0  0
  1  5  1  0  0  0  0
  1  6  1  0  0  0  0
  2  1  1  0  0  0  0
  3  2  2  0  0  0  0
  3  4  1  0  0  0  0
  4  5  2  0  0  0  0
  6  7  1  0  0  0  0
  7  8  1  0  0  0  0
  8 11  1  0  0  0  0
  9 12  1  0  0  0  0
  9  8  1  0  0  0  0
 10  9  2  0  0  0  0
 12 18  1  0  0  0  0
 13 14  1  0  0  0  0
 13 12  2  0  0  0  0
 14 15  2  0  0  0  0
 15 16  1  0  0  0  0
 16 17  1  0  0  0  0
 18 16  2  0  0  0  0
 19  4  1  0  0  0  0
 20 19  2  0  0  0  0
 21 22  2  0  0  0  0
 21 20  1  0  0  0  0
 22 23  1  0  0  0  0
 23 19  1  0  0  0  0
 24 29  1  0  0  0  0
 24 21  1  0  0  0  0
 25 24  2  0  0  0  0
 26 27  2  0  0  0  0
 26 25  1  0  0  0  0
 27 28  1  0  0  0  0
 28 29  2  0  0  0  0
M  END
>  <Pose>
1

>  <Score>
-8.784

$$$$
