/Users/jonathanwahrer/Desktop/Msc/3_Semester/Drug_Design_Praktikum/waehrer_HTS_screening/HTS_experiment/out/docking_results/vina_output/3sx0/1477_docked.pdbqt
 OpenBabel03192222373D

 35 39  0  0  1  0  0  0  0  0999 V2000
   21.5000   63.0820   -9.9670 C   0  0  2  0  0  3  0  0  0  0  0  0
   22.2940   63.0990  -11.1160 N   0  0  0  0  0  0  0  0  0  0  0  0
   21.3900   63.1840  -12.2590 C   0  0  0  0  0  0  0  0  0  0  0  0
   21.6930   63.3600  -13.4660 O   0  0  0  0  0  0  0  0  0  0  0  0
   20.0160   63.0280  -11.8080 C   0  0  0  0  0  0  0  0  0  0  0  0
   18.9710   63.0560  -12.5390 O   0  0  0  0  0  0  0  0  0  0  0  0
   20.0800   62.8440  -10.3820 C   0  0  0  0  0  0  0  0  0  0  0  0
   19.0570   62.5660   -9.6000 C   0  0  0  0  0  0  0  0  0  0  0  0
   19.3160   62.6670   -8.2130 O   0  0  0  0  0  1  0  0  0  0  0  0
   17.7290   62.1730  -10.0300 C   0  0  0  0  0  0  0  0  0  0  0  0
   16.6590   62.8730  -10.4380 N   0  0  0  0  0  0  0  0  0  0  0  0
   15.6000   62.0920  -10.7010 C   0  0  0  0  0  0  0  0  0  0  0  0
   16.5540   64.2170  -10.6180 C   0  0  0  0  0  3  0  0  0  0  0  0
   16.0040   60.8270  -10.4500 N   0  0  0  0  0  0  0  0  0  0  0  0
   14.3970   62.6020  -11.1510 C   0  0  0  0  0  3  0  0  0  0  0  0
   17.2760   60.8350  -10.0460 C   0  0  0  0  0  0  0  0  0  0  0  0
   18.0920   59.6710   -9.6750 C   0  0  0  0  0  1  0  0  0  0  0  0
   14.2800   63.9540  -11.3340 C   0  0  0  0  0  3  0  0  0  0  0  0
   15.3710   64.7590  -11.0640 C   0  0  0  0  0  3  0  0  0  0  0  0
   21.6000   64.0760   -8.9170 C   0  0  0  0  0  0  0  0  0  0  0  0
   22.3350   63.8100   -7.7540 C   0  0  0  0  0  3  0  0  0  0  0  0
   22.4800   64.7660   -6.7740 C   0  0  0  0  0  0  0  0  0  0  0  0
   23.4790   64.4010   -5.2030 Br  0  0  0  0  0  0  0  0  0  0  0  0
   21.9060   66.0160   -6.9040 C   0  0  0  0  0  3  0  0  0  0  0  0
   21.1730   66.3160   -8.0380 C   0  0  0  0  0  3  0  0  0  0  0  0
   21.0550   65.3400   -8.9840 C   0  0  0  0  0  3  0  0  0  0  0  0
   23.6980   62.9550  -11.2440 C   0  0  0  0  0  2  0  0  0  0  0  0
   24.3380   62.8350  -12.5520 C   0  0  0  0  0  2  0  0  0  0  0  0
   24.7060   64.0020  -13.2990 N   0  0  0  0  0  4  0  0  0  0  0  0
   26.1640   64.0980  -13.2370 C   0  0  0  0  0  2  0  0  0  0  0  0
   26.8430   63.3540  -14.3420 C   0  0  0  0  0  2  0  0  0  0  0  0
   25.9400   62.5150  -15.0120 O   0  0  0  0  0  0  0  0  0  0  0  0
   25.0390   63.3590  -15.6220 C   0  0  0  0  0  2  0  0  0  0  0  0
   24.1750   64.0300  -14.6200 C   0  0  0  0  0  2  0  0  0  0  0  0
   24.3960   64.8940  -12.8110 H   0  0  0  0  0  0  0  0  0  0  0  0
  1 20  1  6  0  0  0
  2  1  1  0  0  0  0
  3  5  1  0  0  0  0
  3  2  1  0  0  0  0
  4  3  2  0  0  0  0
  5  7  1  0  0  0  0
  6  5  2  0  0  0  0
  7  1  1  0  0  0  0
  7  8  2  0  0  0  0
  8  9  1  0  0  0  0
 10  8  1  0  0  0  0
 11 10  1  0  0  0  0
 12 14  2  0  0  0  0
 12 11  1  0  0  0  0
 13 11  1  0  0  0  0
 14 16  1  0  0  0  0
 15 12  1  0  0  0  0
 16 10  2  0  0  0  0
 16 17  1  0  0  0  0
 18 15  2  0  0  0  0
 18 19  1  0  0  0  0
 19 13  2  0  0  0  0
 20 21  1  0  0  0  0
 21 22  2  0  0  0  0
 22 23  1  0  0  0  0
 24 22  1  0  0  0  0
 25 24  2  0  0  0  0
 26 20  2  0  0  0  0
 26 25  1  0  0  0  0
 27  2  1  0  0  0  0
 28 27  1  0  0  0  0
 29 30  1  0  0  0  0
 29 35  1  0  0  0  0
 29 28  1  0  0  0  0
 31 30  1  0  0  0  0
 32 31  1  0  0  0  0
 33 32  1  0  0  0  0
 33 34  1  0  0  0  0
 34 29  1  0  0  0  0
M  END
>  <Pose>
1

>  <Score>
-8.319

$$$$
