/Users/jonathanwahrer/Desktop/Msc/3_Semester/Drug_Design_Praktikum/waehrer_HTS_screening/HTS_experiment/out/docking_results/vina_output/3sx0/1486_docked.pdbqt
 OpenBabel03192222373D

 31 34  0  0  1  0  0  0  0  0999 V2000
   20.8150   64.0010   -9.4810 N   0  0  0  0  0  0  0  0  0  0  0  0
   21.6440   63.7180  -10.4600 N   0  0  0  0  0  0  0  0  0  0  0  0
   22.8460   63.3720   -9.9760 C   0  0  0  0  0  0  0  0  0  0  0  0
   22.7630   63.4430   -8.6390 N   0  0  0  0  0  0  0  0  0  0  0  0
   21.4910   63.8370   -8.3380 C   0  0  2  0  0  3  0  0  0  0  0  0
   20.9490   64.0450   -6.9970 C   0  0  0  0  0  2  0  0  0  0  0  0
   21.7150   65.0760   -6.2030 C   0  0  0  0  0  2  0  0  0  0  0  0
   23.0670   64.5610   -5.7630 C   0  0  0  0  0  2  0  0  0  0  0  0
   24.0440   64.4280   -6.8900 C   0  0  0  0  0  2  0  0  0  0  0  0
   23.8250   63.1550   -7.6960 C   0  0  0  0  0  2  0  0  0  0  0  0
   24.0450   62.9850  -10.7310 C   0  0  0  0  0  2  0  0  0  0  0  0
   24.4810   64.0060  -11.6340 N   0  0  0  0  0  0  0  0  0  0  0  0
   24.5610   64.9810  -11.3120 H   0  0  0  0  0  0  0  0  0  0  0  0
   24.8190   63.7470  -12.9930 C   0  0  0  0  0  0  0  0  0  0  0  0
   26.1140   63.5190  -13.3980 C   0  0  0  0  0  3  0  0  0  0  0  0
   26.4270   63.2660  -14.7090 C   0  0  0  0  0  3  0  0  0  0  0  0
   25.4380   63.2370  -15.6420 C   0  0  0  0  0  0  0  0  0  0  0  0
   24.1400   63.4650  -15.2400 C   0  0  0  0  0  3  0  0  0  0  0  0
   23.8140   63.7200  -13.9250 C   0  0  0  0  0  3  0  0  0  0  0  0
   25.7220   62.9860  -16.9630 O   0  0  0  0  0  0  0  0  0  0  0  0
   25.3390   61.8010  -17.6160 C   0  0  0  0  0  1  0  0  0  0  0  0
   19.4480   64.4090   -9.6040 C   0  0  0  0  0  2  0  0  0  0  0  0
   18.5290   63.2430   -9.7030 C   0  0  0  0  0  0  0  0  0  0  0  0
   18.9250   62.1480   -9.2220 O   0  0  0  0  0  0  0  0  0  0  0  0
   17.2220   63.3180  -10.3180 C   0  0  0  0  0  0  0  0  0  0  0  0
   16.5050   62.1900  -10.6440 C   0  0  0  0  0  3  0  0  0  0  0  0
   15.2480   62.2760  -11.2360 C   0  0  0  0  0  3  0  0  0  0  0  0
   14.6930   63.5140  -11.5100 C   0  0  0  0  0  0  0  0  0  0  0  0
   12.9550   63.6250  -12.3290 Br  0  0  0  0  0  0  0  0  0  0  0  0
   15.4020   64.6470  -11.1880 C   0  0  0  0  0  3  0  0  0  0  0  0
   16.6400   64.5320  -10.6040 C   0  0  0  0  0  3  0  0  0  0  0  0
  1  5  1  0  0  0  0
  2  3  2  0  0  0  0
  2  1  1  0  0  0  0
  3  4  1  0  0  0  0
  4  5  1  0  0  0  0
  4 10  1  0  0  0  0
  5  6  1  1  0  0  0
  6  7  1  0  0  0  0
  7  8  1  0  0  0  0
  9  8  1  0  0  0  0
 10  9  1  0  0  0  0
 11  3  1  0  0  0  0
 12 13  1  0  0  0  0
 12 11  1  0  0  0  0
 14 12  1  0  0  0  0
 15 14  1  0  0  0  0
 16 15  2  0  0  0  0
 17 18  2  0  0  0  0
 17 16  1  0  0  0  0
 18 19  1  0  0  0  0
 19 14  2  0  0  0  0
 20 17  1  0  0  0  0
 21 20  1  0  0  0  0
 22  1  1  0  0  0  0
 23 22  1  0  0  0  0
 23 24  2  0  0  0  0
 25 23  1  0  0  0  0
 26 25  2  0  0  0  0
 27 26  1  0  0  0  0
 28 27  2  0  0  0  0
 28 30  1  0  0  0  0
 29 28  1  0  0  0  0
 30 31  2  0  0  0  0
 31 25  1  0  0  0  0
M  END
>  <Pose>
1

>  <Score>
-9.365

$$$$
