MODEL 1
REMARK VINA RESULT:    -5.572      0.000      0.000
REMARK INTER + INTRA:          -7.385
REMARK INTER:                  -6.712
REMARK INTRA:                  -0.673
REMARK UNBOUND:                -0.673
REMARK  4 active torsions:
REMARK  status: ('A' for Active; 'I' for Inactive)
REMARK    1  A    between atoms: C_4  and  N_8 
REMARK    2  A    between atoms: C_10  and  O_18 
REMARK    3  A    between atoms: C_10  and  C_19 
REMARK    4  A    between atoms: C_21  and  N_25 
ROOT
ATOM      1  N   UNK d   1      13.048  64.106 -15.045  0.00  0.00     0.009 N 
ATOM      2  C   UNK d   1      13.609  65.358 -15.487  0.00  0.00     0.316 C 
ATOM      3  C   UNK d   1      12.583  66.234 -16.072  0.00  0.00     0.189 C 
ATOM      4  N   UNK d   1      11.387  65.443 -16.002  0.00  0.00    -0.324 N 
ATOM      5  C   UNK d   1      10.145  65.489 -16.737  0.00  0.00     0.128 C 
ATOM      6  C   UNK d   1       8.926  65.731 -15.907  0.00  0.00     0.020 C 
ATOM      7  C   UNK d   1       9.133  65.651 -14.435  0.00  0.00     0.005 C 
ATOM      8  C   UNK d   1       9.268  64.160 -14.053  0.00  0.00     0.031 C 
ATOM      9  C   UNK d   1      10.756  63.886 -14.171  0.00  0.00     0.030 C 
ATOM     10  C   UNK d   1      11.628  64.424 -14.992  0.00  0.00     0.208 C 
ATOM     11  H   UNK d   1      13.140  63.306 -15.662  0.00  0.00     0.295 HD
ENDROOT
BRANCH   3  12
ATOM     12  O   UNK d   1      12.855  66.424 -17.455  0.00  0.00    -0.365 OA
ATOM     13  H   UNK d   1      12.998  67.422 -17.564  0.00  0.00     0.213 HD
ENDBRANCH   3  12
BRANCH   3  14
ATOM     14  C   UNK d   1      12.453  67.563 -15.526  0.00  0.00     0.001 A 
ATOM     15  C   UNK d   1      12.888  68.711 -16.189  0.00  0.00     0.048 A 
ATOM     16  C   UNK d   1      12.739  69.990 -15.669  0.00  0.00     0.103 A 
ATOM     17  C   UNK d   1      12.125  70.137 -14.425  0.00  0.00     0.036 A 
ATOM     18  C   UNK d   1      11.687  69.040 -13.743  0.00  0.00     0.003 A 
ATOM     19  C   UNK d   1      11.855  67.763 -14.302  0.00  0.00     0.012 A 
BRANCH  16  20
ATOM     20  N   UNK d   1      13.203  71.109 -16.397  0.00  0.00    -0.116 N 
ATOM     21  O   UNK d   1      12.449  71.649 -17.266  0.00  0.00    -0.532 OA
ATOM     22  O   UNK d   1      14.423  71.649 -16.229  0.00  0.00    -0.532 OA
ENDBRANCH  16  20
ENDBRANCH   3  14
BRANCH   1  23
ATOM     23  C   UNK d   1      13.385  63.720 -13.721  0.00  0.00     0.143 A 
ATOM     24  C   UNK d   1      14.018  64.560 -12.838  0.00  0.00     0.061 A 
ATOM     25  C   UNK d   1      14.444  64.141 -11.580  0.00  0.00     0.036 A 
ATOM     26 Cl   UNK d   1      15.218  65.269 -10.477  0.00  0.00    -0.084 Cl
ATOM     27  C   UNK d   1      14.235  62.837 -11.180  0.00  0.00     0.024 A 
ATOM     28  C   UNK d   1      13.611  61.965 -12.032  0.00  0.00     0.004 A 
ATOM     29  C   UNK d   1      13.194  62.403 -13.284  0.00  0.00     0.038 A 
ENDBRANCH   1  23
TORSDOF 4
ENDMDL
