MODEL 1
REMARK VINA RESULT:    -5.746      0.000      0.000
REMARK INTER + INTRA:          -6.793
REMARK INTER:                  -7.089
REMARK INTRA:                   0.297
REMARK UNBOUND:                 0.297
REMARK  4 active torsions:
REMARK  status: ('A' for Active; 'I' for Inactive)
REMARK    1  A    between atoms: C_7  and  N_8 
REMARK    2  A    between atoms: C_14  and  C_16 
REMARK    3  A    between atoms: N_23  and  C_31 
REMARK    4  A    between atoms: C_25  and  C_28 
ROOT
ATOM      1  F   UNK d   1      14.000  61.540 -12.318  0.00  0.00    -0.204 F 
ATOM      2  C   UNK d   1      13.353  62.599 -12.837  0.00  0.00     0.151 A 
ATOM      3  C   UNK d   1      12.356  62.266 -13.749  0.00  0.00     0.062 A 
ATOM      4  C   UNK d   1      11.606  63.249 -14.355  0.00  0.00     0.045 A 
ATOM      5  C   UNK d   1      11.872  64.558 -14.030  0.00  0.00     0.051 A 
ATOM      6  C   UNK d   1      12.872  64.871 -13.114  0.00  0.00     0.071 A 
ATOM      7  C   UNK d   1      13.626  63.903 -12.507  0.00  0.00     0.175 A 
ATOM      8  N   UNK d   1      11.124  65.503 -14.634  0.00  0.00    -0.350 N 
ATOM      9  C   UNK d   1      10.156  65.206 -15.519  0.00  0.00     0.114 A 
ATOM     10  C   UNK d   1       9.865  63.906 -15.866  0.00  0.00     0.107 A 
ATOM     11  C   UNK d   1      10.604  62.909 -15.273  0.00  0.00     0.202 A 
ATOM     12  O   UNK d   1      10.390  61.703 -15.544  0.00  0.00    -0.286 OA
ENDROOT
BRANCH   7  13
ATOM     13  N   UNK d   1      14.626  64.257 -11.601  0.00  0.00    -0.035 N 
ATOM     14  C   UNK d   1      15.871  64.687 -12.184  0.00  0.00     0.261 C 
ATOM     15  C   UNK d   1      16.825  65.186 -11.074  0.00  0.00     0.153 C 
ATOM     16  N   UNK d   1      17.084  64.060 -10.265  0.00  0.00    -0.356 N 
ATOM     17  C   UNK d   1      15.833  63.663  -9.509  0.00  0.00     0.153 C 
ATOM     18  C   UNK d   1      18.170  63.272 -10.084  0.00  0.00     0.187 C 
ATOM     19  C   UNK d   1      14.895  63.269 -10.608  0.00  0.00     0.261 C 
ATOM     20  O   UNK d   1      18.043  62.344  -9.167  0.00  0.00    -0.171 OA
ATOM     21  H   UNK d   1      14.259  65.107 -11.073  0.00  0.00     0.287 HD
BRANCH  18  22
ATOM     22  C   UNK d   1      19.457  63.269 -10.722  0.00  0.00     0.019 A 
ATOM     23  C   UNK d   1      20.612  63.650 -10.119  0.00  0.00     0.039 A 
ATOM     24  C   UNK d   1      21.843  63.578 -10.759  0.00  0.00     0.035 A 
ATOM     25  C   UNK d   1      21.902  63.109 -12.046  0.00  0.00     0.024 A 
ATOM     26 Cl   UNK d   1      23.320  64.082  -9.933  0.00  0.00    -0.084 Cl
ATOM     27  C   UNK d   1      20.769  62.715 -12.700  0.00  0.00     0.003 A 
ATOM     28  C   UNK d   1      19.577  62.796 -12.046  0.00  0.00     0.016 A 
ENDBRANCH  18  22
ENDBRANCH   7  13
BRANCH   8  29
ATOM     29  C   UNK d   1      11.423  66.895 -14.275  0.00  0.00     0.090 A 
ATOM     30  C   UNK d   1      10.849  68.011 -15.033  0.00  0.00     0.028 A 
ATOM     31  C   UNK d   1      12.230  67.663 -15.373  0.00  0.00     0.028 A 
ENDBRANCH   8  29
BRANCH  10  32
ATOM     32  C   UNK d   1       8.800  63.597 -16.839  0.00  0.00     0.214 C 
ATOM     33  O   UNK d   1       8.866  62.632 -17.616  0.00  0.00    -0.644 OA
ATOM     34  O   UNK d   1       7.697  64.420 -16.872  0.00  0.00    -0.644 OA
ENDBRANCH  10  32
TORSDOF 4
ENDMDL
