/Users/jonathanwahrer/Desktop/Msc/3_Semester/Drug_Design_Praktikum/waehrer_HTS_screening/HTS_experiment/out/docking_results/vina_output/3sx0/1491_docked.pdbqt
 OpenBabel03192222373D

 34 38  0  0  0  0  0  0  0  0999 V2000
   14.0000   61.5400  -12.3180 F   0  0  0  0  0  0  0  0  0  0  0  0
   13.3530   62.5990  -12.8370 C   0  0  0  0  0  0  0  0  0  0  0  0
   12.3560   62.2660  -13.7490 C   0  0  0  0  0  3  0  0  0  0  0  0
   11.6060   63.2490  -14.3550 C   0  0  0  0  0  0  0  0  0  0  0  0
   11.8720   64.5580  -14.0300 C   0  0  0  0  0  0  0  0  0  0  0  0
   12.8720   64.8710  -13.1140 C   0  0  0  0  0  3  0  0  0  0  0  0
   13.6260   63.9030  -12.5070 C   0  0  0  0  0  0  0  0  0  0  0  0
   11.1240   65.5030  -14.6340 N   0  0  0  0  0  0  0  0  0  0  0  0
   10.1560   65.2060  -15.5190 C   0  0  0  0  0  3  0  0  0  0  0  0
    9.8650   63.9060  -15.8660 C   0  0  0  0  0  0  0  0  0  0  0  0
   10.6040   62.9090  -15.2730 C   0  0  0  0  0  0  0  0  0  0  0  0
   10.3900   61.7030  -15.5440 O   0  0  0  0  0  0  0  0  0  0  0  0
   14.6260   64.2570  -11.6010 N   0  0  0  0  0  4  0  0  0  0  0  0
   15.8710   64.6870  -12.1840 C   0  0  0  0  0  2  0  0  0  0  0  0
   16.8250   65.1860  -11.0740 C   0  0  0  0  0  2  0  0  0  0  0  0
   17.0840   64.0600  -10.2650 N   0  0  0  0  0  0  0  0  0  0  0  0
   15.8330   63.6630   -9.5090 C   0  0  0  0  0  2  0  0  0  0  0  0
   18.1700   63.2720  -10.0840 C   0  0  0  0  0  0  0  0  0  0  0  0
   14.8950   63.2690  -10.6080 C   0  0  0  0  0  2  0  0  0  0  0  0
   18.0430   62.3440   -9.1670 O   0  0  0  0  0  0  0  0  0  0  0  0
   14.2590   65.1070  -11.0730 H   0  0  0  0  0  0  0  0  0  0  0  0
   19.4570   63.2690  -10.7220 C   0  0  0  0  0  0  0  0  0  0  0  0
   20.6120   63.6500  -10.1190 C   0  0  0  0  0  3  0  0  0  0  0  0
   21.8430   63.5780  -10.7590 C   0  0  0  0  0  0  0  0  0  0  0  0
   21.9020   63.1090  -12.0460 C   0  0  0  0  0  3  0  0  0  0  0  0
   23.3200   64.0820   -9.9330 Cl  0  0  0  0  0  0  0  0  0  0  0  0
   20.7690   62.7150  -12.7000 C   0  0  0  0  0  3  0  0  0  0  0  0
   19.5770   62.7960  -12.0460 C   0  0  0  0  0  3  0  0  0  0  0  0
   11.4230   66.8950  -14.2750 C   0  0  0  0  0  3  0  0  0  0  0  0
   10.8490   68.0110  -15.0330 C   0  0  0  0  0  2  0  0  0  0  0  0
   12.2300   67.6630  -15.3730 C   0  0  0  0  0  2  0  0  0  0  0  0
    8.8000   63.5970  -16.8390 C   0  0  0  0  0  0  0  0  0  0  0  0
    8.8660   62.6320  -17.6160 O   0  0  0  0  0  0  0  0  0  0  0  0
    7.6970   64.4200  -16.8720 O   0  0  0  0  0  1  0  0  0  0  0  0
  2  7  1  0  0  0  0
  2  1  1  0  0  0  0
  3  2  2  0  0  0  0
  4  5  2  0  0  0  0
  4  3  1  0  0  0  0
  5  6  1  0  0  0  0
  6  7  2  0  0  0  0
  7 13  1  0  0  0  0
  8 29  1  0  0  0  0
  8  5  1  0  0  0  0
  9  8  1  0  0  0  0
 10  9  2  0  0  0  0
 10 11  1  0  0  0  0
 11  4  1  0  0  0  0
 12 11  2  0  0  0  0
 13 21  1  0  0  0  0
 13 19  1  0  0  0  0
 14 13  1  0  0  0  0
 14 15  1  0  0  0  0
 15 16  1  0  0  0  0
 16 18  1  0  0  0  0
 16 17  1  0  0  0  0
 18 20  2  0  0  0  0
 19 17  1  0  0  0  0
 22 23  1  0  0  0  0
 22 18  1  0  0  0  0
 24 23  2  0  0  0  0
 24 26  1  0  0  0  0
 25 24  1  0  0  0  0
 27 25  2  0  0  0  0
 27 28  1  0  0  0  0
 28 22  2  0  0  0  0
 30 29  1  0  0  0  0
 31 30  1  0  0  0  0
 31 29  1  0  0  0  0
 32 10  1  0  0  0  0
 33 32  2  0  0  0  0
 34 32  1  0  0  0  0
M  END
>  <Pose>
1

>  <Score>
-5.746

$$$$
