/Users/jonathanwahrer/Desktop/Msc/3_Semester/Drug_Design_Praktikum/waehrer_HTS_screening/HTS_experiment/out/docking_results/vina_output/3sx0/1506_docked.pdbqt
 OpenBabel03192222383D

 32 35  0  0  1  0  0  0  0  0999 V2000
   19.9970   62.4600   -9.3960 N   0  0  0  0  0  0  0  0  0  0  0  0
   20.8220   63.3150  -10.2110 C   0  0  0  0  0  0  0  0  0  0  0  0
   20.9890   63.0310  -11.4080 O   0  0  0  0  0  0  0  0  0  0  0  0
   19.8810   62.7690   -8.4340 H   0  0  0  0  0  0  0  0  0  0  0  0
   21.4740   64.5240   -9.6540 C   0  0  2  0  0  3  0  0  0  0  0  0
   22.9680   64.2840   -9.6380 C   0  0  0  0  0  2  0  0  0  0  0  0
   23.2460   63.2670   -8.5540 C   0  0  0  0  0  2  0  0  0  0  0  0
   23.0010   63.9610   -7.2930 N   0  0  0  0  0  0  0  0  0  0  0  0
   21.9610   64.9280   -7.2030 C   0  0  0  0  0  2  0  0  0  0  0  0
   20.9730   64.9090   -8.3120 C   0  0  0  0  0  2  0  0  0  0  0  0
   23.8290   63.6300   -6.1950 C   0  0  0  0  0  0  0  0  0  0  0  0
   23.5250   63.9560   -4.9250 N   0  0  0  0  0  0  0  0  0  0  0  0
   24.2870   63.6570   -3.8900 N   0  0  0  0  0  0  0  0  0  0  0  0
   24.1510   63.8920   -2.5890 N   0  0  0  0  0  0  0  0  0  0  0  0
   25.4420   62.9940   -4.0190 C   0  0  0  0  0  0  0  0  0  0  0  0
   25.1660   63.4060   -1.9260 N   0  0  0  0  0  0  0  0  0  0  0  0
   25.9820   62.8420   -2.7910 N   0  0  0  0  0  0  0  0  0  0  0  0
   25.8120   62.6310   -5.3020 C   0  0  0  0  0  3  0  0  0  0  0  0
   25.0160   62.9430   -6.3850 C   0  0  0  0  0  3  0  0  0  0  0  0
   19.4200   61.3350  -10.0200 C   0  0  0  0  0  2  0  0  0  0  0  0
   18.0360   60.9140   -9.7480 C   0  0  0  0  0  2  0  0  0  0  0  0
   16.9870   61.5210  -10.4750 N   0  0  0  0  0  0  0  0  0  0  0  0
   16.5070   62.8220  -10.4810 C   0  0  0  0  0  0  0  0  0  0  0  0
   17.0130   63.7170   -9.7720 O   0  0  0  0  0  0  0  0  0  0  0  0
   16.4170   60.8680  -11.1710 H   0  0  0  0  0  0  0  0  0  0  0  0
   15.3640   63.2450  -11.3250 C   0  0  0  0  0  0  0  0  0  0  0  0
   14.3640   62.3450  -11.6210 C   0  0  0  0  0  3  0  0  0  0  0  0
   13.2810   62.6940  -12.3920 C   0  0  0  0  0  3  0  0  0  0  0  0
   13.1890   63.9840  -12.8880 C   0  0  0  0  0  0  0  0  0  0  0  0
   11.8100   64.4410  -13.8760 Cl  0  0  0  0  0  0  0  0  0  0  0  0
   14.1650   64.9040  -12.6140 C   0  0  0  0  0  3  0  0  0  0  0  0
   15.2520   64.5150  -11.8260 C   0  0  0  0  0  3  0  0  0  0  0  0
  1  4  1  0  0  0  0
  2  1  1  0  0  0  0
  3  2  2  0  0  0  0
  5  2  1  1  0  0  0
  5  6  1  0  0  0  0
  5 10  1  0  0  0  0
  6  7  1  0  0  0  0
  7  8  1  0  0  0  0
  8  9  1  0  0  0  0
  8 11  1  0  0  0  0
 10  9  1  0  0  0  0
 11 12  2  0  0  0  0
 12 13  1  0  0  0  0
 13 14  1  0  0  0  0
 14 16  2  0  0  0  0
 15 13  1  0  0  0  0
 15 17  2  0  0  0  0
 17 16  1  0  0  0  0
 18 15  1  0  0  0  0
 19 11  1  0  0  0  0
 19 18  2  0  0  0  0
 20 21  1  0  0  0  0
 20  1  1  0  0  0  0
 22 21  1  0  0  0  0
 23 22  1  0  0  0  0
 23 24  2  0  0  0  0
 25 22  1  0  0  0  0
 26 23  1  0  0  0  0
 27 26  1  0  0  0  0
 28 27  2  0  0  0  0
 29 31  2  0  0  0  0
 29 28  1  0  0  0  0
 30 29  1  0  0  0  0
 31 32  1  0  0  0  0
 32 26  2  0  0  0  0
M  END
>  <Pose>
1

>  <Score>
-10.028

$$$$
