MODEL 1
REMARK VINA RESULT:   -10.028      0.000      0.000
REMARK INTER + INTRA:         -14.581
REMARK INTER:                 -13.545
REMARK INTRA:                  -1.036
REMARK UNBOUND:                -1.036
REMARK  6 active torsions:
REMARK  status: ('A' for Active; 'I' for Inactive)
REMARK    1  A    between atoms: C_5  and  C_8 
REMARK       I    between atoms: C_8  and  N_10 
REMARK    2  A    between atoms: N_10  and  C_11 
REMARK    3  A    between atoms: C_11  and  C_12 
REMARK    4  A    between atoms: C_12  and  N_13 
REMARK       I    between atoms: N_13  and  C_14 
REMARK    5  A    between atoms: C_14  and  C_16 
REMARK    6  A    between atoms: N_19  and  C_22 
ROOT
ATOM      1  N   UNK d   1      19.997  62.460  -9.396  0.00  0.00    -0.359 N 
ATOM      2  C   UNK d   1      20.822  63.315 -10.211  0.00  0.00     0.222 C 
ATOM      3  O   UNK d   1      20.989  63.031 -11.408  0.00  0.00    -0.273 OA
ATOM      4  H   UNK d   1      19.881  62.769  -8.434  0.00  0.00     0.162 HD
ENDROOT
BRANCH   2   5
ATOM      5  C   UNK d   1      21.474  64.524  -9.654  0.00  0.00     0.081 C 
ATOM      6  C   UNK d   1      22.968  64.284  -9.638  0.00  0.00     0.034 C 
ATOM      7  C   UNK d   1      23.246  63.267  -8.554  0.00  0.00     0.125 C 
ATOM      8  N   UNK d   1      23.001  63.961  -7.293  0.00  0.00    -0.364 N 
ATOM      9  C   UNK d   1      21.961  64.928  -7.203  0.00  0.00     0.125 C 
ATOM     10  C   UNK d   1      20.973  64.909  -8.312  0.00  0.00     0.034 C 
BRANCH   8  11
ATOM     11  C   UNK d   1      23.829  63.630  -6.195  0.00  0.00     0.148 A 
ATOM     12  N   UNK d   1      23.525  63.956  -4.925  0.00  0.00    -0.129 NA
ATOM     13  N   UNK d   1      24.287  63.657  -3.890  0.00  0.00    -0.108 N 
ATOM     14  N   UNK d   1      24.151  63.892  -2.589  0.00  0.00    -0.021 NA
ATOM     15  C   UNK d   1      25.442  62.994  -4.019  0.00  0.00     0.196 A 
ATOM     16  N   UNK d   1      25.166  63.406  -1.926  0.00  0.00    -0.021 NA
ATOM     17  N   UNK d   1      25.982  62.842  -2.791  0.00  0.00    -0.107 NA
ATOM     18  C   UNK d   1      25.812  62.631  -5.302  0.00  0.00     0.060 A 
ATOM     19  C   UNK d   1      25.016  62.943  -6.385  0.00  0.00     0.056 A 
ENDBRANCH   8  11
ENDBRANCH   2   5
BRANCH   1  20
ATOM     20  C   UNK d   1      19.420  61.335 -10.020  0.00  0.00     0.142 C 
BRANCH  20  21
ATOM     21  C   UNK d   1      18.036  60.914  -9.748  0.00  0.00     0.142 C 
BRANCH  21  22
ATOM     22  N   UNK d   1      16.987  61.521 -10.475  0.00  0.00    -0.355 N 
ATOM     23  C   UNK d   1      16.507  62.822 -10.481  0.00  0.00     0.251 C 
ATOM     24  O   UNK d   1      17.013  63.717  -9.772  0.00  0.00    -0.268 OA
ATOM     25  H   UNK d   1      16.417  60.868 -11.171  0.00  0.00     0.162 HD
BRANCH  23  26
ATOM     26  C   UNK d   1      15.364  63.245 -11.325  0.00  0.00     0.032 A 
ATOM     27  C   UNK d   1      14.364  62.345 -11.621  0.00  0.00     0.018 A 
ATOM     28  C   UNK d   1      13.281  62.694 -12.392  0.00  0.00     0.025 A 
ATOM     29  C   UNK d   1      13.189  63.984 -12.888  0.00  0.00     0.034 A 
ATOM     30 Cl   UNK d   1      11.810  64.441 -13.876  0.00  0.00    -0.084 Cl
ATOM     31  C   UNK d   1      14.165  64.904 -12.614  0.00  0.00     0.025 A 
ATOM     32  C   UNK d   1      15.252  64.515 -11.826  0.00  0.00     0.018 A 
ENDBRANCH  23  26
ENDBRANCH  21  22
ENDBRANCH  20  21
ENDBRANCH   1  20
TORSDOF 6
ENDMDL
