/Users/jonathanwahrer/Desktop/Msc/3_Semester/Drug_Design_Praktikum/waehrer_HTS_screening/HTS_experiment/out/docking_results/vina_output/3sx0/1507_docked.pdbqt
 OpenBabel03192222383D

 32 35  0  0  1  0  0  0  0  0999 V2000
   19.8610   63.1510   -9.2830 C   0  0  0  0  0  0  0  0  0  0  0  0
   20.7520   63.5040  -10.1860 C   0  0  0  0  0  0  0  0  0  0  0  0
   22.1440   64.0280  -10.0020 C   0  0  2  0  0  3  0  0  0  0  0  0
   22.8560   63.3360  -11.0140 N   0  0  0  0  0  0  0  0  0  0  0  0
   21.9730   63.4220  -12.1740 C   0  0  0  0  0  0  0  0  0  0  0  0
   22.2980   63.4080  -13.3900 O   0  0  0  0  0  0  0  0  0  0  0  0
   20.6190   63.5290  -11.6420 C   0  0  0  0  0  0  0  0  0  0  0  0
   19.5020   63.6260  -12.2520 O   0  0  0  0  0  0  0  0  0  0  0  0
   20.1170   63.2330   -7.9250 O   0  0  0  0  0  1  0  0  0  0  0  0
   18.5460   62.6560   -9.6720 C   0  0  0  0  0  0  0  0  0  0  0  0
   18.3090   61.3120   -9.8930 C   0  0  0  0  0  3  0  0  0  0  0  0
   17.0560   60.9290  -10.2840 C   0  0  0  0  0  3  0  0  0  0  0  0
   16.0090   61.8010  -10.4720 C   0  0  0  0  0  0  0  0  0  0  0  0
   14.2730   61.1840  -11.0220 Br  0  0  0  0  0  0  0  0  0  0  0  0
   16.2380   63.1440  -10.2540 C   0  0  0  0  0  3  0  0  0  0  0  0
   17.5150   63.5490   -9.8540 C   0  0  0  0  0  3  0  0  0  0  0  0
   22.5790   64.0880   -8.6460 C   0  0  0  0  0  0  0  0  0  0  0  0
   23.3390   63.0620   -8.1400 C   0  0  0  0  0  3  0  0  0  0  0  0
   23.8100   63.0560   -6.8480 C   0  0  0  0  0  3  0  0  0  0  0  0
   23.5270   64.1100   -5.9920 C   0  0  0  0  0  0  0  0  0  0  0  0
   22.7620   65.1320   -6.5200 C   0  0  0  0  0  3  0  0  0  0  0  0
   24.1190   64.1160   -4.3500 Cl  0  0  0  0  0  0  0  0  0  0  0  0
   22.2950   65.1300   -7.8150 C   0  0  0  0  0  3  0  0  0  0  0  0
   24.1590   62.7040  -11.0910 C   0  0  0  0  0  2  0  0  0  0  0  0
   24.7000   62.4130  -12.4360 C   0  0  0  0  0  2  0  0  0  0  0  0
   25.3750   63.5520  -13.0690 N   0  0  0  0  0  4  0  0  0  0  0  0
   24.9300   63.7060  -14.4120 C   0  0  0  0  0  2  0  0  0  0  0  0
   25.9440   63.4910  -15.4810 C   0  0  0  0  0  2  0  0  0  0  0  0
   27.2530   63.7520  -15.1240 O   0  0  0  0  0  0  0  0  0  0  0  0
   27.5290   62.8500  -14.0700 C   0  0  0  0  0  2  0  0  0  0  0  0
   26.7840   63.3620  -12.8880 C   0  0  0  0  0  2  0  0  0  0  0  0
   25.0800   64.3920  -12.4830 H   0  0  0  0  0  0  0  0  0  0  0  0
  1  9  1  0  0  0  0
  2  3  1  0  0  0  0
  2  1  2  0  0  0  0
  3 17  1  1  0  0  0
  4  3  1  0  0  0  0
  5  7  1  0  0  0  0
  5  4  1  0  0  0  0
  6  5  2  0  0  0  0
  7  2  1  0  0  0  0
  8  7  2  0  0  0  0
 10  1  1  0  0  0  0
 11 10  2  0  0  0  0
 12 11  1  0  0  0  0
 13 12  2  0  0  0  0
 13 15  1  0  0  0  0
 14 13  1  0  0  0  0
 15 16  2  0  0  0  0
 16 10  1  0  0  0  0
 17 18  2  0  0  0  0
 17 23  1  0  0  0  0
 18 19  1  0  0  0  0
 19 20  2  0  0  0  0
 20 22  1  0  0  0  0
 21 20  1  0  0  0  0
 23 21  2  0  0  0  0
 24  4  1  0  0  0  0
 25 24  1  0  0  0  0
 26 31  1  0  0  0  0
 26 32  1  0  0  0  0
 26 25  1  0  0  0  0
 27 26  1  0  0  0  0
 28 29  1  0  0  0  0
 28 27  1  0  0  0  0
 29 30  1  0  0  0  0
 30 31  1  0  0  0  0
M  END
>  <Pose>
1

>  <Score>
-8.755

$$$$
