MODEL 1
REMARK VINA RESULT:    -8.632      0.000      0.000
REMARK INTER + INTRA:          -8.756
REMARK INTER:                  -9.894
REMARK INTRA:                   1.137
REMARK UNBOUND:                 1.137
REMARK  3 active torsions:
REMARK  status: ('A' for Active; 'I' for Inactive)
REMARK    1  A    between atoms: N_12  and  C_15 
REMARK    2  A    between atoms: C_15  and  C_16 
REMARK    3  A    between atoms: C_16  and  O_21 
ROOT
ATOM      1 Cl   UNK d   1      18.956  63.392 -11.565  0.00  0.00    -0.082 Cl
ATOM      2  C   UNK d   1      20.688  63.433 -11.307  0.00  0.00     0.061 A 
ATOM      3  C   UNK d   1      21.180  63.818 -10.083  0.00  0.00     0.065 A 
ATOM      4  N   UNK d   1      20.624  64.209  -8.924  0.00  0.00    -0.357 N 
ATOM      5  C   UNK d   1      21.559  64.486  -7.996  0.00  0.00     0.020 A 
ATOM      6  C   UNK d   1      22.770  64.255  -8.613  0.00  0.00    -0.006 A 
ATOM      7  C   UNK d   1      22.553  63.841  -9.909  0.00  0.00     0.002 A 
ATOM      8  C   UNK d   1      23.374  63.479 -10.958  0.00  0.00     0.014 A 
ATOM      9  C   UNK d   1      22.908  63.091 -12.190  0.00  0.00     0.003 A 
ATOM     10  C   UNK d   1      21.528  63.070 -12.360  0.00  0.00     0.026 A 
ATOM     11  C   UNK d   1      23.974  64.493  -7.778  0.00  0.00     0.158 C 
ATOM     12  N   UNK d   1      23.731  63.750  -6.562  0.00  0.00    -0.405 N 
ATOM     13  C   UNK d   1      22.676  64.244  -5.765  0.00  0.00     0.123 C 
ATOM     14  C   UNK d   1      21.622  64.944  -6.592  0.00  0.00     0.077 C 
ATOM     15  H   UNK d   1      19.589  64.301  -8.719  0.00  0.00     0.166 HD
ENDROOT
BRANCH  12  16
ATOM     16  C   UNK d   1      24.879  63.250  -5.935  0.00  0.00     0.156 C 
BRANCH  16  17
ATOM     17  C   UNK d   1      24.766  63.210  -4.441  0.00  0.00     0.101 A 
ATOM     18  C   UNK d   1      23.841  62.154  -3.943  0.00  0.00     0.308 A 
ATOM     19  N   UNK d   1      24.515  61.292  -3.034  0.00  0.00     0.086 N 
ATOM     20  C   UNK d   1      25.883  61.684  -2.941  0.00  0.00     0.272 A 
ATOM     21  H   UNK d   1      24.053  61.218  -2.096  0.00  0.00     0.315 HD
ATOM     22  C   UNK d   1      26.105  62.830  -3.870  0.00  0.00     0.071 A 
BRANCH  17  23
ATOM     23  O   UNK d   1      24.452  64.473  -3.925  0.00  0.00    -0.386 OA
ATOM     24  H   UNK d   1      25.057  65.113  -4.386  0.00  0.00     0.210 HD
ENDBRANCH  17  23
ENDBRANCH  16  17
ENDBRANCH  12  16
TORSDOF 3
ENDMDL
