MODEL 1
REMARK VINA RESULT:    -8.358      0.000      0.000
REMARK INTER + INTRA:         -10.037
REMARK INTER:                  -9.824
REMARK INTRA:                  -0.213
REMARK UNBOUND:                -0.213
REMARK  3 active torsions:
REMARK  status: ('A' for Active; 'I' for Inactive)
REMARK    1  A    between atoms: C_4  and  N_8 
REMARK    2  A    between atoms: C_11  and  C_13 
REMARK       I    between atoms: C_13  and  N_15 
REMARK       I    between atoms: N_18  and  C_21 
REMARK    3  A    between atoms: C_21  and  C_23 
ROOT
ATOM      1  C   UNK d   1      22.343  63.408  -9.128  0.00  0.00     0.275 C 
ATOM      2  O   UNK d   1      23.427  63.032  -9.696  0.00  0.00    -0.266 OA
ATOM      3  N   UNK d   1      22.359  63.896  -7.821  0.00  0.00    -0.344 N 
ATOM      4  C   UNK d   1      23.603  63.971  -7.104  0.00  0.00     0.146 C 
ATOM      5  C   UNK d   1      23.931  65.420  -6.871  0.00  0.00     0.145 C 
ATOM      6  N   UNK d   1      22.755  66.110  -6.423  0.00  0.00    -0.349 N 
ATOM      7  C   UNK d   1      21.657  65.248  -5.943  0.00  0.00     0.145 C 
ATOM      8  C   UNK d   1      21.200  64.351  -7.085  0.00  0.00     0.146 C 
ATOM      9  C   UNK d   1      22.529  67.486  -6.394  0.00  0.00     0.224 C 
ATOM     10  O   UNK d   1      21.382  67.842  -5.901  0.00  0.00    -0.273 OA
ENDROOT
BRANCH   1  11
ATOM     11  C   UNK d   1      21.123  63.281  -9.958  0.00  0.00     0.166 A 
ATOM     12  N   UNK d   1      20.955  63.670 -11.230  0.00  0.00    -0.125 NA
ATOM     13  N   UNK d   1      19.730  63.385 -11.613  0.00  0.00    -0.060 NA
ATOM     14  N   UNK d   1      19.052  62.804 -10.617  0.00  0.00    -0.224 N 
ATOM     15  C   UNK d   1      19.915  62.739  -9.589  0.00  0.00     0.159 A 
BRANCH  14  16
ATOM     16  C   UNK d   1      17.707  62.360 -10.670  0.00  0.00     0.060 A 
ATOM     17  C   UNK d   1      16.692  63.241 -10.956  0.00  0.00     0.050 A 
ATOM     18  C   UNK d   1      15.368  62.783 -11.004  0.00  0.00     0.013 A 
ATOM     19 Br   UNK d   1      13.947  63.991 -11.398  0.00  0.00    -0.051 Br
ATOM     20  C   UNK d   1      15.071  61.467 -10.770  0.00  0.00     0.019 A 
ATOM     21  C   UNK d   1      16.080  60.578 -10.484  0.00  0.00     0.004 A 
ATOM     22  C   UNK d   1      17.399  61.045 -10.439  0.00  0.00     0.032 A 
ENDBRANCH  14  16
ENDBRANCH   1  11
BRANCH   9  23
ATOM     23  C   UNK d   1      23.373  68.592  -6.828  0.00  0.00     0.078 A 
ATOM     24  C   UNK d   1      22.979  70.000  -6.783  0.00  0.00     0.015 A 
ATOM     25  C   UNK d   1      24.121  69.487  -5.911  0.00  0.00     0.015 A 
ENDBRANCH   9  23
TORSDOF 3
ENDMDL
