/Users/jonathanwahrer/Desktop/Msc/3_Semester/Drug_Design_Praktikum/waehrer_HTS_screening/HTS_experiment/out/docking_results/vina_output/3sx0/1523_docked.pdbqt
 OpenBabel03192222393D

 25 28  0  0  0  0  0  0  0  0999 V2000
   22.3430   63.4080   -9.1280 C   0  0  0  0  0  0  0  0  0  0  0  0
   23.4270   63.0320   -9.6960 O   0  0  0  0  0  0  0  0  0  0  0  0
   22.3590   63.8960   -7.8210 N   0  0  0  0  0  0  0  0  0  0  0  0
   23.6030   63.9710   -7.1040 C   0  0  0  0  0  2  0  0  0  0  0  0
   23.9310   65.4200   -6.8710 C   0  0  0  0  0  2  0  0  0  0  0  0
   22.7550   66.1100   -6.4230 N   0  0  0  0  0  0  0  0  0  0  0  0
   21.6570   65.2480   -5.9430 C   0  0  0  0  0  2  0  0  0  0  0  0
   21.2000   64.3510   -7.0850 C   0  0  0  0  0  2  0  0  0  0  0  0
   22.5290   67.4860   -6.3940 C   0  0  0  0  0  0  0  0  0  0  0  0
   21.3820   67.8420   -5.9010 O   0  0  0  0  0  0  0  0  0  0  0  0
   21.1230   63.2810   -9.9580 C   0  0  0  0  0  0  0  0  0  0  0  0
   20.9550   63.6700  -11.2300 N   0  0  0  0  0  0  0  0  0  0  0  0
   19.7300   63.3850  -11.6130 N   0  0  0  0  0  0  0  0  0  0  0  0
   19.0520   62.8040  -10.6170 N   0  0  0  0  0  0  0  0  0  0  0  0
   19.9150   62.7390   -9.5890 C   0  0  0  0  0  3  0  0  0  0  0  0
   17.7070   62.3600  -10.6700 C   0  0  0  0  0  0  0  0  0  0  0  0
   16.6920   63.2410  -10.9560 C   0  0  0  0  0  3  0  0  0  0  0  0
   15.3680   62.7830  -11.0040 C   0  0  0  0  0  0  0  0  0  0  0  0
   13.9470   63.9910  -11.3980 Br  0  0  0  0  0  0  0  0  0  0  0  0
   15.0710   61.4670  -10.7700 C   0  0  0  0  0  3  0  0  0  0  0  0
   16.0800   60.5780  -10.4840 C   0  0  0  0  0  3  0  0  0  0  0  0
   17.3990   61.0450  -10.4390 C   0  0  0  0  0  3  0  0  0  0  0  0
   23.3730   68.5920   -6.8280 C   0  0  0  0  0  3  0  0  0  0  0  0
   22.9790   70.0000   -6.7830 C   0  0  0  0  0  2  0  0  0  0  0  0
   24.1210   69.4870   -5.9110 C   0  0  0  0  0  2  0  0  0  0  0  0
  1  3  1  0  0  0  0
  2  1  2  0  0  0  0
  3  4  1  0  0  0  0
  3  8  1  0  0  0  0
  4  5  1  0  0  0  0
  5  6  1  0  0  0  0
  6  9  1  0  0  0  0
  6  7  1  0  0  0  0
  8  7  1  0  0  0  0
  9 10  2  0  0  0  0
 11 15  2  0  0  0  0
 11  1  1  0  0  0  0
 12 11  1  0  0  0  0
 13 12  2  0  0  0  0
 13 14  1  0  0  0  0
 14 15  1  0  0  0  0
 16 14  1  0  0  0  0
 16 22  1  0  0  0  0
 17 16  2  0  0  0  0
 18 17  1  0  0  0  0
 18 20  2  0  0  0  0
 19 18  1  0  0  0  0
 20 21  1  0  0  0  0
 21 22  2  0  0  0  0
 23 24  1  0  0  0  0
 23  9  1  0  0  0  0
 23 25  1  0  0  0  0
 24 25  1  0  0  0  0
M  END
>  <Pose>
1

>  <Score>
-8.358

$$$$
