MODEL 1
REMARK VINA RESULT:    -8.129      0.000      0.000
REMARK INTER + INTRA:         -10.059
REMARK INTER:                  -9.555
REMARK INTRA:                  -0.504
REMARK UNBOUND:                -0.504
REMARK  3 active torsions:
REMARK  status: ('A' for Active; 'I' for Inactive)
REMARK    1  A    between atoms: C_4  and  N_8 
REMARK    2  A    between atoms: C_11  and  N_15 
REMARK    3  A    between atoms: N_18  and  C_21 
ROOT
ATOM      1  N   UNK d   1      19.376  63.099 -11.061  0.00  0.00    -0.251 N 
ATOM      2  C   UNK d   1      19.887  64.184 -10.297  0.00  0.00     0.254 C 
ATOM      3  O   UNK d   1      19.157  65.024  -9.717  0.00  0.00    -0.270 OA
ATOM      4  C   UNK d   1      21.341  64.090 -10.348  0.00  0.00     0.181 C 
ATOM      5  C   UNK d   1      21.595  63.440 -11.692  0.00  0.00     0.138 C 
ATOM      6  C   UNK d   1      20.378  62.661 -11.988  0.00  0.00     0.233 C 
ATOM      7  O   UNK d   1      20.227  61.780 -12.875  0.00  0.00    -0.273 OA
ENDROOT
BRANCH   4   8
ATOM      8  N   UNK d   1      21.968  63.417  -9.283  0.00  0.00    -0.397 N 
ATOM      9  C   UNK d   1      21.167  62.977  -8.213  0.00  0.00     0.138 C 
ATOM     10  C   UNK d   1      21.240  64.017  -7.086  0.00  0.00     0.161 C 
ATOM     11  N   UNK d   1      22.387  64.886  -7.294  0.00  0.00    -0.211 N 
ATOM     12  C   UNK d   1      23.631  64.396  -7.854  0.00  0.00     0.161 C 
ATOM     13  C   UNK d   1      23.340  63.539  -9.064  0.00  0.00     0.138 C 
BRANCH  11  14
ATOM     14  C   UNK d   1      22.324  66.281  -6.967  0.00  0.00     0.724 A 
ATOM     15  N   UNK d   1      23.364  66.904  -6.375  0.00  0.00    -0.075 NA
ATOM     16  C   UNK d   1      23.305  68.219  -6.086  0.00  0.00     0.138 A 
ATOM     17  C   UNK d   1      22.179  68.978  -6.385  0.00  0.00     0.040 A 
ATOM     18  C   UNK d   1      21.116  68.333  -6.993  0.00  0.00     0.138 A 
ATOM     19  N   UNK d   1      21.237  67.019  -7.256  0.00  0.00    -0.075 NA
ENDBRANCH  11  14
ENDBRANCH   4   8
BRANCH   1  20
ATOM     20  C   UNK d   1      18.068  62.549 -10.901  0.00  0.00     0.046 A 
ATOM     21  C   UNK d   1      16.913  63.276 -11.098  0.00  0.00     0.049 A 
ATOM     22  C   UNK d   1      15.659  62.694 -10.931  0.00  0.00     0.013 A 
ATOM     23 Br   UNK d   1      14.059  63.688 -11.200  0.00  0.00    -0.051 Br
ATOM     24  C   UNK d   1      15.542  61.371 -10.564  0.00  0.00     0.019 A 
ATOM     25  C   UNK d   1      16.681  60.629 -10.362  0.00  0.00     0.004 A 
ATOM     26  C   UNK d   1      17.904  61.219 -10.531  0.00  0.00     0.030 A 
ENDBRANCH   1  20
TORSDOF 3
ENDMDL
