/Users/jonathanwahrer/Desktop/Msc/3_Semester/Drug_Design_Praktikum/waehrer_HTS_screening/HTS_experiment/out/docking_results/vina_output/3sx0/1525_docked.pdbqt
 OpenBabel03192222393D

 26 29  0  0  1  0  0  0  0  0999 V2000
   19.3760   63.0990  -11.0610 N   0  0  0  0  0  0  0  0  0  0  0  0
   19.8870   64.1840  -10.2970 C   0  0  0  0  0  0  0  0  0  0  0  0
   19.1570   65.0240   -9.7170 O   0  0  0  0  0  0  0  0  0  0  0  0
   21.3410   64.0900  -10.3480 C   0  0  2  0  0  3  0  0  0  0  0  0
   21.5950   63.4400  -11.6920 C   0  0  0  0  0  2  0  0  0  0  0  0
   20.3780   62.6610  -11.9880 C   0  0  0  0  0  0  0  0  0  0  0  0
   20.2270   61.7800  -12.8750 O   0  0  0  0  0  0  0  0  0  0  0  0
   21.9680   63.4170   -9.2830 N   0  0  2  0  0  0  0  0  0  0  0  0
   21.1670   62.9770   -8.2130 C   0  0  0  0  0  2  0  0  0  0  0  0
   21.2400   64.0170   -7.0860 C   0  0  0  0  0  2  0  0  0  0  0  0
   22.3870   64.8860   -7.2940 N   0  0  0  0  0  0  0  0  0  0  0  0
   23.6310   64.3960   -7.8540 C   0  0  0  0  0  2  0  0  0  0  0  0
   23.3400   63.5390   -9.0640 C   0  0  0  0  0  2  0  0  0  0  0  0
   22.3240   66.2810   -6.9670 C   0  0  0  0  0  0  0  0  0  0  0  0
   23.3640   66.9040   -6.3750 N   0  0  0  0  0  0  0  0  0  0  0  0
   23.3050   68.2190   -6.0860 C   0  0  0  0  0  3  0  0  0  0  0  0
   22.1790   68.9780   -6.3850 C   0  0  0  0  0  3  0  0  0  0  0  0
   21.1160   68.3330   -6.9930 C   0  0  0  0  0  3  0  0  0  0  0  0
   21.2370   67.0190   -7.2560 N   0  0  0  0  0  0  0  0  0  0  0  0
   18.0680   62.5490  -10.9010 C   0  0  0  0  0  0  0  0  0  0  0  0
   16.9130   63.2760  -11.0980 C   0  0  0  0  0  3  0  0  0  0  0  0
   15.6590   62.6940  -10.9310 C   0  0  0  0  0  0  0  0  0  0  0  0
   14.0590   63.6880  -11.2000 Br  0  0  0  0  0  0  0  0  0  0  0  0
   15.5420   61.3710  -10.5640 C   0  0  0  0  0  3  0  0  0  0  0  0
   16.6810   60.6290  -10.3620 C   0  0  0  0  0  3  0  0  0  0  0  0
   17.9040   61.2190  -10.5310 C   0  0  0  0  0  3  0  0  0  0  0  0
  1 20  1  0  0  0  0
  1  2  1  0  0  0  0
  2  3  2  0  0  0  0
  4  5  1  6  0  0  0
  4  2  1  0  0  0  0
  4  8  1  0  0  0  0
  6  5  1  0  0  0  0
  6  1  1  0  0  0  0
  7  6  2  0  0  0  0
  8 13  1  1  0  0  0
  8  9  1  0  0  0  0
  9 10  1  0  0  0  0
 11 10  1  0  0  0  0
 11 14  1  0  0  0  0
 12 11  1  0  0  0  0
 13 12  1  0  0  0  0
 14 15  2  0  0  0  0
 15 16  1  0  0  0  0
 17 16  2  0  0  0  0
 18 17  1  0  0  0  0
 19 18  2  0  0  0  0
 19 14  1  0  0  0  0
 20 26  1  0  0  0  0
 21 22  1  0  0  0  0
 21 20  2  0  0  0  0
 22 24  2  0  0  0  0
 23 22  1  0  0  0  0
 24 25  1  0  0  0  0
 26 25  2  0  0  0  0
M  END
>  <Pose>
1

>  <Score>
-8.129

$$$$
