MODEL 1
REMARK VINA RESULT:   -10.098      0.000      0.000
REMARK INTER + INTRA:         -13.062
REMARK INTER:                 -12.459
REMARK INTRA:                  -0.603
REMARK UNBOUND:                -0.603
REMARK  4 active torsions:
REMARK  status: ('A' for Active; 'I' for Inactive)
REMARK    1  A    between atoms: C_6  and  C_8 
REMARK    2  A    between atoms: N_11  and  C_13 
REMARK    3  A    between atoms: C_14  and  C_16 
REMARK    4  A    between atoms: C_18  and  N_22 
ROOT
ATOM      1  C   UNK d   1      20.243  63.164  -9.531  0.00  0.00     0.061 A 
ATOM      2  N   UNK d   1      21.349  63.319 -10.303  0.00  0.00    -0.335 N 
ATOM      3  C   UNK d   1      22.422  63.463  -9.518  0.00  0.00     0.086 A 
ATOM      4  N   UNK d   1      22.048  63.403  -8.203  0.00  0.00    -0.338 N 
ATOM      5  C   UNK d   1      20.718  63.220  -8.228  0.00  0.00     0.123 A 
ATOM      6  C   UNK d   1      23.649  63.648 -10.324  0.00  0.00     0.078 C 
ATOM      7  C   UNK d   1      23.238  63.052 -11.642  0.00  0.00     0.028 C 
ATOM      8  C   UNK d   1      21.763  63.373 -11.706  0.00  0.00     0.131 C 
ENDROOT
BRANCH   4   9
ATOM      9  C   UNK d   1      22.899  63.558  -7.059  0.00  0.00     0.198 C 
ATOM     10  C   UNK d   1      23.077  64.819  -6.392  0.00  0.00     0.113 C 
ATOM     11  O   UNK d   1      23.896  64.746  -5.348  0.00  0.00    -0.194 OA
BRANCH  10  12
ATOM     12  C   UNK d   1      22.563  66.149  -6.605  0.00  0.00     0.000 A 
ATOM     13  C   UNK d   1      23.330  67.268  -6.210  0.00  0.00     0.050 A 
ATOM     14  C   UNK d   1      22.928  68.568  -6.373  0.00  0.00     0.103 A 
ATOM     15  C   UNK d   1      21.695  68.764  -6.961  0.00  0.00     0.036 A 
ATOM     16  C   UNK d   1      20.928  67.690  -7.354  0.00  0.00     0.003 A 
ATOM     17  C   UNK d   1      21.344  66.368  -7.186  0.00  0.00     0.014 A 
BRANCH  14  18
ATOM     18  N   UNK d   1      23.712  69.675  -5.969  0.00  0.00    -0.116 N 
ATOM     19  O   UNK d   1      23.737  70.688  -6.676  0.00  0.00    -0.532 OA
ATOM     20  O   UNK d   1      24.444  69.657  -4.818  0.00  0.00    -0.532 OA
ENDBRANCH  14  18
ENDBRANCH  10  12
ENDBRANCH   4   9
BRANCH   1  21
ATOM     21  C   UNK d   1      18.843  62.973  -9.910  0.00  0.00    -0.006 A 
ATOM     22  C   UNK d   1      18.407  61.699 -10.197  0.00  0.00     0.015 A 
ATOM     23  C   UNK d   1      17.080  61.444 -10.550  0.00  0.00     0.026 A 
ATOM     24  C   UNK d   1      16.191  62.492 -10.611  0.00  0.00     0.055 A 
ATOM     25  C   UNK d   1      16.616  63.757 -10.328  0.00  0.00     0.056 A 
ATOM     26 Cl   UNK d   1      14.519  62.149 -11.058  0.00  0.00    -0.083 Cl
ATOM     27 Cl   UNK d   1      15.458  65.067 -10.415  0.00  0.00    -0.083 Cl
ATOM     28  C   UNK d   1      17.942  63.995  -9.978  0.00  0.00     0.039 A 
ENDBRANCH   1  21
TORSDOF 4
ENDMDL
