/Users/jonathanwahrer/Desktop/Msc/3_Semester/Drug_Design_Praktikum/waehrer_HTS_screening/HTS_experiment/out/docking_results/vina_output/3sx0/1535_docked.pdbqt
 OpenBabel03192222403D

 28 31  0  0  1  0  0  0  0  0999 V2000
   20.3380   63.3650   -9.8430 C   0  0  0  0  0  0  0  0  0  0  0  0
   20.9810   63.6760   -8.7060 N   0  0  0  0  0  0  0  0  0  0  0  0
   22.2380   64.0740   -8.9930 C   0  0  2  0  0  3  0  0  0  0  0  0
   22.3960   64.0180  -10.3280 N   0  0  0  0  0  0  0  0  0  0  0  0
   21.2380   63.5810  -10.8980 C   0  0  0  0  0  3  0  0  0  0  0  0
   22.9620   64.4090   -7.7450 C   0  0  0  0  0  2  0  0  0  0  0  0
   21.8020   64.8560   -6.8920 C   0  0  0  0  0  2  0  0  0  0  0  0
   20.7960   63.7490   -7.2520 C   0  0  0  0  0  2  0  0  0  0  0  0
   23.5840   64.3170  -11.0400 C   0  0  0  0  0  2  0  0  0  0  0  0
   24.3090   63.3500  -11.8120 C   0  0  2  0  0  3  0  0  0  0  0  0
   24.4130   62.1980  -11.1800 O   0  0  0  0  0  1  0  0  0  0  0  0
   24.9310   63.3980  -13.1140 C   0  0  0  0  0  0  0  0  0  0  0  0
   24.2600   63.4110  -14.3060 C   0  0  0  0  0  3  0  0  0  0  0  0
   24.9320   63.4600  -15.5320 C   0  0  0  0  0  0  0  0  0  0  0  0
   26.2890   63.4960  -15.5650 C   0  0  0  0  0  3  0  0  0  0  0  0
   26.9890   63.4840  -14.3790 C   0  0  0  0  0  3  0  0  0  0  0  0
   26.3430   63.4370  -13.1740 C   0  0  0  0  0  3  0  0  0  0  0  0
   24.1720   63.4710  -16.7420 N   0  0  0  0  0  0  0  0  0  0  0  0
   24.2710   62.5190  -17.5350 O   0  0  0  0  0  0  0  0  0  0  0  0
   23.3390   64.4960  -17.0570 O   0  0  0  0  0  0  0  0  0  0  0  0
   18.9730   62.8880  -10.0660 C   0  0  0  0  0  0  0  0  0  0  0  0
   18.7040   61.5160  -10.1180 C   0  0  0  0  0  3  0  0  0  0  0  0
   17.4430   61.0150  -10.3050 C   0  0  0  0  0  3  0  0  0  0  0  0
   16.3690   61.8590  -10.4530 C   0  0  0  0  0  0  0  0  0  0  0  0
   16.5960   63.2080  -10.4060 C   0  0  0  0  0  0  0  0  0  0  0  0
   14.7620   61.2080  -10.6920 Cl  0  0  0  0  0  0  0  0  0  0  0  0
   15.2880   64.3350  -10.5830 Cl  0  0  0  0  0  0  0  0  0  0  0  0
   17.9000   63.7040  -10.2110 C   0  0  0  0  0  3  0  0  0  0  0  0
  1  2  1  0  0  0  0
  2  8  1  0  0  0  0
  3  2  1  0  0  0  0
  3  6  1  1  0  0  0
  4  3  1  0  0  0  0
  5  4  1  0  0  0  0
  5  1  2  0  0  0  0
  6  7  1  0  0  0  0
  8  7  1  0  0  0  0
  9  4  1  0  0  0  0
 10 11  1  1  0  0  0
 10  9  1  0  0  0  0
 12 10  1  0  0  0  0
 13 12  2  0  0  0  0
 14 13  1  0  0  0  0
 15 14  2  0  0  0  0
 15 16  1  0  0  0  0
 16 17  2  0  0  0  0
 17 12  1  0  0  0  0
 18 14  1  0  0  0  0
 19 18  2  0  0  0  0
 20 18  2  0  0  0  0
 21  1  1  0  0  0  0
 22 21  1  0  0  0  0
 23 22  2  0  0  0  0
 24 25  2  0  0  0  0
 24 23  1  0  0  0  0
 25 28  1  0  0  0  0
 26 24  1  0  0  0  0
 27 25  1  0  0  0  0
 28 21  2  0  0  0  0
M  END
>  <Pose>
1

>  <Score>
-10.411

$$$$
