MODEL 1
REMARK VINA RESULT:   -10.411      0.000      0.000
REMARK INTER + INTRA:         -14.136
REMARK INTER:                 -13.454
REMARK INTRA:                  -0.682
REMARK UNBOUND:                -0.682
REMARK  5 active torsions:
REMARK  status: ('A' for Active; 'I' for Inactive)
REMARK    1  A    between atoms: C_6  and  C_8 
REMARK    2  A    between atoms: N_11  and  C_13 
REMARK    3  A    between atoms: C_13  and  C_14 
REMARK    4  A    between atoms: C_14  and  C_16 
REMARK    5  A    between atoms: C_18  and  N_22 
ROOT
ATOM      1  C   UNK d   1      20.338  63.365  -9.843  0.00  0.00     0.061 A 
ATOM      2  N   UNK d   1      20.981  63.676  -8.706  0.00  0.00    -0.335 N 
ATOM      3  C   UNK d   1      22.238  64.074  -8.993  0.00  0.00     0.086 A 
ATOM      4  N   UNK d   1      22.396  64.018 -10.328  0.00  0.00    -0.338 N 
ATOM      5  C   UNK d   1      21.238  63.581 -10.898  0.00  0.00     0.123 A 
ATOM      6  C   UNK d   1      22.962  64.409  -7.745  0.00  0.00     0.078 C 
ATOM      7  C   UNK d   1      21.802  64.856  -6.892  0.00  0.00     0.028 C 
ATOM      8  C   UNK d   1      20.796  63.749  -7.252  0.00  0.00     0.131 C 
ENDROOT
BRANCH   4   9
ATOM      9  C   UNK d   1      23.584  64.317 -11.040  0.00  0.00     0.198 C 
BRANCH   9  10
ATOM     10  C   UNK d   1      24.309  63.350 -11.812  0.00  0.00     0.113 C 
ATOM     11  O   UNK d   1      24.413  62.198 -11.180  0.00  0.00    -0.194 OA
BRANCH  10  12
ATOM     12  C   UNK d   1      24.931  63.398 -13.114  0.00  0.00     0.000 A 
ATOM     13  C   UNK d   1      24.260  63.411 -14.306  0.00  0.00     0.050 A 
ATOM     14  C   UNK d   1      24.932  63.460 -15.532  0.00  0.00     0.103 A 
ATOM     15  C   UNK d   1      26.289  63.496 -15.565  0.00  0.00     0.036 A 
ATOM     16  C   UNK d   1      26.989  63.484 -14.379  0.00  0.00     0.003 A 
ATOM     17  C   UNK d   1      26.343  63.437 -13.174  0.00  0.00     0.014 A 
BRANCH  14  18
ATOM     18  N   UNK d   1      24.172  63.471 -16.742  0.00  0.00    -0.116 N 
ATOM     19  O   UNK d   1      24.271  62.519 -17.535  0.00  0.00    -0.532 OA
ATOM     20  O   UNK d   1      23.339  64.496 -17.057  0.00  0.00    -0.532 OA
ENDBRANCH  14  18
ENDBRANCH  10  12
ENDBRANCH   9  10
ENDBRANCH   4   9
BRANCH   1  21
ATOM     21  C   UNK d   1      18.973  62.888 -10.066  0.00  0.00    -0.006 A 
ATOM     22  C   UNK d   1      18.704  61.516 -10.118  0.00  0.00     0.015 A 
ATOM     23  C   UNK d   1      17.443  61.015 -10.305  0.00  0.00     0.026 A 
ATOM     24  C   UNK d   1      16.369  61.859 -10.453  0.00  0.00     0.055 A 
ATOM     25  C   UNK d   1      16.596  63.208 -10.406  0.00  0.00     0.056 A 
ATOM     26 Cl   UNK d   1      14.762  61.208 -10.692  0.00  0.00    -0.083 Cl
ATOM     27 Cl   UNK d   1      15.288  64.335 -10.583  0.00  0.00    -0.083 Cl
ATOM     28  C   UNK d   1      17.900  63.704 -10.211  0.00  0.00     0.039 A 
ENDBRANCH   1  21
TORSDOF 5
ENDMDL
