/Users/jonathanwahrer/Desktop/Msc/3_Semester/Drug_Design_Praktikum/waehrer_HTS_screening/HTS_experiment/out/docking_results/vina_output/3sx0/1536_docked.pdbqt
 OpenBabel03192222403D

 31 34  0  0  1  0  0  0  0  0999 V2000
   22.9450   63.7120   -9.5590 S   0  0  0  0  0  0  0  0  0  0  0  0
   24.0110   64.5290  -10.2970 O   0  0  0  0  0  0  0  0  0  0  0  0
   23.2580   62.2740   -9.9800 O   0  0  0  0  0  0  0  0  0  0  0  0
   21.4600   64.1520  -10.1380 N   0  0  0  0  0  0  0  0  0  0  0  0
   20.3640   64.4580   -9.3400 C   0  0  0  0  0  2  0  0  0  0  0  0
   19.4310   63.3340   -9.0190 C   0  0  0  0  0  2  0  0  0  0  0  0
   19.5820   62.2450  -10.0790 C   0  0  2  0  0  3  0  0  0  0  0  0
   19.6840   63.0350  -11.3940 C   0  0  0  0  0  2  0  0  0  0  0  0
   21.1090   63.5650  -11.4260 C   0  0  0  0  0  2  0  0  0  0  0  0
   18.4590   61.3230  -10.0850 C   0  0  0  0  0  0  0  0  0  0  0  0
   18.6180   60.1470   -9.6630 O   0  0  0  0  0  0  0  0  0  0  0  0
   17.1970   61.7070  -10.5480 N   0  0  0  0  0  0  0  0  0  0  0  0
   16.0330   60.8130  -10.5320 C   0  0  0  0  0  2  0  0  0  0  0  0
   16.9710   63.0150  -11.0960 C   0  0  0  0  0  2  0  0  0  0  0  0
   14.9380   61.5260  -11.2970 C   0  0  0  0  0  2  0  0  0  0  0  0
   14.5790   62.7630  -10.6300 N   0  0  0  0  0  0  0  0  0  0  0  0
   15.7180   63.6570  -10.5250 C   0  0  0  0  0  2  0  0  0  0  0  0
   13.4760   63.4150  -11.3020 C   0  0  0  0  0  1  0  0  0  0  0  0
   23.2830   63.9270   -7.8660 C   0  0  0  0  0  0  0  0  0  0  0  0
   24.1890   63.0590   -7.2340 C   0  0  0  0  0  3  0  0  0  0  0  0
   24.4690   63.1330   -5.8940 C   0  0  0  0  0  0  0  0  0  0  0  0
   23.8560   64.0770   -5.1300 C   0  0  0  0  0  0  0  0  0  0  0  0
   25.3780   62.2490   -5.2980 O   0  0  0  0  0  0  0  0  0  0  0  0
   22.9620   64.9530   -5.6920 C   0  0  0  0  0  3  0  0  0  0  0  0
   24.1570   64.1370   -3.7250 N   0  0  0  0  0  0  0  0  0  0  0  0
   22.6960   64.8570   -7.0600 C   0  0  0  0  0  0  0  0  0  0  0  0
   21.6060   66.0520   -7.7410 Cl  0  0  0  0  0  0  0  0  0  0  0  0
   25.0800   63.2160   -3.1690 C   0  0  0  0  0  0  0  0  0  0  0  0
   23.6940   64.8550   -3.1340 H   0  0  0  0  0  0  0  0  0  0  0  0
   25.6600   63.4410   -2.0870 O   0  0  0  0  0  0  0  0  0  0  0  0
   25.3370   61.9620   -3.9260 C   0  0  0  0  0  2  0  0  0  0  0  0
  1 19  1  0  0  0  0
  2  1  2  0  0  0  0
  3  1  2  0  0  0  0
  4  1  1  0  0  0  0
  4  5  1  0  0  0  0
  5  6  1  0  0  0  0
  7 10  1  6  0  0  0
  7  6  1  0  0  0  0
  8  7  1  0  0  0  0
  9  8  1  0  0  0  0
  9  4  1  0  0  0  0
 10 11  2  0  0  0  0
 12 13  1  0  0  0  0
 12 10  1  0  0  0  0
 14 12  1  0  0  0  0
 14 17  1  0  0  0  0
 15 16  1  0  0  0  0
 15 13  1  0  0  0  0
 16 17  1  0  0  0  0
 18 16  1  0  0  0  0
 19 20  2  0  0  0  0
 19 26  1  0  0  0  0
 20 21  1  0  0  0  0
 21 23  1  0  0  0  0
 21 22  2  0  0  0  0
 22 25  1  0  0  0  0
 23 31  1  0  0  0  0
 24 22  1  0  0  0  0
 25 28  1  0  0  0  0
 25 29  1  0  0  0  0
 26 24  2  0  0  0  0
 27 26  1  0  0  0  0
 28 30  2  0  0  0  0
 31 28  1  0  0  0  0
M  END
>  <Pose>
1

>  <Score>
-9.240

$$$$
