MODEL 1
REMARK VINA RESULT:    -9.240      0.000      0.000
REMARK INTER + INTRA:          -9.045
REMARK INTER:                 -10.861
REMARK INTRA:                   1.816
REMARK UNBOUND:                 1.816
REMARK  3 active torsions:
REMARK  status: ('A' for Active; 'I' for Inactive)
REMARK    1  A    between atoms: S_1  and  N_4 
REMARK    2  A    between atoms: S_1  and  C_19 
REMARK    3  A    between atoms: C_7  and  C_10 
REMARK       I    between atoms: C_10  and  N_12 
ROOT
ATOM      1  S   UNK d   1      22.945  63.712  -9.559  0.00  0.00     0.262 S 
ATOM      2  O   UNK d   1      24.011  64.529 -10.297  0.00  0.00    -0.200 OA
ATOM      3  O   UNK d   1      23.258  62.274  -9.980  0.00  0.00    -0.200 OA
ENDROOT
BRANCH   1   4
ATOM      4  N   UNK d   1      21.460  64.152 -10.138  0.00  0.00    -0.307 N 
ATOM      5  C   UNK d   1      20.364  64.458  -9.340  0.00  0.00     0.136 C 
ATOM      6  C   UNK d   1      19.431  63.334  -9.019  0.00  0.00     0.034 C 
ATOM      7  C   UNK d   1      19.582  62.245 -10.079  0.00  0.00     0.081 C 
ATOM      8  C   UNK d   1      19.684  63.035 -11.394  0.00  0.00     0.034 C 
ATOM      9  C   UNK d   1      21.109  63.565 -11.426  0.00  0.00     0.136 C 
BRANCH   7  10
ATOM     10  C   UNK d   1      18.459  61.323 -10.085  0.00  0.00     0.224 C 
ATOM     11  O   UNK d   1      18.618  60.147  -9.663  0.00  0.00    -0.273 OA
ATOM     12  N   UNK d   1      17.197  61.707 -10.548  0.00  0.00    -0.348 N 
ATOM     13  C   UNK d   1      16.033  60.813 -10.532  0.00  0.00     0.156 C 
ATOM     14  C   UNK d   1      16.971  63.015 -11.096  0.00  0.00     0.156 C 
ATOM     15  C   UNK d   1      14.938  61.526 -11.297  0.00  0.00     0.291 C 
ATOM     16  N   UNK d   1      14.579  62.763 -10.630  0.00  0.00     0.087 N 
ATOM     17  C   UNK d   1      15.718  63.657 -10.525  0.00  0.00     0.291 C 
ATOM     18  C   UNK d   1      13.476  63.415 -11.302  0.00  0.00     0.310 C 
ENDBRANCH   7  10
ENDBRANCH   1   4
BRANCH   1  19
ATOM     19  C   UNK d   1      23.283  63.927  -7.866  0.00  0.00     0.104 A 
ATOM     20  C   UNK d   1      24.189  63.059  -7.234  0.00  0.00     0.066 A 
ATOM     21  C   UNK d   1      24.469  63.133  -5.894  0.00  0.00     0.097 A 
ATOM     22  C   UNK d   1      23.856  64.077  -5.130  0.00  0.00     0.070 A 
ATOM     23  O   UNK d   1      25.378  62.249  -5.298  0.00  0.00    -0.340 OA
ATOM     24  C   UNK d   1      22.962  64.953  -5.692  0.00  0.00     0.058 A 
ATOM     25  N   UNK d   1      24.157  64.137  -3.725  0.00  0.00    -0.323 N 
ATOM     26  C   UNK d   1      22.696  64.857  -7.060  0.00  0.00     0.059 A 
ATOM     27 Cl   UNK d   1      21.606  66.052  -7.741  0.00  0.00    -0.083 Cl
ATOM     28  C   UNK d   1      25.080  63.216  -3.169  0.00  0.00     0.246 C 
ATOM     29  H   UNK d   1      23.694  64.855  -3.134  0.00  0.00     0.169 HD
ATOM     30  O   UNK d   1      25.660  63.441  -2.087  0.00  0.00    -0.271 OA
ATOM     31  C   UNK d   1      25.337  61.962  -3.926  0.00  0.00     0.278 C 
ENDBRANCH   1  19
TORSDOF 3
ENDMDL
