MODEL 1
REMARK VINA RESULT:    -6.890      0.000      0.000
REMARK INTER + INTRA:          -9.085
REMARK INTER:                  -9.306
REMARK INTRA:                   0.221
REMARK UNBOUND:                 0.221
REMARK  6 active torsions:
REMARK  status: ('A' for Active; 'I' for Inactive)
REMARK    1  A    between atoms: C_5  and  C_8 
REMARK    2  A    between atoms: N_9  and  C_26 
REMARK    3  A    between atoms: C_15  and  C_17 
REMARK    4  A    between atoms: C_20  and  O_23 
REMARK    5  A    between atoms: C_26  and  C_27 
REMARK    6  A    between atoms: C_27  and  N_28 
ROOT
ATOM      1  C   UNK d   1      21.782  64.084  -7.154  0.00  0.00     0.161 C 
ATOM      2  N   UNK d   1      22.898  63.589  -7.971  0.00  0.00    -0.331 N 
ATOM      3  C   UNK d   1      22.628  64.059  -9.284  0.00  0.00     0.295 C 
ATOM      4  O   UNK d   1      23.460  64.302 -10.174  0.00  0.00    -0.264 OA
ATOM      5  C   UNK d   1      21.178  64.197  -9.378  0.00  0.00     0.250 C 
ATOM      6  O   UNK d   1      20.450  64.582 -10.340  0.00  0.00    -0.282 OA
ATOM      7  C   UNK d   1      20.643  63.787  -8.071  0.00  0.00     0.062 C 
ATOM      8  C   UNK d   1      19.438  63.311  -7.827  0.00  0.00     0.130 C 
ATOM      9  O   UNK d   1      19.096  63.016  -6.504  0.00  0.00    -0.190 OA
ENDROOT
BRANCH   1  10
ATOM     10  C   UNK d   1      21.992  65.547  -7.027  0.00  0.00    -0.030 A 
ATOM     11  C   UNK d   1      23.143  66.068  -6.476  0.00  0.00     0.011 A 
ATOM     12  C   UNK d   1      23.363  67.422  -6.346  0.00  0.00     0.024 A 
ATOM     13  C   UNK d   1      22.413  68.332  -6.775  0.00  0.00     0.034 A 
ATOM     14 Cl   UNK d   1      22.675  70.068  -6.618  0.00  0.00    -0.084 Cl
ATOM     15  C   UNK d   1      21.258  67.836  -7.327  0.00  0.00     0.024 A 
ATOM     16  C   UNK d   1      21.042  66.483  -7.455  0.00  0.00     0.011 A 
ENDBRANCH   1  10
BRANCH   8  17
ATOM     17  C   UNK d   1      18.452  63.076  -8.871  0.00  0.00     0.002 A 
ATOM     18  C   UNK d   1      17.547  64.049  -9.265  0.00  0.00     0.024 A 
ATOM     19  C   UNK d   1      16.597  63.813 -10.237  0.00  0.00    -0.028 A 
ATOM     20  C   UNK d   1      16.513  62.577 -10.862  0.00  0.00     0.074 A 
ATOM     21  C   UNK d   1      15.651  64.882 -10.625  0.00  0.00     0.051 C 
ATOM     22  C   UNK d   1      17.406  61.602 -10.479  0.00  0.00     0.038 A 
ATOM     23  C   UNK d   1      18.365  61.852  -9.493  0.00  0.00     0.017 A 
BRANCH  20  24
ATOM     24  O   UNK d   1      15.561  62.323 -11.845  0.00  0.00    -0.355 OA
ATOM     25  C   UNK d   1      14.290  61.876 -11.462  0.00  0.00     0.210 C 
ENDBRANCH  20  24
ENDBRANCH   8  17
BRANCH   2  26
ATOM     26  C   UNK d   1      24.037  62.790  -7.518  0.00  0.00     0.155 C 
BRANCH  26  27
ATOM     27  C   UNK d   1      24.522  63.423  -6.234  0.00  0.00     0.255 C 
BRANCH  27  28
ATOM     28  N   UNK d   1      24.681  62.466  -5.172  0.00  0.00    -0.066 N 
ATOM     29  C   UNK d   1      24.152  62.969  -3.946  0.00  0.00     0.261 C 
ATOM     30  C   UNK d   1      25.136  63.598  -3.017  0.00  0.00     0.195 C 
ATOM     31  O   UNK d   1      26.396  63.063  -3.049  0.00  0.00    -0.388 OA
ATOM     32  C   UNK d   1      26.934  63.001  -4.327  0.00  0.00     0.195 C 
ATOM     33  C   UNK d   1      26.059  62.066  -5.121  0.00  0.00     0.261 C 
ATOM     34  H   UNK d   1      24.089  61.633  -5.452  0.00  0.00     0.280 HD
ENDBRANCH  27  28
ENDBRANCH  26  27
ENDBRANCH   2  26
TORSDOF 6
ENDMDL
