MODEL 1
REMARK VINA RESULT:    -6.469      0.000      0.000
REMARK INTER + INTRA:          -7.059
REMARK INTER:                  -6.848
REMARK INTRA:                  -0.211
REMARK UNBOUND:                -0.211
REMARK  1 active torsions:
REMARK  status: ('A' for Active; 'I' for Inactive)
REMARK       I    between atoms: N_10  and  C_13 
REMARK    1  A    between atoms: C_13  and  C_15 
ROOT
ATOM      1 Cl   UNK d   1      10.409  62.839 -16.444  0.00  0.00    -0.083 Cl
ATOM      2  C   UNK d   1      11.566  63.584 -15.351  0.00  0.00     0.050 A 
ATOM      3  C   UNK d   1      12.175  62.879 -14.336  0.00  0.00     0.125 A 
ATOM      4  N   UNK d   1      13.073  63.460 -13.487  0.00  0.00    -0.271 N 
ATOM      5  C   UNK d   1      13.410  64.757 -13.604  0.00  0.00     0.137 A 
ATOM      6  N   UNK d   1      14.302  65.337 -12.762  0.00  0.00    -0.234 NA
ATOM      7  C   UNK d   1      14.894  64.639 -11.769  0.00  0.00     0.051 A 
ATOM      8  C   UNK d   1      14.576  63.321 -11.622  0.00  0.00     0.053 A 
ATOM      9  C   UNK d   1      15.204  62.499 -10.538  0.00  0.00     0.172 C 
ATOM     10  N   UNK d   1      16.507  63.139 -10.288  0.00  0.00    -0.342 N 
ATOM     11  C   UNK d   1      16.412  64.494  -9.825  0.00  0.00     0.132 C 
ATOM     12  C   UNK d   1      15.853  65.390 -10.916  0.00  0.00     0.080 C 
ATOM     13  C   UNK d   1      17.654  62.385 -10.521  0.00  0.00     0.274 C 
ATOM     14  O   UNK d   1      17.522  61.180 -10.932  0.00  0.00    -0.266 OA
ATOM     15  C   UNK d   1      13.659  62.759 -12.500  0.00  0.00     0.263 A 
ATOM     16  O   UNK d   1      13.362  61.554 -12.374  0.00  0.00    -0.267 OA
ATOM     17  C   UNK d   1      12.802  65.475 -14.623  0.00  0.00     0.053 A 
ATOM     18  C   UNK d   1      11.892  64.916 -15.494  0.00  0.00     0.029 A 
ENDROOT
BRANCH  13  19
ATOM     19  C   UNK d   1      19.036  62.846 -10.339  0.00  0.00     0.141 A 
ATOM     20  N   UNK d   1      19.568  63.051  -9.131  0.00  0.00    -0.253 NA
ATOM     21  C   UNK d   1      20.827  63.471  -8.974  0.00  0.00     0.136 A 
ATOM     22  C   UNK d   1      21.651  63.717 -10.053  0.00  0.00     0.135 A 
ATOM     23  N   UNK d   1      21.099  63.504 -11.260  0.00  0.00    -0.269 NA
ATOM     24  C   UNK d   1      19.846  63.087 -11.443  0.00  0.00     0.153 A 
ENDBRANCH  13  19
TORSDOF 1
ENDMDL
