MODEL 1
REMARK VINA RESULT:    -6.391      0.000      0.000
REMARK INTER + INTRA:          -8.097
REMARK INTER:                  -7.325
REMARK INTRA:                  -0.772
REMARK UNBOUND:                -0.772
REMARK  3 active torsions:
REMARK  status: ('A' for Active; 'I' for Inactive)
REMARK    1  A    between atoms: C_3  and  O_25 
REMARK    2  A    between atoms: C_4  and  C_9 
REMARK    3  A    between atoms: C_11  and  C_22 
ROOT
ATOM      1  C   UNK d   1      21.883  63.801  -7.282  0.00  0.00     0.272 C 
ATOM      2  N   UNK d   1      22.945  63.045  -6.733  0.00  0.00    -0.047 N 
ATOM      3  C   UNK d   1      23.806  63.716  -5.803  0.00  0.00     0.291 C 
ATOM      4  C   UNK d   1      24.347  64.997  -6.459  0.00  0.00     0.086 C 
ATOM      5  C   UNK d   1      23.143  65.826  -6.658  0.00  0.00    -0.018 A 
ATOM      6  C   UNK d   1      22.930  67.188  -6.511  0.00  0.00    -0.001 A 
ATOM      7  C   UNK d   1      21.607  67.411  -6.822  0.00  0.00     0.043 A 
ATOM      8  N   UNK d   1      21.020  66.249  -7.147  0.00  0.00    -0.356 N 
ATOM      9  C   UNK d   1      21.969  65.261  -7.047  0.00  0.00     0.052 A 
ATOM     10  C   UNK d   1      21.138  68.710  -6.749  0.00  0.00     0.030 A 
ATOM     11  C   UNK d   1      22.001  69.709  -6.374  0.00  0.00     0.002 A 
ATOM     12  C   UNK d   1      23.323  69.483  -6.064  0.00  0.00     0.001 A 
ATOM     13  C   UNK d   1      23.810  68.179  -6.133  0.00  0.00     0.014 A 
ATOM     14  H   UNK d   1      22.513  62.217  -6.211  0.00  0.00     0.279 HD
ATOM     15  H   UNK d   1      23.572  62.598  -7.448  0.00  0.00     0.279 HD
ATOM     16  H   UNK d   1      20.024  66.066  -7.435  0.00  0.00     0.166 HD
ENDROOT
BRANCH   1  17
ATOM     17  C   UNK d   1      21.861  63.606  -8.778  0.00  0.00     0.014 A 
ATOM     18  C   UNK d   1      20.676  63.474  -9.479  0.00  0.00     0.091 A 
ATOM     19  C   UNK d   1      20.682  63.302 -10.867  0.00  0.00     0.046 A 
ATOM     20 Br   UNK d   1      19.034  63.116 -11.821  0.00  0.00    -0.048 Br
ATOM     21  C   UNK d   1      21.857  63.260 -11.567  0.00  0.00     0.041 A 
ATOM     22  C   UNK d   1      23.037  63.392 -10.873  0.00  0.00     0.013 A 
ATOM     23  C   UNK d   1      23.039  63.563  -9.495  0.00  0.00     0.031 A 
ATOM     24 Br   UNK d   1      24.713  63.336 -11.821  0.00  0.00    -0.051 Br
BRANCH  18  25
ATOM     25  O   UNK d   1      19.444  63.500  -8.880  0.00  0.00    -0.359 OA
ATOM     26  H   UNK d   1      18.654  64.005  -9.175  0.00  0.00     0.217 HD
ENDBRANCH  18  25
ENDBRANCH   1  17
BRANCH   3  27
ATOM     27  C   UNK d   1      24.913  62.820  -5.410  0.00  0.00     0.205 C 
ATOM     28  O   UNK d   1      25.992  62.866  -6.054  0.00  0.00    -0.646 OA
ATOM     29  O   UNK d   1      24.741  61.950  -4.346  0.00  0.00    -0.646 OA
ENDBRANCH   3  27
TORSDOF 3
ENDMDL
