MODEL 1
REMARK VINA RESULT:    -8.683      0.000      0.000
REMARK INTER + INTRA:         -11.948
REMARK INTER:                 -11.221
REMARK INTRA:                  -0.727
REMARK UNBOUND:                -0.727
REMARK  5 active torsions:
REMARK  status: ('A' for Active; 'I' for Inactive)
REMARK    1  A    between atoms: C_7  and  C_11 
REMARK    2  A    between atoms: C_11  and  O_12 
REMARK    3  A    between atoms: O_12  and  C_13 
REMARK    4  A    between atoms: C_13  and  C_15 
REMARK    5  A    between atoms: C_15  and  N_16 
ROOT
ATOM      1  O   UNK d   1      21.277  63.467 -10.684  0.00  0.00    -0.314 OA
ENDROOT
BRANCH   1   2
ATOM      2  C   UNK d   1      22.461  64.099 -10.286  0.00  0.00     0.238 C 
BRANCH   2   3
ATOM      3  C   UNK d   1      22.664  64.069  -8.818  0.00  0.00     0.066 A 
ATOM      4  N   UNK d   1      23.708  63.452  -8.231  0.00  0.00    -0.233 NA
ATOM      5  C   UNK d   1      23.867  63.440  -6.906  0.00  0.00     0.137 A 
ATOM      6  N   UNK d   1      23.002  64.040  -6.049  0.00  0.00    -0.272 N 
ATOM      7  C   UNK d   1      24.974  62.780  -6.376  0.00  0.00     0.052 A 
ATOM      8  C   UNK d   1      23.207  64.000  -4.725  0.00  0.00     0.121 A 
ATOM      9  C   UNK d   1      21.938  64.671  -6.609  0.00  0.00     0.255 A 
ATOM     10  C   UNK d   1      24.287  63.358  -4.165  0.00  0.00     0.027 A 
ATOM     11 Br   UNK d   1      24.542  63.326  -2.255  0.00  0.00    -0.050 Br
ATOM     12  C   UNK d   1      25.174  62.745  -5.012  0.00  0.00     0.024 A 
ATOM     13  C   UNK d   1      21.763  64.690  -7.978  0.00  0.00     0.104 A 
ATOM     14  O   UNK d   1      21.138  65.227  -5.805  0.00  0.00    -0.268 OA
ENDBRANCH   2   3
ENDBRANCH   1   2
BRANCH   1  15
ATOM     15  C   UNK d   1      21.019  62.969 -11.940  0.00  0.00     0.277 C 
ATOM     16  O   UNK d   1      21.927  63.147 -12.801  0.00  0.00    -0.263 OA
BRANCH  15  17
ATOM     17  C   UNK d   1      19.756  62.262 -12.283  0.00  0.00     0.245 C 
BRANCH  17  18
ATOM     18  N   UNK d   1      18.704  62.536 -11.303  0.00  0.00    -0.278 N 
ATOM     19  C   UNK d   1      17.913  63.716 -11.192  0.00  0.00     0.232 C 
ATOM     20  O   UNK d   1      17.857  64.655 -12.025  0.00  0.00    -0.273 OA
ATOM     21  C   UNK d   1      17.165  63.642  -9.916  0.00  0.00     0.091 C 
ATOM     22  C   UNK d   1      16.978  62.147  -9.796  0.00  0.00     0.091 C 
ATOM     23  C   UNK d   1      15.921  64.432  -9.880  0.00  0.00     0.015 C 
ATOM     24  C   UNK d   1      15.899  61.612 -10.717  0.00  0.00     0.015 C 
ATOM     25  C   UNK d   1      18.293  61.658 -10.270  0.00  0.00     0.232 C 
ATOM     26  C   UNK d   1      15.126  62.700 -11.415  0.00  0.00     0.001 C 
ATOM     27  C   UNK d   1      14.714  63.776 -10.451  0.00  0.00     0.001 C 
ATOM     28  O   UNK d   1      18.945  60.652  -9.850  0.00  0.00    -0.273 OA
ENDBRANCH  17  18
ENDBRANCH  15  17
ENDBRANCH   1  15
TORSDOF 5
ENDMDL
