/Users/jonathanwahrer/Desktop/Msc/3_Semester/Drug_Design_Praktikum/waehrer_HTS_screening/HTS_experiment/out/docking_results/vina_output/3sx0/1576_docked.pdbqt
 OpenBabel03192222413D

 30 33  0  0  0  0  0  0  0  0999 V2000
   17.8840   62.4020  -10.3700 N   0  0  0  0  0  0  0  0  0  0  0  0
   19.0110   62.2070  -11.2570 C   0  0  0  0  0  2  0  0  0  0  0  0
   20.2960   62.3400  -10.4430 C   0  0  0  0  0  2  0  0  0  0  0  0
   20.1570   63.4380   -9.4990 N   0  0  0  0  0  0  0  0  0  0  0  0
   19.0650   63.4000   -8.5550 C   0  0  0  0  0  2  0  0  0  0  0  0
   18.1600   62.2520   -8.9330 C   0  0  0  0  0  2  0  0  0  0  0  0
   21.0660   64.5330   -9.4890 C   0  0  0  0  0  0  0  0  0  0  0  0
   22.0170   64.5310  -10.3300 O   0  0  0  0  0  0  0  0  0  0  0  0
   20.9740   65.6680   -8.5640 C   0  0  0  0  0  2  0  0  0  0  0  0
   21.7360   65.4780   -7.3310 N   0  0  0  0  0  0  0  0  0  0  0  0
   21.8880   64.3910   -6.6010 N   0  0  0  0  0  0  0  0  0  0  0  0
   22.6630   64.5880   -5.5320 C   0  0  0  0  0  0  0  0  0  0  0  0
   23.0480   65.9150   -5.5730 C   0  0  0  0  0  3  0  0  0  0  0  0
   22.4580   66.4440   -6.6990 C   0  0  0  0  0  0  0  0  0  0  0  0
   22.5960   67.8470   -7.1440 C   0  0  0  0  0  1  0  0  0  0  0  0
   23.0360   63.5880   -4.5140 C   0  0  0  0  0  0  0  0  0  0  0  0
   22.2560   63.3290   -3.5750 O   0  0  0  0  0  0  0  0  0  0  0  0
   24.2820   62.9350   -4.6240 N   0  0  0  0  0  0  0  0  0  0  0  0
   25.2280   63.1820   -5.6760 C   0  0  0  0  0  2  0  0  0  0  0  0
   24.6640   61.9380   -3.6190 C   0  0  0  0  0  2  0  0  0  0  0  0
   26.4860   62.3780   -5.3230 C   0  0  0  0  0  2  0  0  0  0  0  0
   26.9170   62.6650   -4.0460 O   0  0  0  0  0  0  0  0  0  0  0  0
   26.0120   62.3460   -3.0620 C   0  0  0  0  0  2  0  0  0  0  0  0
   16.5810   62.7160  -10.7600 C   0  0  0  0  0  0  0  0  0  0  0  0
   15.5560   61.8030  -10.8750 C   0  0  0  0  0  0  0  0  0  0  0  0
   15.8760   60.1430  -10.5230 Cl  0  0  0  0  0  0  0  0  0  0  0  0
   14.2780   62.1560  -11.2620 C   0  0  0  0  0  3  0  0  0  0  0  0
   13.9930   63.4550  -11.5480 C   0  0  0  0  0  3  0  0  0  0  0  0
   14.9810   64.3980  -11.4470 C   0  0  0  0  0  3  0  0  0  0  0  0
   16.2560   64.0370  -11.0600 C   0  0  0  0  0  3  0  0  0  0  0  0
  1  6  1  0  0  0  0
  2  3  1  0  0  0  0
  2  1  1  0  0  0  0
  3  4  1  0  0  0  0
  4  7  1  0  0  0  0
  4  5  1  0  0  0  0
  6  5  1  0  0  0  0
  7  9  1  0  0  0  0
  8  7  2  0  0  0  0
  9 10  1  0  0  0  0
 10 14  1  0  0  0  0
 10 11  1  0  0  0  0
 11 12  2  0  0  0  0
 12 16  1  0  0  0  0
 13 12  1  0  0  0  0
 14 13  2  0  0  0  0
 15 14  1  0  0  0  0
 16 17  2  0  0  0  0
 18 16  1  0  0  0  0
 18 20  1  0  0  0  0
 19 21  1  0  0  0  0
 19 18  1  0  0  0  0
 20 23  1  0  0  0  0
 21 22  1  0  0  0  0
 22 23  1  0  0  0  0
 24  1  1  0  0  0  0
 25 24  1  0  0  0  0
 25 26  1  0  0  0  0
 27 25  2  0  0  0  0
 28 29  2  0  0  0  0
 28 27  1  0  0  0  0
 29 30  1  0  0  0  0
 30 24  2  0  0  0  0
M  END
>  <Pose>
1

>  <Score>
-7.661

$$$$
