MODEL 1
REMARK VINA RESULT:    -7.661      0.000      0.000
REMARK INTER + INTRA:         -10.275
REMARK INTER:                  -9.452
REMARK INTRA:                  -0.822
REMARK UNBOUND:                -0.822
REMARK  4 active torsions:
REMARK  status: ('A' for Active; 'I' for Inactive)
REMARK    1  A    between atoms: C_3  and  N_8 
REMARK       I    between atoms: N_11  and  C_14 
REMARK    2  A    between atoms: C_14  and  C_16 
REMARK    3  A    between atoms: C_16  and  N_17 
REMARK    4  A    between atoms: C_19  and  C_23 
REMARK       I    between atoms: C_23  and  N_25 
ROOT
ATOM      1  N   UNK d   1      17.884  62.402 -10.370  0.00  0.00    -0.376 N 
ATOM      2  C   UNK d   1      19.011  62.207 -11.257  0.00  0.00     0.143 C 
ATOM      3  C   UNK d   1      20.296  62.340 -10.443  0.00  0.00     0.145 C 
ATOM      4  N   UNK d   1      20.157  63.438  -9.499  0.00  0.00    -0.348 N 
ATOM      5  C   UNK d   1      19.065  63.400  -8.555  0.00  0.00     0.145 C 
ATOM      6  C   UNK d   1      18.160  62.252  -8.933  0.00  0.00     0.143 C 
ATOM      7  C   UNK d   1      21.066  64.533  -9.489  0.00  0.00     0.239 C 
ATOM      8  O   UNK d   1      22.017  64.531 -10.330  0.00  0.00    -0.271 OA
ENDROOT
BRANCH   7   9
ATOM      9  C   UNK d   1      20.974  65.668  -8.564  0.00  0.00     0.254 C 
BRANCH   9  10
ATOM     10  N   UNK d   1      21.736  65.478  -7.331  0.00  0.00    -0.265 N 
ATOM     11  N   UNK d   1      21.888  64.391  -6.601  0.00  0.00    -0.167 NA
ATOM     12  C   UNK d   1      22.663  64.588  -5.532  0.00  0.00     0.146 A 
ATOM     13  C   UNK d   1      23.048  65.915  -5.573  0.00  0.00     0.065 A 
ATOM     14  C   UNK d   1      22.458  66.444  -6.699  0.00  0.00     0.029 A 
ATOM     15  C   UNK d   1      22.596  67.847  -7.144  0.00  0.00     0.070 C 
BRANCH  12  16
ATOM     16  C   UNK d   1      23.036  63.588  -4.514  0.00  0.00     0.274 C 
ATOM     17  O   UNK d   1      22.256  63.329  -3.575  0.00  0.00    -0.266 OA
ATOM     18  N   UNK d   1      24.282  62.935  -4.624  0.00  0.00    -0.343 N 
ATOM     19  C   UNK d   1      25.228  63.182  -5.676  0.00  0.00     0.152 C 
ATOM     20  C   UNK d   1      24.664  61.938  -3.619  0.00  0.00     0.152 C 
ATOM     21  C   UNK d   1      26.486  62.378  -5.323  0.00  0.00     0.187 C 
ATOM     22  O   UNK d   1      26.917  62.665  -4.046  0.00  0.00    -0.388 OA
ATOM     23  C   UNK d   1      26.012  62.346  -3.062  0.00  0.00     0.187 C 
ENDBRANCH  12  16
ENDBRANCH   9  10
ENDBRANCH   7   9
BRANCH   1  24
ATOM     24  C   UNK d   1      16.581  62.716 -10.760  0.00  0.00     0.052 A 
ATOM     25  C   UNK d   1      15.556  61.803 -10.875  0.00  0.00     0.060 A 
ATOM     26 Cl   UNK d   1      15.876  60.143 -10.523  0.00  0.00    -0.082 Cl
ATOM     27  C   UNK d   1      14.278  62.156 -11.262  0.00  0.00     0.026 A 
ATOM     28  C   UNK d   1      13.993  63.455 -11.548  0.00  0.00     0.002 A 
ATOM     29  C   UNK d   1      14.981  64.398 -11.447  0.00  0.00     0.002 A 
ATOM     30  C   UNK d   1      16.256  64.037 -11.060  0.00  0.00     0.031 A 
ENDBRANCH   1  24
TORSDOF 4
ENDMDL
