MODEL 1
REMARK VINA RESULT:    -7.990      0.000      0.000
REMARK INTER + INTRA:         -10.114
REMARK INTER:                  -9.392
REMARK INTRA:                  -0.723
REMARK UNBOUND:                -0.723
REMARK  3 active torsions:
REMARK  status: ('A' for Active; 'I' for Inactive)
REMARK    1  A    between atoms: C_5  and  C_8 
REMARK       I    between atoms: C_8  and  N_10 
REMARK    2  A    between atoms: C_18  and  C_22 
REMARK    3  A    between atoms: C_22  and  C_23 
ROOT
ATOM      1  C   UNK d   1      12.968  64.487 -14.009  0.00  0.00     0.187 C 
ATOM      2  O   UNK d   1      11.929  63.776 -14.416  0.00  0.00    -0.171 OA
ATOM      3  N   UNK d   1      13.590  64.035 -12.834  0.00  0.00    -0.355 N 
ATOM      4  C   UNK d   1      14.700  64.665 -12.211  0.00  0.00     0.160 C 
ATOM      5  C   UNK d   1      14.940  64.007 -10.841  0.00  0.00     0.197 C 
ATOM      6  N   UNK d   1      15.168  62.612 -11.119  0.00  0.00    -0.334 N 
ATOM      7  C   UNK d   1      14.117  61.888 -11.750  0.00  0.00     0.147 C 
ATOM      8  C   UNK d   1      13.030  62.818 -12.247  0.00  0.00     0.145 C 
ATOM      9  C   UNK d   1      16.385  61.996 -10.777  0.00  0.00     0.243 C 
ATOM     10  O   UNK d   1      16.422  60.758 -10.667  0.00  0.00    -0.271 OA
ATOM     11  C   UNK d   1      17.577  62.842 -10.563  0.00  0.00     0.182 C 
ATOM     12  N   UNK d   1      17.172  63.925  -9.717  0.00  0.00    -0.346 N 
ATOM     13  C   UNK d   1      16.013  64.652 -10.087  0.00  0.00     0.243 C 
ATOM     14  O   UNK d   1      15.868  65.876  -9.776  0.00  0.00    -0.271 OA
ATOM     15  H   UNK d   1      17.698  64.192  -8.849  0.00  0.00     0.163 HD
ENDROOT
BRANCH   1  16
ATOM     16  C   UNK d   1      13.246  65.598 -14.877  0.00  0.00     0.018 A 
ATOM     17  C   UNK d   1      14.244  65.698 -15.814  0.00  0.00     0.017 A 
ATOM     18  C   UNK d   1      14.472  66.830 -16.599  0.00  0.00     0.025 A 
ATOM     19  C   UNK d   1      13.673  67.917 -16.453  0.00  0.00     0.034 A 
ATOM     20 Cl   UNK d   1      13.928  69.372 -17.428  0.00  0.00    -0.084 Cl
ATOM     21  C   UNK d   1      12.656  67.882 -15.535  0.00  0.00     0.025 A 
ATOM     22  C   UNK d   1      12.450  66.752 -14.771  0.00  0.00     0.017 A 
ENDBRANCH   1  16
BRANCH  11  23
ATOM     23  C   UNK d   1      18.772  62.097 -10.105  0.00  0.00     0.095 C 
BRANCH  23  24
ATOM     24  C   UNK d   1      19.857  63.036  -9.773  0.00  0.00     0.053 A 
ATOM     25  N   UNK d   1      20.296  63.411  -8.569  0.00  0.00    -0.247 NA
ATOM     26  C   UNK d   1      21.321  64.301  -8.722  0.00  0.00     0.207 A 
ATOM     27  N   UNK d   1      21.530  64.490 -10.026  0.00  0.00    -0.359 N 
ATOM     28  C   UNK d   1      20.651  63.730 -10.687  0.00  0.00     0.116 A 
ATOM     29  H   UNK d   1      22.233  65.103 -10.448  0.00  0.00     0.166 HD
ENDBRANCH  23  24
ENDBRANCH  11  23
TORSDOF 3
ENDMDL
