MODEL 1
REMARK VINA RESULT:    -9.515      0.000      0.000
REMARK INTER + INTRA:         -11.423
REMARK INTER:                 -11.184
REMARK INTRA:                  -0.239
REMARK UNBOUND:                -0.239
REMARK  3 active torsions:
REMARK  status: ('A' for Active; 'I' for Inactive)
REMARK    1  A    between atoms: C_3  and  N_15 
REMARK    2  A    between atoms: N_6  and  C_9 
REMARK    3  A    between atoms: N_18  and  C_21 
ROOT
ATOM      1 Cl   UNK d   1      21.792  63.393 -11.918  0.00  0.00    -0.076 Cl
ATOM      2  C   UNK d   1      20.580  63.269 -10.663  0.00  0.00     0.131 A 
ATOM      3  C   UNK d   1      20.902  63.544  -9.365  0.00  0.00     0.077 A 
ATOM      4  C   UNK d   1      19.858  63.397  -8.447  0.00  0.00     0.170 A 
ATOM      5  N   UNK d   1      18.637  63.011  -8.850  0.00  0.00    -0.174 NA
ATOM      6  N   UNK d   1      18.307  62.741 -10.093  0.00  0.00    -0.197 N 
ATOM      7  C   UNK d   1      19.277  62.869 -11.008  0.00  0.00     0.292 A 
ATOM      8  O   UNK d   1      19.059  62.634 -12.224  0.00  0.00    -0.264 OA
ENDROOT
BRANCH   3   9
ATOM      9  N   UNK d   1      22.186  63.973  -8.952  0.00  0.00    -0.375 N 
ATOM     10  C   UNK d   1      23.407  63.285  -9.336  0.00  0.00     0.143 C 
ATOM     11  C   UNK d   1      24.126  62.719  -8.139  0.00  0.00     0.146 C 
ATOM     12  N   UNK d   1      24.035  63.707  -7.093  0.00  0.00    -0.341 N 
ATOM     13  C   UNK d   1      23.811  65.077  -7.475  0.00  0.00     0.146 C 
ATOM     14  C   UNK d   1      22.392  65.127  -8.084  0.00  0.00     0.143 C 
BRANCH  12  15
ATOM     15  C   UNK d   1      24.161  63.346  -5.729  0.00  0.00     0.270 A 
ATOM     16  N   UNK d   1      23.511  63.896  -4.664  0.00  0.00    -0.103 NA
ATOM     17  N   UNK d   1      23.896  63.290  -3.559  0.00  0.00    -0.126 NA
ATOM     18  C   UNK d   1      24.782  62.361  -3.894  0.00  0.00     0.167 A 
ATOM     19  O   UNK d   1      24.924  62.413  -5.192  0.00  0.00    -0.260 OA
ATOM     20  C   UNK d   1      25.519  61.401  -3.009  0.00  0.00     0.102 C 
ENDBRANCH  12  15
ENDBRANCH   3   9
BRANCH   6  21
ATOM     21  C   UNK d   1      16.985  62.337 -10.436  0.00  0.00     0.062 A 
ATOM     22  C   UNK d   1      16.592  61.013 -10.457  0.00  0.00     0.032 A 
ATOM     23  C   UNK d   1      15.309  60.633 -10.790  0.00  0.00     0.002 A 
ATOM     24  C   UNK d   1      14.359  61.579 -11.120  0.00  0.00     0.000 A 
ATOM     25  C   UNK d   1      14.746  62.902 -11.100  0.00  0.00     0.002 A 
ATOM     26  C   UNK d   1      16.032  63.279 -10.766  0.00  0.00     0.032 A 
ENDBRANCH   6  21
TORSDOF 3
ENDMDL
