/Users/jonathanwahrer/Desktop/Msc/3_Semester/Drug_Design_Praktikum/waehrer_HTS_screening/HTS_experiment/out/docking_results/vina_output/3sx0/1594_docked.pdbqt
 OpenBabel03192222423D

 27 30  0  0  0  0  0  0  0  0999 V2000
   21.7370   63.6720   -9.3840 C   0  0  0  0  0  0  0  0  0  0  0  0
   22.6060   63.1100  -10.1470 O   0  0  0  0  0  0  0  0  0  0  0  0
   22.2310   64.4560   -8.3590 N   0  0  0  0  0  0  0  0  0  0  0  0
   21.4010   65.1650   -7.4160 C   0  0  0  0  0  2  0  0  0  0  0  0
   21.5160   64.5610   -6.0320 C   0  0  0  0  0  2  0  0  0  0  0  0
   22.9320   64.1210   -5.7980 C   0  0  0  0  0  0  0  0  0  0  0  0
   23.9240   64.1470   -6.7390 C   0  0  0  0  0  0  0  0  0  0  0  0
   25.0310   63.6690   -6.1130 N   0  0  0  0  0  0  0  0  0  0  0  0
   24.7660   63.3600   -4.8640 N   0  0  0  0  0  0  0  0  0  0  0  0
   23.4780   63.6180   -4.6060 C   0  0  0  0  0  0  0  0  0  0  0  0
   22.8430   63.4530   -3.5150 O   0  0  0  0  0  0  0  0  0  0  0  0
   23.6860   64.6310   -8.1290 C   0  0  0  0  0  2  0  0  0  0  0  0
   25.9510   63.5790   -6.6070 H   0  0  0  0  0  0  0  0  0  0  0  0
   20.3380   63.4190   -9.6830 C   0  0  0  0  0  0  0  0  0  0  0  0
   19.3580   64.2980   -9.8950 N   0  0  0  0  0  0  0  0  0  0  0  0
   18.2160   63.6360  -10.1390 C   0  0  0  0  0  0  0  0  0  0  0  0
   18.4590   62.3220  -10.0820 N   0  0  0  0  0  0  0  0  0  0  0  0
   16.9390   64.1560  -10.4140 C   0  0  0  0  0  3  0  0  0  0  0  0
   17.4430   61.4410  -10.2980 C   0  0  0  0  0  3  0  0  0  0  0  0
   19.7580   62.1470   -9.8030 C   0  0  0  0  0  3  0  0  0  0  0  0
   16.1830   61.9240  -10.5690 C   0  0  0  0  0  0  0  0  0  0  0  0
   14.8440   60.8270  -10.8530 Cl  0  0  0  0  0  0  0  0  0  0  0  0
   15.9200   63.2810  -10.6300 C   0  0  0  0  0  3  0  0  0  0  0  0
   25.6870   62.8150   -3.8570 C   0  0  0  0  0  2  0  0  0  0  0  0
   27.0210   62.4730   -4.4790 C   0  0  0  0  0  2  0  0  0  0  0  0
   26.9950   61.2520   -5.1430 O   0  0  0  0  0  0  0  0  0  0  0  0
   26.0740   61.0160   -5.4610 H   0  0  0  0  0  0  0  0  0  0  0  0
  1  3  1  0  0  0  0
  2  1  2  0  0  0  0
  3 12  1  0  0  0  0
  3  4  1  0  0  0  0
  4  5  1  0  0  0  0
  5  6  1  0  0  0  0
  6 10  1  0  0  0  0
  7  8  1  0  0  0  0
  7  6  2  0  0  0  0
  8  9  1  0  0  0  0
  9 10  1  0  0  0  0
  9 24  1  0  0  0  0
 10 11  2  0  0  0  0
 12  7  1  0  0  0  0
 13  8  1  0  0  0  0
 14  1  1  0  0  0  0
 15 14  1  0  0  0  0
 16 17  1  0  0  0  0
 16 15  2  0  0  0  0
 17 20  1  0  0  0  0
 18 16  1  0  0  0  0
 19 17  1  0  0  0  0
 20 14  2  0  0  0  0
 21 19  2  0  0  0  0
 22 21  1  0  0  0  0
 23 21  1  0  0  0  0
 23 18  2  0  0  0  0
 25 24  1  0  0  0  0
 26 25  1  0  0  0  0
 27 26  1  0  0  0  0
M  END
>  <Pose>
1

>  <Score>
-9.331

$$$$
