MODEL 1
REMARK VINA RESULT:    -9.331      0.000      0.000
REMARK INTER + INTRA:         -11.696
REMARK INTER:                 -11.240
REMARK INTRA:                  -0.456
REMARK UNBOUND:                -0.456
REMARK  4 active torsions:
REMARK  status: ('A' for Active; 'I' for Inactive)
REMARK    1  A    between atoms: C_7  and  C_9 
REMARK       I    between atoms: C_9  and  N_11 
REMARK    2  A    between atoms: N_17  and  C_20 
REMARK    3  A    between atoms: C_20  and  C_21 
REMARK    4  A    between atoms: C_21  and  O_22 
ROOT
ATOM      1  C   UNK d   1      21.737  63.672  -9.384  0.00  0.00     0.274 C 
ATOM      2  O   UNK d   1      22.606  63.110 -10.147  0.00  0.00    -0.266 OA
ATOM      3  N   UNK d   1      22.231  64.456  -8.359  0.00  0.00    -0.341 N 
ATOM      4  C   UNK d   1      21.401  65.165  -7.416  0.00  0.00     0.131 C 
ATOM      5  C   UNK d   1      21.516  64.561  -6.032  0.00  0.00     0.066 C 
ATOM      6  C   UNK d   1      22.932  64.121  -5.798  0.00  0.00     0.039 A 
ATOM      7  C   UNK d   1      23.924  64.147  -6.739  0.00  0.00     0.056 A 
ATOM      8  N   UNK d   1      25.031  63.669  -6.113  0.00  0.00    -0.297 N 
ATOM      9  N   UNK d   1      24.766  63.360  -4.864  0.00  0.00    -0.255 N 
ATOM     10  C   UNK d   1      23.478  63.618  -4.606  0.00  0.00     0.270 A 
ATOM     11  O   UNK d   1      22.843  63.453  -3.515  0.00  0.00    -0.266 OA
ATOM     12  C   UNK d   1      23.686  64.631  -8.129  0.00  0.00     0.185 C 
ATOM     13  H   UNK d   1      25.951  63.579  -6.607  0.00  0.00     0.187 HD
ENDROOT
BRANCH   1  14
ATOM     14  C   UNK d   1      20.338  63.419  -9.683  0.00  0.00     0.142 A 
ATOM     15  N   UNK d   1      19.358  64.298  -9.895  0.00  0.00    -0.224 NA
ATOM     16  C   UNK d   1      18.216  63.636 -10.139  0.00  0.00     0.134 A 
ATOM     17  N   UNK d   1      18.459  62.322 -10.082  0.00  0.00    -0.313 N 
ATOM     18  C   UNK d   1      16.939  64.156 -10.414  0.00  0.00     0.052 A 
ATOM     19  C   UNK d   1      17.443  61.441 -10.298  0.00  0.00     0.122 A 
ATOM     20  C   UNK d   1      19.758  62.147  -9.803  0.00  0.00     0.135 A 
ATOM     21  C   UNK d   1      16.183  61.924 -10.569  0.00  0.00     0.050 A 
ATOM     22 Cl   UNK d   1      14.844  60.827 -10.853  0.00  0.00    -0.083 Cl
ATOM     23  C   UNK d   1      15.920  63.281 -10.630  0.00  0.00     0.029 A 
ENDBRANCH   1  14
BRANCH   9  24
ATOM     24  C   UNK d   1      25.687  62.815  -3.857  0.00  0.00     0.178 C 
BRANCH  24  25
ATOM     25  C   UNK d   1      27.021  62.473  -4.479  0.00  0.00     0.186 C 
BRANCH  25  26
ATOM     26  O   UNK d   1      26.995  61.252  -5.143  0.00  0.00    -0.399 OA
ATOM     27  H   UNK d   1      26.074  61.016  -5.461  0.00  0.00     0.209 HD
ENDBRANCH  25  26
ENDBRANCH  24  25
ENDBRANCH   9  24
TORSDOF 4
ENDMDL
