/Users/jonathanwahrer/Desktop/Msc/3_Semester/Drug_Design_Praktikum/waehrer_HTS_screening/HTS_experiment/out/docking_results/vina_output/3sx0/1599_docked.pdbqt
 OpenBabel03192222423D

 30 33  0  0  1  0  0  0  0  0999 V2000
   13.1450   65.8250  -14.6870 C   0  0  0  0  0  0  0  0  0  0  0  0
   14.4080   65.6370  -14.5770 O   0  0  0  0  0  0  0  0  0  0  0  0
   12.6050   66.5510  -15.7570 N   0  0  0  0  0  0  0  0  0  0  0  0
   11.2050   66.7840  -15.9090 C   0  0  0  0  0  2  0  0  0  0  0  0
   10.9000   68.1370  -16.4860 C   0  0  0  0  0  2  0  0  0  0  0  0
   12.0010   69.1620  -16.3190 C   0  0  1  0  0  0  0  0  0  0  0  0
   11.5960   70.2510  -17.1960 N   0  0  0  0  0  0  0  0  0  0  0  0
   12.3370   71.4480  -17.0860 C   0  0  0  0  0  2  0  0  0  0  0  0
   13.1570   71.6490  -15.8640 C   0  0  0  0  0  2  0  0  0  0  0  0
   12.5930   70.9100  -14.6920 C   0  0  0  0  0  0  0  0  0  0  0  0
   12.5290   71.2140  -13.3960 N   0  0  0  0  0  0  0  0  0  0  0  0
   11.9110   70.1710  -12.8040 C   0  0  0  0  0  3  0  0  0  0  0  0
   11.5970   69.2300  -13.7220 N   0  0  0  0  0  0  0  0  0  0  0  0
   12.0260   69.6850  -14.9340 C   0  0  0  0  0  0  0  0  0  0  0  0
   13.3680   68.6580  -16.7030 C   0  0  0  0  0  2  0  0  0  0  0  0
   13.4530   67.1440  -16.7840 C   0  0  0  0  0  2  0  0  0  0  0  0
   11.6680   69.8330  -18.1680 H   0  0  0  0  0  0  0  0  0  0  0  0
   11.1200   68.3340  -13.5280 H   0  0  0  0  0  0  0  0  0  0  0  0
   12.3230   65.2060  -13.5850 C   0  0  0  0  0  2  0  0  0  0  0  0
   12.9950   64.1570  -12.9770 N   0  0  0  0  0  0  0  0  0  0  0  0
   13.6350   63.1550  -12.3970 C   0  0  0  0  0  0  0  0  0  0  0  0
   13.3980   61.8990  -12.4820 O   0  0  0  0  0  0  0  0  0  0  0  0
   12.1180   63.2680  -13.5740 H   0  0  0  0  0  0  0  0  0  0  0  0
   14.8060   63.4800  -11.5080 C   0  0  0  0  0  0  0  0  0  0  0  0
   15.7750   62.5520  -11.2340 C   0  0  0  0  0  3  0  0  0  0  0  0
   16.8310   62.8520  -10.3870 C   0  0  0  0  0  0  0  0  0  0  0  0
   18.1480   61.5450  -10.0440 Br  0  0  0  0  0  0  0  0  0  0  0  0
   16.8650   64.1080   -9.8350 C   0  0  0  0  0  3  0  0  0  0  0  0
   15.8850   65.0420  -10.1140 C   0  0  0  0  0  3  0  0  0  0  0  0
   14.8240   64.7310  -10.9700 C   0  0  0  0  0  3  0  0  0  0  0  0
  1  2  2  0  0  0  0
  1 19  1  0  0  0  0
  3  1  1  0  0  0  0
  4  3  1  0  0  0  0
  5  6  1  0  0  0  0
  5  4  1  0  0  0  0
  6 15  1  6  0  0  0
  6 14  1  0  0  0  0
  7  8  1  0  0  0  0
  7  6  1  0  0  0  0
  8  9  1  0  0  0  0
  9 10  1  0  0  0  0
 10 11  1  0  0  0  0
 11 12  2  0  0  0  0
 13 18  1  0  0  0  0
 13 12  1  0  0  0  0
 14 10  2  0  0  0  0
 14 13  1  0  0  0  0
 16 15  1  0  0  0  0
 16  3  1  0  0  0  0
 17  7  1  0  0  0  0
 19 20  1  0  0  0  0
 20 21  1  0  0  0  0
 21 24  1  0  0  0  0
 22 21  2  0  0  0  0
 23 20  1  0  0  0  0
 24 25  2  0  0  0  0
 24 30  1  0  0  0  0
 25 26  1  0  0  0  0
 26 27  1  0  0  0  0
 26 28  2  0  0  0  0
 29 28  1  0  0  0  0
 30 29  2  0  0  0  0
M  END
>  <Pose>
1

>  <Score>
-7.346

$$$$
