MODEL 1
REMARK VINA RESULT:    -3.832      0.000      0.000
REMARK INTER + INTRA:          -6.315
REMARK INTER:                  -4.728
REMARK INTRA:                  -1.587
REMARK UNBOUND:                -1.587
REMARK  4 active torsions:
REMARK  status: ('A' for Active; 'I' for Inactive)
REMARK    1  A    between atoms: C_4  and  C_8 
REMARK    2  A    between atoms: C_8  and  N_9 
REMARK    3  A    between atoms: C_13  and  N_14 
REMARK       I    between atoms: N_17  and  C_20 
REMARK    4  A    between atoms: C_20  and  C_22 
ROOT
ATOM      1  N   UNK d   1      10.230  62.261 -16.716  0.00  0.00    -0.168 N 
ATOM      2  C   UNK d   1      10.301  60.917 -16.614  0.00  0.00     0.167 A 
ATOM      3  C   UNK d   1       9.084  60.486 -16.142  0.00  0.00     0.185 A 
ATOM      4  N   UNK d   1       8.328  61.553 -15.976  0.00  0.00    -0.044 NA
ATOM      5  C   UNK d   1       9.018  62.667 -16.327  0.00  0.00     0.707 A 
ATOM      6  N   UNK d   1       8.911  59.147 -15.956  0.00  0.00    -0.286 N 
ATOM      7  C   UNK d   1       9.885  58.268 -16.220  0.00  0.00     0.330 A 
ATOM      8  O   UNK d   1       9.674  57.038 -16.032  0.00  0.00    -0.246 OA
ATOM      9  N   UNK d   1      11.084  58.646 -16.680  0.00  0.00    -0.273 N 
ATOM     10  C   UNK d   1      11.286  59.971 -16.875  0.00  0.00     0.280 A 
ATOM     11  O   UNK d   1      12.404  60.329 -17.306  0.00  0.00    -0.265 OA
ATOM     12  C   UNK d   1       7.622  58.668 -15.461  0.00  0.00     0.163 C 
ATOM     13  H   UNK d   1      11.816  57.926 -16.873  0.00  0.00     0.173 HD
ENDROOT
BRANCH   5  14
ATOM     14  N   UNK d   1       8.468  63.993 -16.331  0.00  0.00    -0.212 N 
ATOM     15  C   UNK d   1       7.818  64.471 -15.094  0.00  0.00     0.161 C 
ATOM     16  C   UNK d   1       8.427  65.745 -14.603  0.00  0.00     0.146 C 
ATOM     17  N   UNK d   1       9.077  66.463 -15.675  0.00  0.00    -0.349 N 
ATOM     18  C   UNK d   1       8.501  66.346 -16.999  0.00  0.00     0.146 C 
ATOM     19  C   UNK d   1      10.229  67.256 -15.429  0.00  0.00     0.219 C 
ATOM     20  C   UNK d   1       8.507  64.889 -17.430  0.00  0.00     0.161 C 
ATOM     21  O   UNK d   1      10.692  67.357 -14.271  0.00  0.00    -0.273 OA
BRANCH  19  22
ATOM     22  C   UNK d   1      10.913  67.983 -16.525  0.00  0.00     0.098 C 
ATOM     23  C   UNK d   1      11.901  68.950 -15.878  0.00  0.00     0.014 C 
ENDBRANCH  19  22
ENDBRANCH   5  14
BRANCH   1  24
ATOM     24  C   UNK d   1      11.302  63.056 -17.224  0.00  0.00     0.186 C 
BRANCH  24  25
ATOM     25  C   UNK d   1      12.032  63.875 -16.228  0.00  0.00    -0.038 A 
ATOM     26  C   UNK d   1      12.934  64.833 -16.596  0.00  0.00     0.032 A 
ATOM     27  C   UNK d   1      13.610  65.528 -15.601  0.00  0.00     0.034 A 
ATOM     28 Cl   UNK d   1      14.764  66.760 -16.108  0.00  0.00    -0.084 Cl
ATOM     29  C   UNK d   1      13.417  65.300 -14.257  0.00  0.00     0.024 A 
ATOM     30  C   UNK d   1      12.501  64.325 -13.901  0.00  0.00     0.002 A 
ATOM     31  C   UNK d   1      11.821  63.627 -14.858  0.00  0.00     0.009 A 
ENDBRANCH  24  25
ENDBRANCH   1  24
TORSDOF 4
ENDMDL
