/Users/jonathanwahrer/Desktop/Msc/3_Semester/Drug_Design_Praktikum/waehrer_HTS_screening/HTS_experiment/out/docking_results/vina_output/3sx0/1612_docked.pdbqt
 OpenBabel03192222433D

 31 34  0  0  0  0  0  0  0  0999 V2000
   10.2300   62.2610  -16.7160 N   0  0  0  0  0  0  0  0  0  0  0  0
   10.3010   60.9170  -16.6140 C   0  0  0  0  0  0  0  0  0  0  0  0
    9.0840   60.4860  -16.1420 C   0  0  0  0  0  0  0  0  0  0  0  0
    8.3280   61.5530  -15.9760 N   0  0  0  0  0  0  0  0  0  0  0  0
    9.0180   62.6670  -16.3270 C   0  0  0  0  0  0  0  0  0  0  0  0
    8.9110   59.1470  -15.9560 N   0  0  0  0  0  0  0  0  0  0  0  0
    9.8850   58.2680  -16.2200 C   0  0  0  0  0  0  0  0  0  0  0  0
    9.6740   57.0380  -16.0320 O   0  0  0  0  0  0  0  0  0  0  0  0
   11.0840   58.6460  -16.6800 N   0  0  0  0  0  0  0  0  0  0  0  0
   11.2860   59.9710  -16.8750 C   0  0  0  0  0  0  0  0  0  0  0  0
   12.4040   60.3290  -17.3060 O   0  0  0  0  0  0  0  0  0  0  0  0
    7.6220   58.6680  -15.4610 C   0  0  0  0  0  1  0  0  0  0  0  0
   11.8160   57.9260  -16.8730 H   0  0  0  0  0  0  0  0  0  0  0  0
    8.4680   63.9930  -16.3310 N   0  0  0  0  0  0  0  0  0  0  0  0
    7.8180   64.4710  -15.0940 C   0  0  0  0  0  2  0  0  0  0  0  0
    8.4270   65.7450  -14.6030 C   0  0  0  0  0  2  0  0  0  0  0  0
    9.0770   66.4630  -15.6750 N   0  0  0  0  0  0  0  0  0  0  0  0
    8.5010   66.3460  -16.9990 C   0  0  0  0  0  2  0  0  0  0  0  0
   10.2290   67.2560  -15.4290 C   0  0  0  0  0  0  0  0  0  0  0  0
    8.5070   64.8890  -17.4300 C   0  0  0  0  0  2  0  0  0  0  0  0
   10.6920   67.3570  -14.2710 O   0  0  0  0  0  0  0  0  0  0  0  0
   10.9130   67.9830  -16.5250 C   0  0  0  0  0  2  0  0  0  0  0  0
   11.9010   68.9500  -15.8780 C   0  0  0  0  0  1  0  0  0  0  0  0
   11.3020   63.0560  -17.2240 C   0  0  0  0  0  2  0  0  0  0  0  0
   12.0320   63.8750  -16.2280 C   0  0  0  0  0  0  0  0  0  0  0  0
   12.9340   64.8330  -16.5960 C   0  0  0  0  0  3  0  0  0  0  0  0
   13.6100   65.5280  -15.6010 C   0  0  0  0  0  0  0  0  0  0  0  0
   14.7640   66.7600  -16.1080 Cl  0  0  0  0  0  0  0  0  0  0  0  0
   13.4170   65.3000  -14.2570 C   0  0  0  0  0  3  0  0  0  0  0  0
   12.5010   64.3250  -13.9010 C   0  0  0  0  0  3  0  0  0  0  0  0
   11.8210   63.6270  -14.8580 C   0  0  0  0  0  3  0  0  0  0  0  0
  1  2  1  0  0  0  0
  1  5  1  0  0  0  0
  2  3  2  0  0  0  0
  3  4  1  0  0  0  0
  3  6  1  0  0  0  0
  5  4  2  0  0  0  0
  6 12  1  0  0  0  0
  7  8  2  0  0  0  0
  7  6  1  0  0  0  0
  9  7  1  0  0  0  0
 10  9  1  0  0  0  0
 10  2  1  0  0  0  0
 11 10  2  0  0  0  0
 13  9  1  0  0  0  0
 14  5  1  0  0  0  0
 14 15  1  0  0  0  0
 15 16  1  0  0  0  0
 17 19  1  0  0  0  0
 17 16  1  0  0  0  0
 18 17  1  0  0  0  0
 19 21  2  0  0  0  0
 20 18  1  0  0  0  0
 20 14  1  0  0  0  0
 22 23  1  0  0  0  0
 22 19  1  0  0  0  0
 24  1  1  0  0  0  0
 24 25  1  0  0  0  0
 25 31  1  0  0  0  0
 26 25  2  0  0  0  0
 26 27  1  0  0  0  0
 27 29  2  0  0  0  0
 28 27  1  0  0  0  0
 29 30  1  0  0  0  0
 31 30  2  0  0  0  0
M  END
>  <Pose>
1

>  <Score>
-3.832

$$$$
