MODEL 1
REMARK VINA RESULT:    -4.832      0.000      0.000
REMARK INTER + INTRA:          -6.099
REMARK INTER:                  -5.397
REMARK INTRA:                  -0.702
REMARK UNBOUND:                -0.702
REMARK  2 active torsions:
REMARK  status: ('A' for Active; 'I' for Inactive)
REMARK    1  A    between atoms: C_3  and  C_13 
REMARK    2  A    between atoms: C_5  and  N_8 
REMARK       I    between atoms: C_13  and  N_15 
ROOT
ATOM      1  C   UNK d   1      10.858  63.941 -16.474  0.00  0.00     0.255 C 
ATOM      2  O   UNK d   1      11.382  63.897 -17.616  0.00  0.00    -0.267 OA
ATOM      3  N   UNK d   1       9.597  63.349 -16.193  0.00  0.00    -0.348 N 
ATOM      4  C   UNK d   1       8.895  62.670 -17.260  0.00  0.00     0.129 C 
ATOM      5  C   UNK d   1       8.010  61.624 -16.609  0.00  0.00     0.061 C 
ATOM      6  C   UNK d   1       8.659  61.014 -15.386  0.00  0.00     0.119 C 
ATOM      7  N   UNK d   1       7.842  59.892 -14.984  0.00  0.00    -0.324 N 
ATOM      8  C   UNK d   1       8.266  58.749 -15.712  0.00  0.00     0.325 C 
ATOM      9  O   UNK d   1       7.623  57.673 -15.925  0.00  0.00    -0.247 OA
ATOM     10  N   UNK d   1       9.588  59.046 -16.173  0.00  0.00    -0.272 N 
ATOM     11  C   UNK d   1       9.946  60.353 -15.722  0.00  0.00     0.256 C 
ATOM     12  O   UNK d   1      11.119  60.808 -15.644  0.00  0.00    -0.270 OA
ATOM     13  C   UNK d   1      10.467  58.190 -16.972  0.00  0.00     0.164 C 
ATOM     14  C   UNK d   1       8.846  62.015 -14.284  0.00  0.00     0.061 C 
ATOM     15  C   UNK d   1       8.962  63.378 -14.895  0.00  0.00     0.129 C 
ATOM     16  H   UNK d   1       7.081  59.939 -14.282  0.00  0.00     0.165 HD
ENDROOT
BRANCH   1  17
ATOM     17  C   UNK d   1      11.625  64.645 -15.441  0.00  0.00     0.056 A 
ATOM     18  C   UNK d   1      11.629  66.021 -15.390  0.00  0.00     0.050 A 
ATOM     19 Cl   UNK d   1      10.693  66.918 -16.594  0.00  0.00    -0.083 Cl
ATOM     20  C   UNK d   1      12.342  66.710 -14.430  0.00  0.00     0.027 A 
ATOM     21  C   UNK d   1      13.053  65.965 -13.519  0.00  0.00     0.033 A 
ATOM     22  C   UNK d   1      13.077  64.580 -13.531  0.00  0.00     0.059 A 
ATOM     23  C   UNK d   1      12.350  63.935 -14.509  0.00  0.00     0.050 A 
BRANCH  22  24
ATOM     24  N   UNK d   1      13.835  63.867 -12.556  0.00  0.00    -0.245 N 
ATOM     25  N   UNK d   1      13.768  62.598 -12.235  0.00  0.00    -0.180 NA
ATOM     26  C   UNK d   1      14.672  62.326 -11.249  0.00  0.00     0.140 A 
ATOM     27  C   UNK d   1      15.335  63.494 -10.945  0.00  0.00     0.040 A 
ATOM     28  C   UNK d   1      14.777  64.452 -11.796  0.00  0.00     0.120 A 
ENDBRANCH  22  24
ENDBRANCH   1  17
TORSDOF 2
ENDMDL
