/Users/jonathanwahrer/Desktop/Msc/3_Semester/Drug_Design_Praktikum/waehrer_HTS_screening/HTS_experiment/out/docking_results/vina_output/3sx0/1622_docked.pdbqt
 OpenBabel03192222433D

 28 31  0  0  1  0  0  0  0  0999 V2000
   10.8580   63.9410  -16.4740 C   0  0  0  0  0  0  0  0  0  0  0  0
   11.3820   63.8970  -17.6160 O   0  0  0  0  0  0  0  0  0  0  0  0
    9.5970   63.3490  -16.1930 N   0  0  0  0  0  0  0  0  0  0  0  0
    8.8950   62.6700  -17.2600 C   0  0  0  0  0  2  0  0  0  0  0  0
    8.0100   61.6240  -16.6090 C   0  0  0  0  0  2  0  0  0  0  0  0
    8.6590   61.0140  -15.3860 C   0  0  1  0  0  0  0  0  0  0  0  0
    7.8420   59.8920  -14.9840 N   0  0  0  0  0  0  0  0  0  0  0  0
    8.2660   58.7490  -15.7120 C   0  0  0  0  0  0  0  0  0  0  0  0
    7.6230   57.6730  -15.9250 O   0  0  0  0  0  0  0  0  0  0  0  0
    9.5880   59.0460  -16.1730 N   0  0  0  0  0  0  0  0  0  0  0  0
    9.9460   60.3530  -15.7220 C   0  0  0  0  0  0  0  0  0  0  0  0
   11.1190   60.8080  -15.6440 O   0  0  0  0  0  0  0  0  0  0  0  0
   10.4670   58.1900  -16.9720 C   0  0  0  0  0  1  0  0  0  0  0  0
    8.8460   62.0150  -14.2840 C   0  0  0  0  0  2  0  0  0  0  0  0
    8.9620   63.3780  -14.8950 C   0  0  0  0  0  2  0  0  0  0  0  0
    7.0810   59.9390  -14.2820 H   0  0  0  0  0  0  0  0  0  0  0  0
   11.6250   64.6450  -15.4410 C   0  0  0  0  0  0  0  0  0  0  0  0
   11.6290   66.0210  -15.3900 C   0  0  0  0  0  0  0  0  0  0  0  0
   10.6930   66.9180  -16.5940 Cl  0  0  0  0  0  0  0  0  0  0  0  0
   12.3420   66.7100  -14.4300 C   0  0  0  0  0  3  0  0  0  0  0  0
   13.0530   65.9650  -13.5190 C   0  0  0  0  0  3  0  0  0  0  0  0
   13.0770   64.5800  -13.5310 C   0  0  0  0  0  0  0  0  0  0  0  0
   12.3500   63.9350  -14.5090 C   0  0  0  0  0  3  0  0  0  0  0  0
   13.8350   63.8670  -12.5560 N   0  0  0  0  0  0  0  0  0  0  0  0
   13.7680   62.5980  -12.2350 N   0  0  0  0  0  0  0  0  0  0  0  0
   14.6720   62.3260  -11.2490 C   0  0  0  0  0  3  0  0  0  0  0  0
   15.3350   63.4940  -10.9450 C   0  0  0  0  0  3  0  0  0  0  0  0
   14.7770   64.4520  -11.7960 C   0  0  0  0  0  3  0  0  0  0  0  0
  1  3  1  0  0  0  0
  1 17  1  0  0  0  0
  2  1  2  0  0  0  0
  3 15  1  0  0  0  0
  4  5  1  0  0  0  0
  4  3  1  0  0  0  0
  6  5  1  6  0  0  0
  6  7  1  0  0  0  0
  6 14  1  0  0  0  0
  7 16  1  0  0  0  0
  8  7  1  0  0  0  0
  9  8  2  0  0  0  0
 10 11  1  0  0  0  0
 10  8  1  0  0  0  0
 11 12  2  0  0  0  0
 11  6  1  0  0  0  0
 13 10  1  0  0  0  0
 15 14  1  0  0  0  0
 17 18  2  0  0  0  0
 17 23  1  0  0  0  0
 18 20  1  0  0  0  0
 19 18  1  0  0  0  0
 20 21  2  0  0  0  0
 22 21  1  0  0  0  0
 22 24  1  0  0  0  0
 23 22  2  0  0  0  0
 24 25  1  0  0  0  0
 24 28  1  0  0  0  0
 25 26  2  0  0  0  0
 26 27  1  0  0  0  0
 28 27  2  0  0  0  0
M  END
>  <Pose>
1

>  <Score>
-4.832

$$$$
