/Users/jonathanwahrer/Desktop/Msc/3_Semester/Drug_Design_Praktikum/waehrer_HTS_screening/HTS_experiment/out/docking_results/vina_output/3sx0/1624_docked.pdbqt
 OpenBabel03192222433D

 32 35  0  0  1  0  0  0  0  0999 V2000
   21.7550   62.7190   -9.3740 C   0  0  1  0  0  3  0  0  0  0  0  0
   22.1330   63.6750   -8.3180 N   0  0  0  0  0  0  0  0  0  0  0  0
   21.3890   64.8710   -8.5140 C   0  0  0  0  0  0  0  0  0  0  0  0
   21.6570   65.9970   -8.0890 O   0  0  0  0  0  0  0  0  0  0  0  0
   20.2110   64.5230   -9.3330 C   0  0  0  0  0  0  0  0  0  0  0  0
   19.2880   65.2980   -9.7430 O   0  0  0  0  0  0  0  0  0  0  0  0
   20.3180   63.0960   -9.5860 C   0  0  0  0  0  0  0  0  0  0  0  0
   19.3180   62.3370   -9.9600 C   0  0  0  0  0  0  0  0  0  0  0  0
   19.5760   60.9930  -10.2110 O   0  0  0  0  0  1  0  0  0  0  0  0
   23.0980   63.3330   -7.3050 C   0  0  0  0  0  3  0  0  0  0  0  0
   23.0700   64.1620   -6.0780 C   0  0  0  0  0  3  0  0  0  0  0  0
   24.1820   64.1260   -5.2020 N   0  0  0  0  0  4  0  0  0  0  0  0
   25.2700   63.2890   -5.6620 C   0  0  0  0  0  2  0  0  0  0  0  0
   25.6770   62.2240   -4.6730 C   0  0  0  0  0  2  0  0  0  0  0  0
   25.8700   62.6720   -3.3920 O   0  0  0  0  0  0  0  0  0  0  0  0
   24.8580   63.4930   -2.9330 C   0  0  0  0  0  2  0  0  0  0  0  0
   23.7410   63.5100   -3.9320 C   0  0  0  0  0  2  0  0  0  0  0  0
   24.5160   65.0610   -4.9180 H   0  0  0  0  0  0  0  0  0  0  0  0
   22.5810   62.9370  -10.5550 C   0  0  0  0  0  0  0  0  0  0  0  0
   23.9390   62.9480  -10.5180 C   0  0  0  0  0  3  0  0  0  0  0  0
   24.7300   63.1480  -11.6400 C   0  0  0  0  0  3  0  0  0  0  0  0
   24.1330   63.3460  -12.8500 C   0  0  0  0  0  0  0  0  0  0  0  0
   25.0680   63.6010  -14.2970 Cl  0  0  0  0  0  0  0  0  0  0  0  0
   22.7380   63.3400  -12.9220 C   0  0  0  0  0  3  0  0  0  0  0  0
   21.9750   63.1400  -11.7940 C   0  0  0  0  0  3  0  0  0  0  0  0
   17.9360   62.7700  -10.1370 C   0  0  0  0  0  0  0  0  0  0  0  0
   17.0570   61.8210  -10.6470 C   0  0  0  0  0  3  0  0  0  0  0  0
   15.7410   62.1480  -10.8160 C   0  0  0  0  0  3  0  0  0  0  0  0
   15.2660   63.4040  -10.4900 C   0  0  0  0  0  0  0  0  0  0  0  0
   16.1420   64.3410   -9.9850 C   0  0  0  0  0  3  0  0  0  0  0  0
   13.5890   63.7730  -10.7220 Cl  0  0  0  0  0  0  0  0  0  0  0  0
   17.4690   63.9990   -9.8180 C   0  0  0  0  0  3  0  0  0  0  0  0
  1 19  1  6  0  0  0
  1  2  1  0  0  0  0
  2 10  1  0  0  0  0
  3  2  1  0  0  0  0
  3  4  2  0  0  0  0
  5  3  1  0  0  0  0
  6  5  2  0  0  0  0
  7  1  1  0  0  0  0
  7  5  1  0  0  0  0
  8  7  2  0  0  0  0
  9  8  1  0  0  0  0
 10 11  2  0  0  0  0
 11 12  1  0  0  0  0
 12 18  1  0  0  0  0
 12 17  1  0  0  0  0
 13 12  1  0  0  0  0
 13 14  1  0  0  0  0
 14 15  1  0  0  0  0
 15 16  1  0  0  0  0
 17 16  1  0  0  0  0
 19 20  1  0  0  0  0
 21 20  2  0  0  0  0
 22 21  1  0  0  0  0
 23 22  1  0  0  0  0
 24 22  2  0  0  0  0
 24 25  1  0  0  0  0
 25 19  2  0  0  0  0
 26  8  1  0  0  0  0
 26 32  1  0  0  0  0
 27 26  2  0  0  0  0
 28 27  1  0  0  0  0
 28 29  2  0  0  0  0
 29 30  1  0  0  0  0
 30 32  2  0  0  0  0
 31 29  1  0  0  0  0
M  END
>  <Pose>
1

>  <Score>
-8.263

$$$$
