MODEL 1
REMARK VINA RESULT:    -4.124      0.000      0.000
REMARK INTER + INTRA:          -5.895
REMARK INTER:                  -5.571
REMARK INTRA:                  -0.324
REMARK UNBOUND:                -0.324
REMARK  6 active torsions:
REMARK  status: ('A' for Active; 'I' for Inactive)
REMARK    1  A    between atoms: C_10  and  C_27 
REMARK    2  A    between atoms: N_15  and  C_18 
REMARK    3  A    between atoms: C_18  and  C_19 
REMARK    4  A    between atoms: C_20  and  O_25 
REMARK    5  A    between atoms: C_27  and  C_28 
REMARK    6  A    between atoms: C_28  and  C_29 
REMARK       I    between atoms: C_29  and  N_31 
ROOT
ATOM      1 Cl   UNK d   1      27.779  61.780  -4.443  0.00  0.00    -0.084 Cl
ATOM      2  C   UNK d   1      26.264  62.585  -4.879  0.00  0.00     0.042 A 
ATOM      3  C   UNK d   1      25.151  62.430  -4.089  0.00  0.00    -0.013 A 
ATOM      4  C   UNK d   1      23.961  63.061  -4.427  0.00  0.00     0.051 A 
ATOM      5  C   UNK d   1      23.821  63.853  -5.534  0.00  0.00     0.018 A 
ATOM      6  C   UNK d   1      24.974  63.995  -6.322  0.00  0.00     0.014 A 
ATOM      7  C   UNK d   1      26.159  63.373  -5.995  0.00  0.00     0.025 A 
ATOM      8  C   UNK d   1      22.458  64.357  -5.601  0.00  0.00     0.279 A 
ATOM      9  N   UNK d   1      22.513  65.812  -5.491  0.00  0.00     0.113 N 
ATOM     10  C   UNK d   1      22.293  66.249  -6.843  0.00  0.00     0.237 C 
ATOM     11  C   UNK d   1      21.160  65.349  -7.282  0.00  0.00     0.128 C 
ATOM     12  C   UNK d   1      21.689  64.006  -6.826  0.00  0.00     0.147 C 
ATOM     13  C   UNK d   1      22.434  63.503  -7.962  0.00  0.00     0.235 C 
ATOM     14  O   UNK d   1      23.265  62.568  -7.958  0.00  0.00    -0.272 OA
ATOM     15  N   UNK d   1      22.077  64.246  -9.119  0.00  0.00    -0.283 N 
ATOM     16  C   UNK d   1      21.101  65.226  -8.761  0.00  0.00     0.234 C 
ATOM     17  O   UNK d   1      20.322  65.886  -9.489  0.00  0.00    -0.272 OA
ATOM     18  C   UNK d   1      21.781  63.793  -4.409  0.00  0.00     0.267 A 
ATOM     19  O   UNK d   1      20.580  63.964  -4.045  0.00  0.00    -0.270 OA
ATOM     20  N   UNK d   1      22.728  63.006  -3.721  0.00  0.00    -0.323 N 
ATOM     21  C   UNK d   1      25.253  61.576  -2.873  0.00  0.00     0.052 C 
ATOM     22  H   UNK d   1      23.429  66.099  -5.086  0.00  0.00     0.318 HD
ATOM     23  H   UNK d   1      22.534  62.473  -2.831  0.00  0.00     0.169 HD
ENDROOT
BRANCH  10  24
ATOM     24  C   UNK d   1      21.911  67.711  -6.897  0.00  0.00     0.045 C 
BRANCH  24  25
ATOM     25  C   UNK d   1      23.191  68.503  -6.730  0.00  0.00     0.105 C 
BRANCH  25  26
ATOM     26  C   UNK d   1      23.025  69.623  -5.771  0.00  0.00     0.215 C 
ATOM     27  O   UNK d   1      21.872  70.097  -5.565  0.00  0.00    -0.274 OA
ATOM     28  N   UNK d   1      24.195  70.108  -5.127  0.00  0.00    -0.370 N 
ATOM     29  H   UNK d   1      24.923  69.426  -4.856  0.00  0.00     0.159 HD
ATOM     30  H   UNK d   1      24.252  71.144  -4.959  0.00  0.00     0.159 HD
ENDBRANCH  25  26
ENDBRANCH  24  25
ENDBRANCH  10  24
BRANCH  15  31
ATOM     31  C   UNK d   1      22.565  64.103 -10.478  0.00  0.00     0.176 C 
BRANCH  31  32
ATOM     32  C   UNK d   1      21.587  63.432 -11.353  0.00  0.00    -0.006 A 
ATOM     33  C   UNK d   1      21.994  63.077 -12.622  0.00  0.00     0.076 A 
ATOM     34  C   UNK d   1      21.069  62.445 -13.441  0.00  0.00     0.037 A 
ATOM     35  C   UNK d   1      19.798  62.180 -13.014  0.00  0.00     0.003 A 
ATOM     36  C   UNK d   1      19.431  62.549 -11.741  0.00  0.00     0.001 A 
ATOM     37  C   UNK d   1      20.303  63.179 -10.881  0.00  0.00     0.011 A 
BRANCH  33  38
ATOM     38  O   UNK d   1      23.282  63.354 -13.031  0.00  0.00    -0.355 OA
ATOM     39  C   UNK d   1      23.645  63.728 -14.322  0.00  0.00     0.210 C 
ENDBRANCH  33  38
ENDBRANCH  31  32
ENDBRANCH  15  31
TORSDOF 6
ENDMDL
