MODEL 1
REMARK VINA RESULT:    -6.359      0.000      0.000
REMARK INTER + INTRA:          -8.002
REMARK INTER:                  -7.474
REMARK INTRA:                  -0.528
REMARK UNBOUND:                -0.528
REMARK  3 active torsions:
REMARK  status: ('A' for Active; 'I' for Inactive)
REMARK    1  A    between atoms: C_4  and  C_8 
REMARK    2  A    between atoms: N_9  and  C_23 
REMARK    3  A    between atoms: C_15  and  C_17 
ROOT
ATOM      1  C   UNK d   1      12.260  64.045 -14.648  0.00  0.00     0.185 C 
ATOM      2  N   UNK d   1      10.986  63.398 -14.776  0.00  0.00    -0.128 N 
ATOM      3  C   UNK d   1       9.952  64.216 -14.239  0.00  0.00     0.314 C 
ATOM      4  O   UNK d   1       8.775  63.866 -13.933  0.00  0.00    -0.263 OA
ATOM      5  C   UNK d   1      10.495  65.583 -14.091  0.00  0.00     0.251 C 
ATOM      6  O   UNK d   1       9.861  66.565 -13.643  0.00  0.00    -0.282 OA
ATOM      7  C   UNK d   1      11.869  65.495 -14.568  0.00  0.00     0.063 C 
ATOM      8  C   UNK d   1      12.620  66.542 -14.836  0.00  0.00     0.130 C 
ATOM      9  O   UNK d   1      13.947  66.290 -15.240  0.00  0.00    -0.190 OA
ENDROOT
BRANCH   1  10
ATOM     10  C   UNK d   1      13.034  63.616 -13.456  0.00  0.00    -0.028 A 
ATOM     11  C   UNK d   1      13.746  64.525 -12.683  0.00  0.00     0.033 A 
ATOM     12  C   UNK d   1      14.474  64.170 -11.572  0.00  0.00     0.034 A 
ATOM     13 Cl   UNK d   1      15.356  65.343 -10.619  0.00  0.00    -0.084 Cl
ATOM     14  C   UNK d   1      14.492  62.840 -11.213  0.00  0.00     0.024 A 
ATOM     15  C   UNK d   1      13.801  61.901 -11.950  0.00  0.00     0.002 A 
ATOM     16  C   UNK d   1      13.080  62.284 -13.059  0.00  0.00     0.010 A 
ENDBRANCH   1  10
BRANCH   8  17
ATOM     17  C   UNK d   1      12.169  67.924 -14.747  0.00  0.00     0.001 A 
ATOM     18  C   UNK d   1      11.617  68.545 -15.877  0.00  0.00     0.014 A 
ATOM     19  C   UNK d   1      11.156  69.842 -15.815  0.00  0.00     0.001 A 
ATOM     20  C   UNK d   1      11.210  70.588 -14.657  0.00  0.00     0.000 A 
ATOM     21  C   UNK d   1      11.748  69.997 -13.536  0.00  0.00     0.001 A 
ATOM     22  C   UNK d   1      12.215  68.683 -13.601  0.00  0.00     0.014 A 
ENDBRANCH   8  17
BRANCH   2  23
ATOM     23  C   UNK d   1      10.769  62.126 -15.349  0.00  0.00     0.710 A 
ATOM     24  N   UNK d   1       9.795  61.373 -14.772  0.00  0.00    -0.200 N 
ATOM     25  C   UNK d   1       9.493  60.155 -15.220  0.00  0.00     0.107 A 
ATOM     26  H   UNK d   1       9.247  61.741 -13.947  0.00  0.00     0.183 HD
ATOM     27  C   UNK d   1      10.197  59.667 -16.297  0.00  0.00     0.037 A 
ATOM     28  C   UNK d   1      11.179  60.449 -16.867  0.00  0.00     0.138 A 
ATOM     29  N   UNK d   1      11.479  61.677 -16.407  0.00  0.00    -0.077 NA
ENDBRANCH   2  23
TORSDOF 3
ENDMDL
