/Users/jonathanwahrer/Desktop/Msc/3_Semester/Drug_Design_Praktikum/waehrer_HTS_screening/HTS_experiment/out/docking_results/vina_output/3sx0/1631_docked.pdbqt
 OpenBabel03192222443D

 29 32  0  0  1  0  0  0  0  0999 V2000
   12.2600   64.0450  -14.6480 C   0  0  1  0  0  3  0  0  0  0  0  0
   10.9860   63.3980  -14.7760 N   0  0  0  0  0  0  0  0  0  0  0  0
    9.9520   64.2160  -14.2390 C   0  0  0  0  0  0  0  0  0  0  0  0
    8.7750   63.8660  -13.9330 O   0  0  0  0  0  0  0  0  0  0  0  0
   10.4950   65.5830  -14.0910 C   0  0  0  0  0  0  0  0  0  0  0  0
    9.8610   66.5650  -13.6430 O   0  0  0  0  0  0  0  0  0  0  0  0
   11.8690   65.4950  -14.5680 C   0  0  0  0  0  0  0  0  0  0  0  0
   12.6200   66.5420  -14.8360 C   0  0  0  0  0  0  0  0  0  0  0  0
   13.9470   66.2900  -15.2400 O   0  0  0  0  0  1  0  0  0  0  0  0
   13.0340   63.6160  -13.4560 C   0  0  0  0  0  0  0  0  0  0  0  0
   13.7460   64.5250  -12.6830 C   0  0  0  0  0  3  0  0  0  0  0  0
   14.4740   64.1700  -11.5720 C   0  0  0  0  0  0  0  0  0  0  0  0
   15.3560   65.3430  -10.6190 Cl  0  0  0  0  0  0  0  0  0  0  0  0
   14.4920   62.8400  -11.2130 C   0  0  0  0  0  3  0  0  0  0  0  0
   13.8010   61.9010  -11.9500 C   0  0  0  0  0  3  0  0  0  0  0  0
   13.0800   62.2840  -13.0590 C   0  0  0  0  0  3  0  0  0  0  0  0
   12.1690   67.9240  -14.7470 C   0  0  0  0  0  0  0  0  0  0  0  0
   11.6170   68.5450  -15.8770 C   0  0  0  0  0  3  0  0  0  0  0  0
   11.1560   69.8420  -15.8150 C   0  0  0  0  0  3  0  0  0  0  0  0
   11.2100   70.5880  -14.6570 C   0  0  0  0  0  3  0  0  0  0  0  0
   11.7480   69.9970  -13.5360 C   0  0  0  0  0  3  0  0  0  0  0  0
   12.2150   68.6830  -13.6010 C   0  0  0  0  0  3  0  0  0  0  0  0
   10.7690   62.1260  -15.3490 C   0  0  1  0  0  3  0  0  0  0  0  0
    9.7950   61.3730  -14.7720 N   0  0  0  0  0  0  0  0  0  0  0  0
    9.4930   60.1550  -15.2200 C   0  0  0  0  0  3  0  0  0  0  0  0
    9.2470   61.7410  -13.9470 H   0  0  0  0  0  0  0  0  0  0  0  0
   10.1970   59.6670  -16.2970 C   0  0  0  0  0  3  0  0  0  0  0  0
   11.1790   60.4490  -16.8670 C   0  0  0  0  0  3  0  0  0  0  0  0
   11.4790   61.6770  -16.4070 N   0  0  0  0  0  0  0  0  0  0  0  0
  1  7  1  0  0  0  0
  1 10  1  1  0  0  0
  2  1  1  0  0  0  0
  2  3  1  0  0  0  0
  3  5  1  0  0  0  0
  3  4  2  0  0  0  0
  5  6  2  0  0  0  0
  7  5  1  0  0  0  0
  8 17  1  0  0  0  0
  8  7  2  0  0  0  0
  9  8  1  0  0  0  0
 10 16  2  0  0  0  0
 10 11  1  0  0  0  0
 11 12  2  0  0  0  0
 12 14  1  0  0  0  0
 12 13  1  0  0  0  0
 15 14  2  0  0  0  0
 16 15  1  0  0  0  0
 17 22  1  0  0  0  0
 18 19  1  0  0  0  0
 18 17  2  0  0  0  0
 19 20  2  0  0  0  0
 20 21  1  0  0  0  0
 22 21  2  0  0  0  0
 23  2  1  6  0  0  0
 23 24  1  0  0  0  0
 24 26  1  0  0  0  0
 25 24  1  0  0  0  0
 27 25  2  0  0  0  0
 28 29  2  0  0  0  0
 28 27  1  0  0  0  0
 29 23  1  0  0  0  0
M  END
>  <Pose>
1

>  <Score>
-6.359

$$$$
