MODEL 1
REMARK VINA RESULT:    -7.279      0.000      0.000
REMARK INTER + INTRA:          -8.776
REMARK INTER:                  -8.768
REMARK INTRA:                  -0.007
REMARK UNBOUND:                -0.007
REMARK  4 active torsions:
REMARK  status: ('A' for Active; 'I' for Inactive)
REMARK    1  A    between atoms: S_1  and  C_5 
REMARK    2  A    between atoms: C_9  and  O_11 
REMARK    3  A    between atoms: N_13  and  C_16 
REMARK    4  A    between atoms: C_16  and  C_17 
ROOT
ATOM      1  C   UNK d   1      23.258  64.027  -6.182  0.00  0.00     0.249 A 
ATOM      2  N   UNK d   1      23.416  63.390  -7.348  0.00  0.00    -0.223 NA
ATOM      3  C   UNK d   1      22.853  63.768  -8.492  0.00  0.00     0.051 A 
ATOM      4  C   UNK d   1      22.035  64.908  -8.455  0.00  0.00     0.048 A 
ATOM      5  C   UNK d   1      21.879  65.547  -7.277  0.00  0.00     0.175 A 
ATOM      6  N   UNK d   1      22.495  65.105  -6.145  0.00  0.00    -0.194 NA
ATOM      7  C   UNK d   1      21.327  65.201  -9.704  0.00  0.00     0.318 C 
ATOM      8  N   UNK d   1      20.705  63.972 -10.091  0.00  0.00     0.097 N 
ATOM      9  C   UNK d   1      21.859  63.202 -10.734  0.00  0.00     0.279 C 
ATOM     10  C   UNK d   1      23.002  63.062  -9.791  0.00  0.00     0.090 C 
ENDROOT
BRANCH   8  11
ATOM     11  C   UNK d   1      20.342  63.012  -8.986  0.00  0.00     0.319 C 
BRANCH  11  12
ATOM     12  C   UNK d   1      18.968  62.569  -9.496  0.00  0.00     0.068 A 
ATOM     13  C   UNK d   1      17.961  63.382  -9.847  0.00  0.00     0.061 A 
ATOM     14  C   UNK d   1      16.701  62.925 -10.319  0.00  0.00     0.020 A 
ATOM     15 Cl   UNK d   1      18.228  65.091  -9.779  0.00  0.00    -0.083 Cl
ATOM     16  C   UNK d   1      16.584  61.535 -10.399  0.00  0.00     0.091 A 
ATOM     17  C   UNK d   1      15.657  63.707 -10.682  0.00  0.00     0.016 A 
ATOM     18  C   UNK d   1      15.395  61.037 -10.846  0.00  0.00     0.038 A 
ATOM     19  O   UNK d   1      17.549  60.746 -10.075  0.00  0.00    -0.274 OA
ATOM     20  C   UNK d   1      14.291  61.833 -11.226  0.00  0.00     0.003 A 
ATOM     21  C   UNK d   1      14.460  63.227 -11.133  0.00  0.00     0.001 A 
ATOM     22  C   UNK d   1      18.729  61.203  -9.629  0.00  0.00     0.298 A 
ATOM     23  O   UNK d   1      19.683  60.399  -9.297  0.00  0.00    -0.259 OA
ENDBRANCH  11  12
ENDBRANCH   8  11
BRANCH   5  24
ATOM     24  O   UNK d   1      21.082  66.681  -7.241  0.00  0.00    -0.344 OA
ATOM     25  H   UNK d   1      20.061  66.660  -7.147  0.00  0.00     0.219 HD
ENDBRANCH   5  24
BRANCH   1  26
ATOM     26  S   UNK d   1      24.001  63.327  -4.732  0.00  0.00     0.207 S 
ATOM     27  O   UNK d   1      23.135  62.374  -4.074  0.00  0.00    -0.220 OA
ATOM     28  O   UNK d   1      24.354  64.477  -3.838  0.00  0.00    -0.220 OA
ATOM     29  C   UNK d   1      25.555  62.592  -5.299  0.00  0.00     0.170 C 
ENDBRANCH   1  26
TORSDOF 4
ENDMDL
