/Users/jonathanwahrer/Desktop/Msc/3_Semester/Drug_Design_Praktikum/waehrer_HTS_screening/HTS_experiment/out/docking_results/vina_output/3sx0/1638_docked.pdbqt
 OpenBabel03192222443D

 38 41  0  0  1  0  0  0  0  0999 V2000
   16.2060   63.2250  -11.0850 C   0  0  0  0  0  0  0  0  0  0  0  0
   14.9700   62.6480  -11.3460 C   0  0  0  0  0  0  0  0  0  0  0  0
   14.0350   63.3450  -12.0460 N   0  0  0  0  0  0  0  0  0  0  0  0
   14.2500   64.5860  -12.5050 C   0  0  0  0  0  0  0  0  0  0  0  0
   15.4430   65.1510  -12.2540 N   0  0  0  0  0  0  0  0  0  0  0  0
   16.3990   64.5010  -11.5680 C   0  0  0  0  0  3  0  0  0  0  0  0
   13.2700   65.3140  -13.2420 N   0  0  0  0  0  0  0  0  0  0  0  0
   13.6160   66.1410  -14.3720 C   0  0  0  0  0  2  0  0  0  0  0  0
   12.8610   65.8160  -15.6310 C   0  0  0  0  0  2  0  0  0  0  0  0
   11.5270   65.1470  -15.3450 C   0  0  2  0  0  0  0  0  0  0  0  0
   11.0750   65.7970  -14.0260 C   0  0  0  0  0  2  0  0  0  0  0  0
   11.8650   65.2570  -12.8810 C   0  0  0  0  0  2  0  0  0  0  0  0
   11.5790   63.7740  -15.1770 N   0  0  0  0  0  0  0  0  0  0  0  0
   12.4830   62.9660  -15.8970 C   0  0  0  0  0  2  0  0  0  0  0  0
   12.8610   61.7840  -14.9880 C   0  0  0  0  0  2  0  0  0  0  0  0
   11.7540   61.5990  -13.9860 C   0  0  0  0  0  2  0  0  0  0  0  0
   10.3870   61.7980  -14.5910 C   0  0  0  0  0  2  0  0  0  0  0  0
   10.2880   63.1500  -15.2790 C   0  0  0  0  0  2  0  0  0  0  0  0
   10.5620   65.6080  -16.3690 C   0  0  0  0  0  0  0  0  0  0  0  0
   10.8030   65.4450  -17.6130 O   0  0  0  0  0  0  0  0  0  0  0  0
    9.3510   66.2370  -16.0600 N   0  0  0  0  0  0  0  0  0  0  0  0
    9.2770   67.2800  -16.2130 H   0  0  0  0  0  0  0  0  0  0  0  0
    8.4900   65.7840  -15.6940 H   0  0  0  0  0  0  0  0  0  0  0  0
   14.7510   61.3450  -10.8640 N   0  0  0  0  0  0  0  0  0  0  0  0
   14.4720   60.5450  -11.4680 H   0  0  0  0  0  0  0  0  0  0  0  0
   14.8690   61.1550   -9.8470 H   0  0  0  0  0  0  0  0  0  0  0  0
   17.4420   62.3660  -10.1900 S   0  0  0  0  0  0  0  0  0  0  0  0
   17.5280   62.8350   -8.7740 O   0  0  0  0  0  0  0  0  0  0  0  0
   17.1230   60.8950  -10.2770 O   0  0  0  0  0  0  0  0  0  0  0  0
   18.9850   62.6280  -11.0180 C   0  0  0  0  0  0  0  0  0  0  0  0
   20.0700   63.1140  -10.3180 C   0  0  0  0  0  0  0  0  0  0  0  0
   21.2520   63.3030  -11.0030 C   0  0  0  0  0  3  0  0  0  0  0  0
   21.3620   63.0160  -12.3600 C   0  0  0  0  0  3  0  0  0  0  0  0
   20.2560   62.5320  -13.0240 C   0  0  0  0  0  0  0  0  0  0  0  0
   19.0600   62.3330  -12.3660 C   0  0  0  0  0  3  0  0  0  0  0  0
   20.3790   62.1620  -14.7490 Cl  0  0  0  0  0  0  0  0  0  0  0  0
   19.9230   63.3850   -8.9860 O   0  0  0  0  0  0  0  0  0  0  0  0
   20.9580   63.7300   -8.1080 C   0  0  0  0  0  1  0  0  0  0  0  0
  1 27  1  0  0  0  0
  2  1  2  0  0  0  0
  2 24  1  0  0  0  0
  3  2  1  0  0  0  0
  4  5  1  0  0  0  0
  4  3  2  0  0  0  0
  5  6  2  0  0  0  0
  6  1  1  0  0  0  0
  7 12  1  0  0  0  0
  7  4  1  0  0  0  0
  8  7  1  0  0  0  0
  9 10  1  0  0  0  0
  9  8  1  0  0  0  0
 10 19  1  6  0  0  0
 10 13  1  0  0  0  0
 10 11  1  0  0  0  0
 11 12  1  0  0  0  0
 14 13  1  0  0  0  0
 14 15  1  0  0  0  0
 15 16  1  0  0  0  0
 17 16  1  0  0  0  0
 18 13  1  0  0  0  0
 18 17  1  0  0  0  0
 19 21  1  0  0  0  0
 20 19  2  0  0  0  0
 21 23  1  0  0  0  0
 22 21  1  0  0  0  0
 24 26  1  0  0  0  0
 25 24  1  0  0  0  0
 27 28  2  0  0  0  0
 29 27  2  0  0  0  0
 30 31  1  0  0  0  0
 30 27  1  0  0  0  0
 31 37  1  0  0  0  0
 32 31  2  0  0  0  0
 33 32  1  0  0  0  0
 34 35  1  0  0  0  0
 34 33  2  0  0  0  0
 35 30  2  0  0  0  0
 36 34  1  0  0  0  0
 37 38  1  0  0  0  0
M  END
>  <Pose>
1

>  <Score>
-4.495

$$$$
