MODEL 1
REMARK VINA RESULT:    -4.495      0.000      0.000
REMARK INTER + INTRA:          -6.646
REMARK INTER:                  -6.203
REMARK INTRA:                  -0.443
REMARK UNBOUND:                -0.443
REMARK  7 active torsions:
REMARK  status: ('A' for Active; 'I' for Inactive)
REMARK    1  A    between atoms: S_1  and  C_4 
REMARK    2  A    between atoms: S_1  and  C_26 
REMARK    3  A    between atoms: C_5  and  N_25 
REMARK    4  A    between atoms: C_7  and  N_10 
REMARK    5  A    between atoms: C_13  and  N_16 
REMARK    6  A    between atoms: C_13  and  C_22 
REMARK       I    between atoms: C_22  and  N_24 
REMARK    7  A    between atoms: C_27  and  O_33 
ROOT
ATOM      1  C   UNK d   1      16.206  63.225 -11.085  0.00  0.00     0.128 A 
ATOM      2  C   UNK d   1      14.970  62.648 -11.346  0.00  0.00     0.164 A 
ATOM      3  N   UNK d   1      14.035  63.345 -12.046  0.00  0.00    -0.044 NA
ATOM      4  C   UNK d   1      14.250  64.586 -12.505  0.00  0.00     0.726 A 
ATOM      5  N   UNK d   1      15.443  65.151 -12.254  0.00  0.00    -0.073 NA
ATOM      6  C   UNK d   1      16.399  64.501 -11.568  0.00  0.00     0.164 A 
ENDROOT
BRANCH   4   7
ATOM      7  N   UNK d   1      13.270  65.314 -13.242  0.00  0.00    -0.214 N 
ATOM      8  C   UNK d   1      13.616  66.141 -14.372  0.00  0.00     0.144 C 
ATOM      9  C   UNK d   1      12.861  65.816 -15.631  0.00  0.00     0.072 C 
ATOM     10  C   UNK d   1      11.527  65.147 -15.345  0.00  0.00     0.241 C 
ATOM     11  C   UNK d   1      11.075  65.797 -14.026  0.00  0.00     0.072 C 
ATOM     12  C   UNK d   1      11.865  65.257 -12.881  0.00  0.00     0.144 C 
BRANCH  10  13
ATOM     13  N   UNK d   1      11.579  63.774 -15.177  0.00  0.00     0.107 N 
ATOM     14  C   UNK d   1      12.483  62.966 -15.897  0.00  0.00     0.274 C 
ATOM     15  C   UNK d   1      12.861  61.784 -14.988  0.00  0.00     0.030 C 
ATOM     16  C   UNK d   1      11.754  61.599 -13.986  0.00  0.00     0.003 C 
ATOM     17  C   UNK d   1      10.387  61.798 -14.591  0.00  0.00     0.030 C 
ATOM     18  C   UNK d   1      10.288  63.150 -15.279  0.00  0.00     0.274 C 
ENDBRANCH  10  13
BRANCH  10  19
ATOM     19  C   UNK d   1      10.562  65.608 -16.369  0.00  0.00     0.255 C 
ATOM     20  O   UNK d   1      10.803  65.445 -17.613  0.00  0.00    -0.271 OA
ATOM     21  N   UNK d   1       9.351  66.237 -16.060  0.00  0.00    -0.368 N 
ATOM     22  H   UNK d   1       9.277  67.280 -16.213  0.00  0.00     0.159 HD
ATOM     23  H   UNK d   1       8.490  65.784 -15.694  0.00  0.00     0.159 HD
ENDBRANCH  10  19
ENDBRANCH   4   7
BRANCH   2  24
ATOM     24  N   UNK d   1      14.751  61.345 -10.864  0.00  0.00    -0.382 N 
ATOM     25  H   UNK d   1      14.472  60.545 -11.468  0.00  0.00     0.157 HD
ATOM     26  H   UNK d   1      14.869  61.155  -9.847  0.00  0.00     0.157 HD
ENDBRANCH   2  24
BRANCH   1  27
ATOM     27  S   UNK d   1      17.442  62.366 -10.190  0.00  0.00     0.214 S 
ATOM     28  O   UNK d   1      17.528  62.835  -8.774  0.00  0.00    -0.217 OA
ATOM     29  O   UNK d   1      17.123  60.895 -10.277  0.00  0.00    -0.217 OA
BRANCH  27  30
ATOM     30  C   UNK d   1      18.985  62.628 -11.018  0.00  0.00     0.099 A 
ATOM     31  C   UNK d   1      20.070  63.114 -10.318  0.00  0.00     0.090 A 
ATOM     32  C   UNK d   1      21.252  63.303 -11.003  0.00  0.00     0.040 A 
ATOM     33  C   UNK d   1      21.362  63.016 -12.360  0.00  0.00     0.026 A 
ATOM     34  C   UNK d   1      20.256  62.532 -13.024  0.00  0.00     0.035 A 
ATOM     35  C   UNK d   1      19.060  62.333 -12.366  0.00  0.00     0.050 A 
ATOM     36 Cl   UNK d   1      20.379  62.162 -14.749  0.00  0.00    -0.084 Cl
BRANCH  31  37
ATOM     37  O   UNK d   1      19.923  63.385  -8.986  0.00  0.00    -0.354 OA
ATOM     38  C   UNK d   1      20.958  63.730  -8.108  0.00  0.00     0.210 C 
ENDBRANCH  31  37
ENDBRANCH  27  30
ENDBRANCH   1  27
TORSDOF 7
ENDMDL
