/Users/jonathanwahrer/Desktop/Msc/3_Semester/Drug_Design_Praktikum/waehrer_HTS_screening/HTS_experiment/out/docking_results/vina_output/3sx0/1651_docked.pdbqt
 OpenBabel03192222443D

 23 26  0  0  1  0  0  0  0  0999 V2000
   15.3350   64.4590  -10.3890 Cl  0  0  0  0  0  0  0  0  0  0  0  0
   14.2610   63.9950  -11.7120 C   0  0  0  0  0  0  0  0  0  0  0  0
   13.6530   64.9320  -12.5110 C   0  0  0  0  0  3  0  0  0  0  0  0
   12.8040   64.5380  -13.5560 C   0  0  0  0  0  0  0  0  0  0  0  0
   12.5560   63.2200  -13.8140 C   0  0  0  0  0  0  0  0  0  0  0  0
   13.1750   62.2540  -13.0000 C   0  0  0  0  0  3  0  0  0  0  0  0
   14.0000   62.6740  -11.9860 C   0  0  0  0  0  3  0  0  0  0  0  0
   11.6740   63.0450  -14.9110 N   0  0  0  0  0  0  0  0  0  0  0  0
   11.3460   64.3440  -15.3720 C   0  0  0  0  0  0  0  0  0  0  0  0
   10.5730   64.5700  -16.3490 O   0  0  0  0  0  0  0  0  0  0  0  0
   12.0450   65.3480  -14.5400 C   0  0  1  0  0  0  0  0  0  0  0  0
   10.9730   66.1780  -13.8660 C   0  0  0  0  0  2  0  0  0  0  0  0
   10.3770   67.0120  -14.9640 C   0  0  0  0  0  0  0  0  0  0  0  0
    9.1580   67.0440  -15.2110 O   0  0  0  0  0  0  0  0  0  0  0  0
   11.2990   67.7900  -15.7360 N   0  0  0  0  0  0  0  0  0  0  0  0
   12.6340   67.3300  -15.9040 C   0  0  0  0  0  0  0  0  0  0  0  0
   13.7140   67.8370  -16.5570 N   0  0  0  0  0  0  0  0  0  0  0  0
   14.7180   67.0110  -16.3910 N   0  0  0  0  0  0  0  0  0  0  0  0
   14.3560   65.9560  -15.6450 C   0  0  0  0  0  3  0  0  0  0  0  0
   13.0070   66.1450  -15.3210 C   0  0  0  0  0  0  0  0  0  0  0  0
   11.2050   61.7620  -15.4450 C   0  0  0  0  0  1  0  0  0  0  0  0
   11.0070   68.6890  -16.1780 H   0  0  0  0  0  0  0  0  0  0  0  0
   13.6860   68.7400  -17.0860 H   0  0  0  0  0  0  0  0  0  0  0  0
  2  1  1  0  0  0  0
  3  2  2  0  0  0  0
  4  3  1  0  0  0  0
  5  4  2  0  0  0  0
  5  6  1  0  0  0  0
  6  7  2  0  0  0  0
  7  2  1  0  0  0  0
  8  5  1  0  0  0  0
  9  8  1  0  0  0  0
  9 11  1  0  0  0  0
 10  9  2  0  0  0  0
 11 12  1  1  0  0  0
 11  4  1  0  0  0  0
 13 12  1  0  0  0  0
 14 13  2  0  0  0  0
 15 13  1  0  0  0  0
 16 15  1  0  0  0  0
 16 20  2  0  0  0  0
 17 18  1  0  0  0  0
 17 16  1  0  0  0  0
 18 19  2  0  0  0  0
 19 20  1  0  0  0  0
 20 11  1  0  0  0  0
 21  8  1  0  0  0  0
 22 15  1  0  0  0  0
 23 17  1  0  0  0  0
M  END
>  <Pose>
1

>  <Score>
-5.642

$$$$
