MODEL 1
REMARK VINA RESULT:    -5.642      0.000      0.000
REMARK INTER + INTRA:          -5.642
REMARK INTER:                  -5.642
REMARK INTRA:                   0.000
REMARK UNBOUND:                 0.000
REMARK  0 active torsions:
REMARK  status: ('A' for Active; 'I' for Inactive)
ROOT
ATOM      1 Cl   UNK d   1      15.335  64.459 -10.389  0.00  0.00    -0.084 Cl
ATOM      2  C   UNK d   1      14.261  63.995 -11.712  0.00  0.00     0.034 A 
ATOM      3  C   UNK d   1      13.653  64.932 -12.511  0.00  0.00     0.034 A 
ATOM      4  C   UNK d   1      12.804  64.538 -13.556  0.00  0.00    -0.006 A 
ATOM      5  C   UNK d   1      12.556  63.220 -13.814  0.00  0.00     0.044 A 
ATOM      6  C   UNK d   1      13.175  62.254 -13.000  0.00  0.00     0.032 A 
ATOM      7  C   UNK d   1      14.000  62.674 -11.986  0.00  0.00     0.026 A 
ATOM      8  N   UNK d   1      11.674  63.045 -14.911  0.00  0.00    -0.321 N 
ATOM      9  C   UNK d   1      11.346  64.344 -15.372  0.00  0.00     0.242 A 
ATOM     10  O   UNK d   1      10.573  64.570 -16.349  0.00  0.00    -0.271 OA
ATOM     11  C   UNK d   1      12.045  65.348 -14.540  0.00  0.00     0.111 A 
ATOM     12  C   UNK d   1      10.973  66.178 -13.866  0.00  0.00     0.132 C 
ATOM     13  C   UNK d   1      10.377  67.012 -14.964  0.00  0.00     0.225 C 
ATOM     14  O   UNK d   1       9.158  67.044 -15.211  0.00  0.00    -0.273 OA
ATOM     15  N   UNK d   1      11.299  67.790 -15.736  0.00  0.00    -0.311 N 
ATOM     16  C   UNK d   1      12.634  67.330 -15.904  0.00  0.00     0.133 A 
ATOM     17  N   UNK d   1      13.714  67.837 -16.557  0.00  0.00    -0.262 N 
ATOM     18  N   UNK d   1      14.718  67.011 -16.391  0.00  0.00    -0.185 NA
ATOM     19  C   UNK d   1      14.356  65.956 -15.645  0.00  0.00     0.151 A 
ATOM     20  C   UNK d   1      13.007  66.145 -15.321  0.00  0.00     0.030 A 
ATOM     21  C   UNK d   1      11.205  61.762 -15.445  0.00  0.00     0.159 C 
ATOM     22  H   UNK d   1      11.007  68.689 -16.178  0.00  0.00     0.170 HD
ATOM     23  H   UNK d   1      13.686  68.740 -17.086  0.00  0.00     0.191 HD
ENDROOT
TORSDOF 0
ENDMDL
