MODEL 1
REMARK VINA RESULT:    -2.966      0.000      0.000
REMARK INTER + INTRA:          -3.776
REMARK INTER:                  -3.313
REMARK INTRA:                  -0.463
REMARK UNBOUND:                -0.463
REMARK  2 active torsions:
REMARK  status: ('A' for Active; 'I' for Inactive)
REMARK    1  A    between atoms: N_15  and  C_20 
REMARK       I    between atoms: C_21  and  N_23 
REMARK    2  A    between atoms: N_26  and  C_29 
ROOT
ATOM      1 Cl   UNK d   1       7.622  70.949 -17.616  0.00  0.00    -0.084 Cl
ATOM      2  C   UNK d   1       8.991  69.868 -17.326  0.00  0.00     0.035 A 
ATOM      3  C   UNK d   1      10.281  70.343 -17.415  0.00  0.00     0.043 A 
ATOM      4  C   UNK d   1      11.329  69.511 -17.189  0.00  0.00     0.060 A 
ATOM      5  C   UNK d   1      11.109  68.165 -16.868  0.00  0.00     0.045 A 
ATOM      6  C   UNK d   1       9.814  67.712 -16.786  0.00  0.00     0.032 A 
ATOM      7  C   UNK d   1       8.730  68.551 -17.012  0.00  0.00     0.026 A 
ATOM      8  N   UNK d   1      12.204  67.286 -16.629  0.00  0.00    -0.363 N 
ATOM      9  C   UNK d   1      13.462  67.841 -16.155  0.00  0.00     0.108 C 
ATOM     10  N   UNK d   1      13.755  68.970 -17.007  0.00  0.00    -0.330 N 
ATOM     11  C   UNK d   1      12.730  69.918 -17.259  0.00  0.00     0.255 C 
ATOM     12  O   UNK d   1      12.962  71.121 -17.547  0.00  0.00    -0.268 OA
ATOM     13  C   UNK d   1      14.522  66.800 -16.296  0.00  0.00     0.074 C 
ATOM     14  C   UNK d   1      14.616  65.875 -15.104  0.00  0.00     0.130 C 
ATOM     15  N   UNK d   1      13.318  65.380 -14.696  0.00  0.00    -0.344 N 
ATOM     16  C   UNK d   1      12.247  66.248 -14.250  0.00  0.00     0.220 C 
ATOM     17  O   UNK d   1      11.144  65.683 -14.069  0.00  0.00    -0.273 OA
ATOM     18  C   UNK d   1      12.251  67.694 -13.976  0.00  0.00     0.107 C 
ATOM     19  C   UNK d   1      13.325  68.396 -14.752  0.00  0.00     0.063 C 
ATOM     20  H   UNK d   1      12.045  66.273 -16.809  0.00  0.00     0.162 HD
ATOM     21  H   UNK d   1      14.683  69.126 -17.448  0.00  0.00     0.165 HD
ENDROOT
BRANCH  15  22
ATOM     22  C   UNK d   1      13.019  64.007 -14.736  0.00  0.00     0.212 C 
ATOM     23  C   UNK d   1      13.147  63.154 -13.577  0.00  0.00     0.171 C 
ATOM     24  O   UNK d   1      12.774  61.905 -13.857  0.00  0.00    -0.175 OA
ATOM     25  N   UNK d   1      13.577  63.424 -12.297  0.00  0.00    -0.359 N 
ATOM     26  C   UNK d   1      13.595  62.317 -11.306  0.00  0.00     0.144 C 
ATOM     27  C   UNK d   1      14.040  64.656 -11.790  0.00  0.00     0.144 C 
ATOM     28  C   UNK d   1      14.957  62.462 -10.610  0.00  0.00     0.137 C 
ATOM     29  N   UNK d   1      15.878  63.191 -11.415  0.00  0.00    -0.406 N 
ATOM     30  C   UNK d   1      15.582  64.580 -11.602  0.00  0.00     0.137 C 
BRANCH  29  31
ATOM     31  C   UNK d   1      17.256  62.897 -11.215  0.00  0.00     0.071 C 
ATOM     32  C   UNK d   1      18.015  63.989 -10.490  0.00  0.00     0.031 C 
ATOM     33  C   UNK d   1      17.497  61.584 -10.521  0.00  0.00     0.031 C 
ENDBRANCH  29  31
ENDBRANCH  15  22
TORSDOF 2
ENDMDL
