MODEL 1
REMARK VINA RESULT:    -8.648      0.000      0.000
REMARK INTER + INTRA:         -11.743
REMARK INTER:                 -11.176
REMARK INTRA:                  -0.568
REMARK UNBOUND:                -0.568
REMARK  5 active torsions:
REMARK  status: ('A' for Active; 'I' for Inactive)
REMARK    1  A    between atoms: C_5  and  N_8 
REMARK    2  A    between atoms: N_15  and  C_18 
REMARK    3  A    between atoms: C_18  and  C_19 
REMARK       I    between atoms: C_19  and  N_21 
REMARK       I    between atoms: N_24  and  C_27 
REMARK    4  A    between atoms: C_27  and  O_29 
REMARK    5  A    between atoms: O_29  and  C_30 
ROOT
ATOM      1  N   UNK d   1      23.313  63.375  -8.259  0.00  0.00    -0.215 N 
ATOM      2  N   UNK d   1      24.152  63.225  -9.248  0.00  0.00    -0.177 NA
ATOM      3  C   UNK d   1      23.546  63.215 -10.440  0.00  0.00     0.160 A 
ATOM      4  C   UNK d   1      22.188  63.374 -10.198  0.00  0.00     0.099 A 
ATOM      5  C   UNK d   1      22.084  63.471  -8.815  0.00  0.00     0.169 A 
ATOM      6  N   UNK d   1      20.851  63.627  -8.324  0.00  0.00    -0.223 NA
ATOM      7  C   UNK d   1      19.769  63.688  -9.130  0.00  0.00     0.215 A 
ATOM      8  N   UNK d   1      19.838  63.598 -10.467  0.00  0.00    -0.299 N 
ATOM      9  C   UNK d   1      21.075  63.438 -11.004  0.00  0.00     0.264 A 
ATOM     10  O   UNK d   1      21.189  63.347 -12.252  0.00  0.00    -0.267 OA
ENDROOT
BRANCH   8  11
ATOM     11  C   UNK d   1      18.668  63.678 -11.347  0.00  0.00     0.236 C 
BRANCH  11  12
ATOM     12  C   UNK d   1      17.638  62.687 -10.991  0.00  0.00     0.238 C 
ATOM     13  O   UNK d   1      18.076  61.492 -10.843  0.00  0.00    -0.272 OA
ATOM     14  N   UNK d   1      16.278  62.919 -10.804  0.00  0.00    -0.348 N 
ATOM     15  C   UNK d   1      15.352  61.813 -10.510  0.00  0.00     0.145 C 
ATOM     16  C   UNK d   1      15.686  64.237 -10.851  0.00  0.00     0.145 C 
ATOM     17  C   UNK d   1      14.429  61.761 -11.735  0.00  0.00     0.148 C 
ATOM     18  N   UNK d   1      13.872  63.062 -11.997  0.00  0.00    -0.325 N 
ATOM     19  C   UNK d   1      14.199  64.129 -11.070  0.00  0.00     0.148 C 
ATOM     20  C   UNK d   1      13.059  63.300 -13.127  0.00  0.00     0.362 C 
ATOM     21  O   UNK d   1      12.863  62.317 -13.934  0.00  0.00    -0.238 OA
BRANCH  20  22
ATOM     22  O   UNK d   1      12.448  64.490 -13.454  0.00  0.00    -0.304 OA
BRANCH  22  23
ATOM     23  C   UNK d   1      12.658  65.098 -14.743  0.00  0.00     0.176 C 
ATOM     24  C   UNK d   1      13.975  65.848 -14.647  0.00  0.00     0.034 C 
ENDBRANCH  22  23
ENDBRANCH  20  22
ENDBRANCH  11  12
ENDBRANCH   8  11
BRANCH   1  25
ATOM     25  C   UNK d   1      23.618  63.446  -6.875  0.00  0.00     0.060 A 
ATOM     26  C   UNK d   1      22.954  64.219  -5.959  0.00  0.00     0.033 A 
ATOM     27  C   UNK d   1      23.356  64.237  -4.637  0.00  0.00     0.026 A 
ATOM     28  C   UNK d   1      24.419  63.502  -4.165  0.00  0.00     0.034 A 
ATOM     29 Cl   UNK d   1      24.947  63.511  -2.513  0.00  0.00    -0.084 Cl
ATOM     30  C   UNK d   1      25.102  62.715  -5.074  0.00  0.00     0.026 A 
ATOM     31  C   UNK d   1      24.685  62.710  -6.387  0.00  0.00     0.033 A 
ENDBRANCH   1  25
TORSDOF 5
ENDMDL
