/Users/jonathanwahrer/Desktop/Msc/3_Semester/Drug_Design_Praktikum/waehrer_HTS_screening/HTS_experiment/out/docking_results/vina_output/3sx0/1660_docked.pdbqt
 OpenBabel03192222453D

 31 34  0  0  0  0  0  0  0  0999 V2000
   23.3130   63.3750   -8.2590 N   0  0  0  0  0  0  0  0  0  0  0  0
   24.1520   63.2250   -9.2480 N   0  0  0  0  0  0  0  0  0  0  0  0
   23.5460   63.2150  -10.4400 C   0  0  0  0  0  3  0  0  0  0  0  0
   22.1880   63.3740  -10.1980 C   0  0  0  0  0  0  0  0  0  0  0  0
   22.0840   63.4710   -8.8150 C   0  0  0  0  0  0  0  0  0  0  0  0
   20.8510   63.6270   -8.3240 N   0  0  0  0  0  0  0  0  0  0  0  0
   19.7690   63.6880   -9.1300 C   0  0  0  0  0  3  0  0  0  0  0  0
   19.8380   63.5980  -10.4670 N   0  0  0  0  0  0  0  0  0  0  0  0
   21.0750   63.4380  -11.0040 C   0  0  0  0  0  0  0  0  0  0  0  0
   21.1890   63.3470  -12.2520 O   0  0  0  0  0  0  0  0  0  0  0  0
   18.6680   63.6780  -11.3470 C   0  0  0  0  0  2  0  0  0  0  0  0
   17.6380   62.6870  -10.9910 C   0  0  0  0  0  0  0  0  0  0  0  0
   18.0760   61.4920  -10.8430 O   0  0  0  0  0  0  0  0  0  0  0  0
   16.2780   62.9190  -10.8040 N   0  0  0  0  0  0  0  0  0  0  0  0
   15.3520   61.8130  -10.5100 C   0  0  0  0  0  2  0  0  0  0  0  0
   15.6860   64.2370  -10.8510 C   0  0  0  0  0  2  0  0  0  0  0  0
   14.4290   61.7610  -11.7350 C   0  0  0  0  0  2  0  0  0  0  0  0
   13.8720   63.0620  -11.9970 N   0  0  0  0  0  0  0  0  0  0  0  0
   14.1990   64.1290  -11.0700 C   0  0  0  0  0  2  0  0  0  0  0  0
   13.0590   63.3000  -13.1270 C   0  0  0  0  0  0  0  0  0  0  0  0
   12.8630   62.3170  -13.9340 O   0  0  0  0  0  0  0  0  0  0  0  0
   12.4480   64.4900  -13.4540 O   0  0  0  0  0  0  0  0  0  0  0  0
   12.6580   65.0980  -14.7430 C   0  0  0  0  0  2  0  0  0  0  0  0
   13.9750   65.8480  -14.6470 C   0  0  0  0  0  1  0  0  0  0  0  0
   23.6180   63.4460   -6.8750 C   0  0  0  0  0  0  0  0  0  0  0  0
   22.9540   64.2190   -5.9590 C   0  0  0  0  0  3  0  0  0  0  0  0
   23.3560   64.2370   -4.6370 C   0  0  0  0  0  3  0  0  0  0  0  0
   24.4190   63.5020   -4.1650 C   0  0  0  0  0  0  0  0  0  0  0  0
   24.9470   63.5110   -2.5130 Cl  0  0  0  0  0  0  0  0  0  0  0  0
   25.1020   62.7150   -5.0740 C   0  0  0  0  0  3  0  0  0  0  0  0
   24.6850   62.7100   -6.3870 C   0  0  0  0  0  3  0  0  0  0  0  0
  1 25  1  0  0  0  0
  2  1  1  0  0  0  0
  3  4  1  0  0  0  0
  3  2  2  0  0  0  0
  4  5  2  0  0  0  0
  5  6  1  0  0  0  0
  5  1  1  0  0  0  0
  7  6  2  0  0  0  0
  8  7  1  0  0  0  0
  9  8  1  0  0  0  0
  9  4  1  0  0  0  0
 10  9  2  0  0  0  0
 11 12  1  0  0  0  0
 11  8  1  0  0  0  0
 12 13  2  0  0  0  0
 12 14  1  0  0  0  0
 14 15  1  0  0  0  0
 16 14  1  0  0  0  0
 17 15  1  0  0  0  0
 18 17  1  0  0  0  0
 18 19  1  0  0  0  0
 19 16  1  0  0  0  0
 20 18  1  0  0  0  0
 21 20  2  0  0  0  0
 22 20  1  0  0  0  0
 23 24  1  0  0  0  0
 23 22  1  0  0  0  0
 25 31  2  0  0  0  0
 25 26  1  0  0  0  0
 26 27  2  0  0  0  0
 27 28  1  0  0  0  0
 28 29  1  0  0  0  0
 30 28  2  0  0  0  0
 31 30  1  0  0  0  0
M  END
>  <Pose>
1

>  <Score>
-8.648

$$$$
