MODEL 1
REMARK VINA RESULT:    -8.366      0.000      0.000
REMARK INTER + INTRA:         -10.407
REMARK INTER:                  -9.833
REMARK INTRA:                  -0.574
REMARK UNBOUND:                -0.574
REMARK  3 active torsions:
REMARK  status: ('A' for Active; 'I' for Inactive)
REMARK    1  A    between atoms: C_9  and  C_11 
REMARK       I    between atoms: C_11  and  N_13 
REMARK    2  A    between atoms: N_13  and  C_14 
REMARK    3  A    between atoms: C_14  and  C_15 
ROOT
ATOM      1  C   UNK d   1      19.351  63.434 -10.745  0.00  0.00     0.254 C 
ATOM      2  O   UNK d   1      19.987  63.470 -11.816  0.00  0.00    -0.268 OA
ATOM      3  N   UNK d   1      19.825  64.189  -9.643  0.00  0.00    -0.350 N 
ATOM      4  H   UNK d   1      19.308  64.169  -8.749  0.00  0.00     0.163 HD
ENDROOT
BRANCH   1   5
ATOM      5  C   UNK d   1      18.145  62.616 -10.675  0.00  0.00     0.063 A 
ATOM      6  C   UNK d   1      16.955  63.161 -11.126  0.00  0.00     0.098 A 
ATOM      7  C   UNK d   1      15.806  62.411 -11.070  0.00  0.00     0.111 A 
ATOM      8  N   UNK d   1      16.634  64.371 -11.657  0.00  0.00    -0.257 N 
ATOM      9  C   UNK d   1      15.859  61.131 -10.567  0.00  0.00     0.055 A 
ATOM     10  N   UNK d   1      14.816  63.188 -11.570  0.00  0.00    -0.130 NA
ATOM     11  C   UNK d   1      17.041  60.584 -10.115  0.00  0.00     0.014 A 
ATOM     12 Br   UNK d   1      17.084  58.803  -9.421  0.00  0.00    -0.051 Br
ATOM     13  C   UNK d   1      18.191  61.326 -10.168  0.00  0.00     0.038 A 
ATOM     14  N   UNK d   1      15.354  64.346 -11.907  0.00  0.00    -0.067 NA
ATOM     15  H   UNK d   1      17.352  65.111 -11.796  0.00  0.00     0.191 HD
ENDBRANCH   1   5
BRANCH   3  16
ATOM     16  C   UNK d   1      21.022  64.989  -9.741  0.00  0.00     0.203 C 
BRANCH  16  17
ATOM     17  C   UNK d   1      22.154  64.256  -9.075  0.00  0.00     0.148 A 
ATOM     18  N   UNK d   1      22.733  64.556  -7.902  0.00  0.00    -0.319 N 
ATOM     19  C   UNK d   1      23.719  63.677  -7.618  0.00  0.00     0.130 A 
ATOM     20  C   UNK d   1      22.505  65.602  -6.930  0.00  0.00     0.132 C 
ATOM     21  N   UNK d   1      23.748  62.814  -8.641  0.00  0.00    -0.135 NA
ATOM     22  C   UNK d   1      24.448  63.894  -6.338  0.00  0.00     0.081 C 
ATOM     23  N   UNK d   1      22.802  63.163  -9.525  0.00  0.00    -0.133 NA
ATOM     24  C   UNK d   1      23.349  63.946  -5.268  0.00  0.00     0.009 C 
ATOM     25  C   UNK d   1      22.294  64.957  -5.577  0.00  0.00     0.021 C 
ENDBRANCH  16  17
ENDBRANCH   3  16
TORSDOF 3
ENDMDL
