/Users/jonathanwahrer/Desktop/Msc/3_Semester/Drug_Design_Praktikum/waehrer_HTS_screening/HTS_experiment/out/docking_results/vina_output/3sx0/1676_docked.pdbqt
 OpenBabel03192222463D

 25 28  0  0  0  0  0  0  0  0999 V2000
   19.3510   63.4340  -10.7450 C   0  0  0  0  0  0  0  0  0  0  0  0
   19.9870   63.4700  -11.8160 O   0  0  0  0  0  0  0  0  0  0  0  0
   19.8250   64.1890   -9.6430 N   0  0  0  0  0  0  0  0  0  0  0  0
   19.3080   64.1690   -8.7490 H   0  0  0  0  0  0  0  0  0  0  0  0
   18.1450   62.6160  -10.6750 C   0  0  0  0  0  0  0  0  0  0  0  0
   16.9550   63.1610  -11.1260 C   0  0  0  0  0  0  0  0  0  0  0  0
   15.8060   62.4110  -11.0700 C   0  0  0  0  0  0  0  0  0  0  0  0
   16.6340   64.3710  -11.6570 N   0  0  0  0  0  0  0  0  0  0  0  0
   15.8590   61.1310  -10.5670 C   0  0  0  0  0  3  0  0  0  0  0  0
   14.8160   63.1880  -11.5700 N   0  0  0  0  0  0  0  0  0  0  0  0
   17.0410   60.5840  -10.1150 C   0  0  0  0  0  0  0  0  0  0  0  0
   17.0840   58.8030   -9.4210 Br  0  0  0  0  0  0  0  0  0  0  0  0
   18.1910   61.3260  -10.1680 C   0  0  0  0  0  3  0  0  0  0  0  0
   15.3540   64.3460  -11.9070 N   0  0  0  0  0  0  0  0  0  0  0  0
   17.3520   65.1110  -11.7960 H   0  0  0  0  0  0  0  0  0  0  0  0
   21.0220   64.9890   -9.7410 C   0  0  0  0  0  2  0  0  0  0  0  0
   22.1540   64.2560   -9.0750 C   0  0  0  0  0  0  0  0  0  0  0  0
   22.7330   64.5560   -7.9020 N   0  0  0  0  0  0  0  0  0  0  0  0
   23.7190   63.6770   -7.6180 C   0  0  0  0  0  0  0  0  0  0  0  0
   22.5050   65.6020   -6.9300 C   0  0  0  0  0  2  0  0  0  0  0  0
   23.7480   62.8140   -8.6410 N   0  0  0  0  0  0  0  0  0  0  0  0
   24.4480   63.8940   -6.3380 C   0  0  0  0  0  2  0  0  0  0  0  0
   22.8020   63.1630   -9.5250 N   0  0  0  0  0  0  0  0  0  0  0  0
   23.3490   63.9460   -5.2680 C   0  0  0  0  0  2  0  0  0  0  0  0
   22.2940   64.9570   -5.5770 C   0  0  0  0  0  2  0  0  0  0  0  0
  1  5  1  0  0  0  0
  1  3  1  0  0  0  0
  2  1  2  0  0  0  0
  3  4  1  0  0  0  0
  5 13  1  0  0  0  0
  6  7  1  0  0  0  0
  6  5  2  0  0  0  0
  7  9  2  0  0  0  0
  8  6  1  0  0  0  0
  9 11  1  0  0  0  0
 10  7  1  0  0  0  0
 11 12  1  0  0  0  0
 13 11  2  0  0  0  0
 14  8  1  0  0  0  0
 14 10  2  0  0  0  0
 15  8  1  0  0  0  0
 16  3  1  0  0  0  0
 16 17  1  0  0  0  0
 17 18  1  0  0  0  0
 18 19  1  0  0  0  0
 18 20  1  0  0  0  0
 19 22  1  0  0  0  0
 20 25  1  0  0  0  0
 21 19  2  0  0  0  0
 22 24  1  0  0  0  0
 23 17  2  0  0  0  0
 23 21  1  0  0  0  0
 25 24  1  0  0  0  0
M  END
>  <Pose>
1

>  <Score>
-8.366

$$$$
