MODEL 1
REMARK VINA RESULT:    -8.713      0.000      0.000
REMARK INTER + INTRA:         -11.886
REMARK INTER:                 -11.259
REMARK INTRA:                  -0.627
REMARK UNBOUND:                -0.627
REMARK  5 active torsions:
REMARK  status: ('A' for Active; 'I' for Inactive)
REMARK    1  A    between atoms: N_7  and  C_11 
REMARK    2  A    between atoms: C_11  and  C_12 
REMARK    3  A    between atoms: C_12  and  N_13 
REMARK    4  A    between atoms: C_21  and  C_23 
REMARK    5  A    between atoms: C_23  and  O_25 
ROOT
ATOM      1  N   UNK d   1      18.834  63.240 -10.842  0.00  0.00    -0.363 N 
ATOM      2  C   UNK d   1      18.594  61.946 -10.534  0.00  0.00     0.110 A 
ATOM      3  C   UNK d   1      17.320  61.421 -10.515  0.00  0.00     0.080 A 
ATOM      4  C   UNK d   1      16.185  62.277 -10.836  0.00  0.00     0.111 A 
ATOM      5  N   UNK d   1      15.093  61.506 -10.738  0.00  0.00    -0.170 NA
ATOM      6  N   UNK d   1      15.436  60.256 -10.389  0.00  0.00    -0.242 N 
ATOM      7  C   UNK d   1      16.769  60.186 -10.251  0.00  0.00     0.275 A 
ATOM      8  O   UNK d   1      17.388  59.146  -9.929  0.00  0.00    -0.266 OA
ATOM      9  C   UNK d   1      16.468  63.597 -11.147  0.00  0.00     0.086 A 
ATOM     10  C   UNK d   1      17.772  64.005 -11.134  0.00  0.00     0.110 A 
ATOM     11  H   UNK d   1      14.724  59.493 -10.258  0.00  0.00     0.192 HD
ENDROOT
BRANCH   1  12
ATOM     12  C   UNK d   1      20.196  63.763 -10.853  0.00  0.00     0.148 C 
BRANCH  12  13
ATOM     13  C   UNK d   1      20.470  64.375  -9.496  0.00  0.00     0.150 C 
BRANCH  13  14
ATOM     14  N   UNK d   1      21.747  63.952  -8.964  0.00  0.00    -0.338 N 
ATOM     15  C   UNK d   1      22.747  63.385  -9.672  0.00  0.00     0.210 A 
ATOM     16  N   UNK d   1      23.790  63.118  -8.866  0.00  0.00    -0.242 NA
ATOM     17  C   UNK d   1      23.482  63.512  -7.600  0.00  0.00     0.086 A 
ATOM     18  C   UNK d   1      24.172  63.473  -6.404  0.00  0.00     0.057 A 
ATOM     19  C   UNK d   1      22.205  64.025  -7.701  0.00  0.00     0.064 A 
ATOM     20  C   UNK d   1      23.578  63.962  -5.260  0.00  0.00     0.036 A 
ATOM     21 Cl   UNK d   1      24.397  63.945  -3.699  0.00  0.00    -0.084 Cl
ATOM     22  C   UNK d   1      22.299  64.472  -5.374  0.00  0.00     0.026 A 
ATOM     23  C   UNK d   1      21.603  64.514  -6.565  0.00  0.00     0.034 A 
ENDBRANCH  13  14
ENDBRANCH  12  13
ENDBRANCH   1  12
BRANCH   9  24
ATOM     24  C   UNK d   1      15.357  64.484 -11.474  0.00  0.00     0.296 C 
ATOM     25  O   UNK d   1      14.964  65.312 -10.614  0.00  0.00    -0.259 OA
BRANCH  24  26
ATOM     26  O   UNK d   1      14.732  64.437 -12.692  0.00  0.00    -0.322 OA
ATOM     27  C   UNK d   1      13.348  64.147 -12.807  0.00  0.00     0.213 C 
ENDBRANCH  24  26
ENDBRANCH   9  24
TORSDOF 5
ENDMDL
