/Users/jonathanwahrer/Desktop/Msc/3_Semester/Drug_Design_Praktikum/waehrer_HTS_screening/HTS_experiment/out/docking_results/vina_output/3sx0/1689_docked.pdbqt
 OpenBabel03192222463D

 32 35  0  0  1  0  0  0  0  0999 V2000
   20.8350   64.3890   -8.7070 C   0  0  0  0  0  0  0  0  0  0  0  0
   20.9450   65.0560   -9.7650 O   0  0  0  0  0  0  0  0  0  0  0  0
   21.2690   64.9730   -7.4980 N   0  0  0  0  0  0  0  0  0  0  0  0
   21.2780   64.4520   -6.1460 C   0  0  0  0  0  2  0  0  0  0  0  0
   22.5520   64.9280   -5.6060 C   0  0  2  0  0  3  0  0  0  0  0  0
   23.1030   65.9620   -6.5910 C   0  0  1  0  0  3  0  0  0  0  0  0
   21.8200   66.2980   -7.3790 C   0  0  0  0  0  2  0  0  0  0  0  0
   20.2600   63.0310   -8.7910 C   0  0  0  0  0  2  0  0  0  0  0  0
   20.0000   62.6600  -10.2190 C   0  0  0  0  0  2  0  0  0  0  0  0
   18.5600   62.7100  -10.5360 C   0  0  0  0  0  0  0  0  0  0  0  0
   17.9000   63.7860  -11.0480 N   0  0  0  0  0  0  0  0  0  0  0  0
   16.5950   63.5210  -11.2140 C   0  0  0  0  0  0  0  0  0  0  0  0
   18.3060   64.7210  -11.2980 H   0  0  0  0  0  0  0  0  0  0  0  0
   15.5080   64.2380  -11.6850 C   0  0  0  0  0  3  0  0  0  0  0  0
   16.4100   62.2260  -10.7940 C   0  0  0  0  0  0  0  0  0  0  0  0
   14.2450   63.6620  -11.7350 C   0  0  0  0  0  0  0  0  0  0  0  0
   12.8860   64.5840  -12.3300 Cl  0  0  0  0  0  0  0  0  0  0  0  0
   14.0550   62.3640  -11.3140 C   0  0  0  0  0  3  0  0  0  0  0  0
   15.1540   61.6600  -10.8450 C   0  0  0  0  0  3  0  0  0  0  0  0
   17.5990   61.7590  -10.3920 N   0  0  0  0  0  0  0  0  0  0  0  0
   23.5560   64.0330   -5.1810 N   0  0  0  0  0  0  0  0  0  0  0  0
   23.6910   63.8310   -3.8420 C   0  0  0  0  0  3  0  0  0  0  0  0
   24.6380   62.9760   -3.3270 C   0  0  0  0  0  0  0  0  0  0  0  0
   25.4850   62.2930   -4.1680 C   0  0  0  0  0  0  0  0  0  0  0  0
   24.7730   62.7630   -1.8480 C   0  0  0  0  0  1  0  0  0  0  0  0
   26.3670   61.4990   -3.7200 O   0  0  0  0  0  0  0  0  0  0  0  0
   25.3530   62.4910   -5.4880 N   0  0  0  0  0  0  0  0  0  0  0  0
   24.4150   63.3330   -5.9290 C   0  0  0  0  0  0  0  0  0  0  0  0
   25.9980   61.9760   -6.1630 H   0  0  0  0  0  0  0  0  0  0  0  0
   24.3350   63.4780   -7.1660 O   0  0  0  0  0  0  0  0  0  0  0  0
   23.6060   67.0800   -5.9740 O   0  0  0  0  0  0  0  0  0  0  0  0
   23.7040   66.8830   -5.0080 H   0  0  0  0  0  0  0  0  0  0  0  0
  1  3  1  0  0  0  0
  2  1  2  0  0  0  0
  3  7  1  0  0  0  0
  3  4  1  0  0  0  0
  5  4  1  6  0  0  0
  5 21  1  0  0  0  0
  6 31  1  1  0  0  0
  6  5  1  0  0  0  0
  7  6  1  0  0  0  0
  8  1  1  0  0  0  0
  9  8  1  0  0  0  0
 10 20  2  0  0  0  0
 10  9  1  0  0  0  0
 11 10  1  0  0  0  0
 12 11  1  0  0  0  0
 12 15  1  0  0  0  0
 13 11  1  0  0  0  0
 14 12  2  0  0  0  0
 15 20  1  0  0  0  0
 16 14  1  0  0  0  0
 16 18  2  0  0  0  0
 17 16  1  0  0  0  0
 18 19  1  0  0  0  0
 19 15  2  0  0  0  0
 21 22  1  0  0  0  0
 22 23  2  0  0  0  0
 23 25  1  0  0  0  0
 24 26  2  0  0  0  0
 24 23  1  0  0  0  0
 27 24  1  0  0  0  0
 28 27  1  0  0  0  0
 28 21  1  0  0  0  0
 29 27  1  0  0  0  0
 30 28  2  0  0  0  0
 31 32  1  0  0  0  0
M  END
>  <Pose>
1

>  <Score>
-10.522

$$$$
