MODEL 1
REMARK VINA RESULT:    -7.468      0.000      0.000
REMARK INTER + INTRA:          -9.598
REMARK INTER:                  -9.432
REMARK INTRA:                  -0.166
REMARK UNBOUND:                -0.166
REMARK  5 active torsions:
REMARK  status: ('A' for Active; 'I' for Inactive)
REMARK    1  A    between atoms: C_6  and  C_11 
REMARK    2  A    between atoms: C_11  and  C_12 
REMARK    3  A    between atoms: C_12  and  C_13 
REMARK       I    between atoms: C_13  and  N_15 
REMARK    4  A    between atoms: C_17  and  N_21 
REMARK    5  A    between atoms: C_18  and  O_20 
ROOT
ATOM      1  C   UNK d   1      13.915  64.349 -12.712  0.00  0.00     0.220 C 
ATOM      2  O   UNK d   1      15.000  64.959 -12.761  0.00  0.00    -0.273 OA
ATOM      3  N   UNK d   1      13.101  64.265 -13.852  0.00  0.00    -0.348 N 
ATOM      4  C   UNK d   1      13.259  64.783 -15.174  0.00  0.00     0.154 C 
ATOM      5  C   UNK d   1      11.849  65.293 -15.560  0.00  0.00     0.140 C 
ATOM      6  C   UNK d   1      11.015  64.277 -14.863  0.00  0.00     0.161 C 
ATOM      7  C   UNK d   1      11.846  63.537 -13.870  0.00  0.00     0.159 C 
ENDROOT
BRANCH   1   8
ATOM      8  C   UNK d   1      13.499  63.719 -11.449  0.00  0.00     0.110 C 
BRANCH   8   9
ATOM      9  C   UNK d   1      14.002  62.295 -11.376  0.00  0.00     0.087 C 
BRANCH   9  10
ATOM     10  C   UNK d   1      15.422  62.305 -10.892  0.00  0.00     0.105 A 
ATOM     11  N   UNK d   1      16.137  63.416 -10.648  0.00  0.00    -0.343 N 
ATOM     12  C   UNK d   1      17.374  63.108 -10.224  0.00  0.00     0.064 A 
ATOM     13  H   UNK d   1      15.804  64.411 -10.761  0.00  0.00     0.167 HD
ATOM     14  C   UNK d   1      18.477  63.875  -9.847  0.00  0.00     0.055 A 
ATOM     15  C   UNK d   1      17.434  61.731 -10.204  0.00  0.00     0.085 A 
ATOM     16  C   UNK d   1      19.640  63.256  -9.451  0.00  0.00     0.036 A 
ATOM     17 Cl   UNK d   1      21.058  64.178  -8.966  0.00  0.00    -0.084 Cl
ATOM     18  C   UNK d   1      19.695  61.890  -9.431  0.00  0.00     0.026 A 
ATOM     19  C   UNK d   1      18.600  61.112  -9.805  0.00  0.00     0.036 A 
ATOM     20  N   UNK d   1      16.231  61.282 -10.615  0.00  0.00    -0.233 NA
ENDBRANCH   9  10
ENDBRANCH   8   9
ENDBRANCH   1   8
BRANCH   5  21
ATOM     21  N   UNK d   1      11.695  66.631 -15.064  0.00  0.00    -0.316 N 
ATOM     22  C   UNK d   1      12.290  67.752 -15.506  0.00  0.00     0.149 A 
ATOM     23  C   UNK d   1      11.841  68.837 -14.725  0.00  0.00     0.170 A 
ATOM     24  N   UNK d   1      13.174  67.975 -16.498  0.00  0.00    -0.287 N 
ATOM     25  N   UNK d   1      10.983  68.320 -13.831  0.00  0.00    -0.234 NA
ATOM     26  C   UNK d   1      12.290  70.118 -14.957  0.00  0.00     0.283 A 
ATOM     27  C   UNK d   1      10.884  67.006 -14.019  0.00  0.00     0.212 A 
ATOM     28  O   UNK d   1      11.870  71.067 -14.242  0.00  0.00    -0.265 OA
ATOM     29  N   UNK d   1      13.167  70.298 -15.951  0.00  0.00    -0.269 N 
ATOM     30  C   UNK d   1      13.586  69.266 -16.685  0.00  0.00     0.332 A 
ATOM     31  C   UNK d   1      13.663  71.649 -16.222  0.00  0.00     0.164 C 
ATOM     32  O   UNK d   1      14.412  69.453 -17.616  0.00  0.00    -0.246 OA
ATOM     33  C   UNK d   1      13.667  66.918 -17.322  0.00  0.00     0.163 C 
ENDBRANCH   5  21
BRANCH   6  34
ATOM     34  O   UNK d   1      10.469  63.326 -15.724  0.00  0.00    -0.392 OA
ATOM     35  H   UNK d   1      10.842  62.416 -15.551  0.00  0.00     0.210 HD
ENDBRANCH   6  34
TORSDOF 5
ENDMDL
