MODEL 1
REMARK VINA RESULT:    -9.638      0.000      0.000
REMARK INTER + INTRA:          -9.638
REMARK INTER:                  -9.638
REMARK INTRA:                   0.000
REMARK UNBOUND:                 0.000
REMARK  0 active torsions:
REMARK  status: ('A' for Active; 'I' for Inactive)
ROOT
ATOM      1  F   UNK d   1      23.983  64.740  -8.290  0.00  0.00    -0.202 F 
ATOM      2  C   UNK d   1      22.659  64.367  -8.277  0.00  0.00     0.165 A 
ATOM      3  C   UNK d   1      22.075  63.930  -9.473  0.00  0.00     0.086 A 
ATOM      4  C   UNK d   1      20.766  63.556  -9.482  0.00  0.00     0.030 A 
ATOM      5  C   UNK d   1      20.009  63.606  -8.303  0.00  0.00     0.016 A 
ATOM      6  C   UNK d   1      20.605  64.036  -7.149  0.00  0.00     0.028 A 
ATOM      7  C   UNK d   1      21.924  64.419  -7.118  0.00  0.00     0.074 A 
ATOM      8 Cl   UNK d   1      22.690  64.973  -5.623  0.00  0.00    -0.081 Cl
ATOM      9  C   UNK d   1      20.401  63.140 -10.861  0.00  0.00     0.222 A 
ATOM     10  N   UNK d   1      19.328  63.957 -11.333  0.00  0.00    -0.336 N 
ATOM     11  C   UNK d   1      17.984  63.617 -11.072  0.00  0.00     0.141 A 
ATOM     12  N   UNK d   1      16.974  64.516 -11.207  0.00  0.00    -0.243 NA
ATOM     13  C   UNK d   1      15.686  64.246 -10.972  0.00  0.00     0.119 A 
ATOM     14  C   UNK d   1      15.326  62.967 -10.562  0.00  0.00     0.020 A 
ATOM     15  C   UNK d   1      16.282  62.004 -10.401  0.00  0.00     0.022 A 
ATOM     16  C   UNK d   1      17.590  62.352 -10.661  0.00  0.00     0.077 A 
ATOM     17  C   UNK d   1      18.689  61.392 -10.519  0.00  0.00     0.258 C 
ATOM     18  O   UNK d   1      18.372  60.213 -10.142  0.00  0.00    -0.267 OA
ATOM     19  N   UNK d   1      20.026  61.738 -10.782  0.00  0.00    -0.318 N 
ATOM     20  C   UNK d   1      21.633  63.318 -11.637  0.00  0.00     0.277 A 
ATOM     21  O   UNK d   1      21.803  63.085 -12.890  0.00  0.00    -0.268 OA
ATOM     22  N   UNK d   1      22.641  63.796 -10.783  0.00  0.00    -0.320 N 
ATOM     23  H   UNK d   1      19.510  64.830 -11.886  0.00  0.00     0.164 HD
ATOM     24  H   UNK d   1      20.710  60.957 -10.912  0.00  0.00     0.166 HD
ATOM     25  H   UNK d   1      23.644  64.032 -11.003  0.00  0.00     0.169 HD
ENDROOT
TORSDOF 0
ENDMDL
