/Users/jonathanwahrer/Desktop/Msc/3_Semester/Drug_Design_Praktikum/waehrer_HTS_screening/HTS_experiment/out/docking_results/vina_output/3sx0/1711_docked.pdbqt
 OpenBabel03192222483D

 30 33  0  0  0  0  0  0  0  0999 V2000
   17.2730   62.6120  -10.1470 N   0  0  0  0  0  0  0  0  0  0  0  0
   17.9880   61.9300  -11.1680 C   0  0  0  0  0  2  0  0  0  0  0  0
   19.4680   61.8280  -10.8980 C   0  0  0  0  0  2  0  0  0  0  0  0
   19.9750   62.9640  -10.1730 N   0  0  0  0  0  0  0  0  0  0  0  0
   19.2970   63.3990   -8.9750 C   0  0  0  0  0  2  0  0  0  0  0  0
   17.9600   62.7280   -8.9130 C   0  0  0  0  0  2  0  0  0  0  0  0
   21.1250   63.6780  -10.5940 C   0  0  0  0  0  0  0  0  0  0  0  0
   21.7160   63.3090  -11.6270 O   0  0  0  0  0  0  0  0  0  0  0  0
   21.6410   64.8440   -9.8430 C   0  0  0  0  0  2  0  0  0  0  0  0
   22.3410   64.4330   -8.6610 N   0  0  0  0  0  0  0  0  0  0  0  0
   23.3920   63.4890   -8.5100 C   0  0  0  0  0  0  0  0  0  0  0  0
   23.8930   62.8380   -9.4530 O   0  0  0  0  0  0  0  0  0  0  0  0
   23.7590   63.4330   -7.1050 C   0  0  0  0  0  0  0  0  0  0  0  0
   22.9680   64.3080   -6.3990 C   0  0  0  0  0  0  0  0  0  0  0  0
   24.7000   62.6980   -6.4280 C   0  0  0  0  0  3  0  0  0  0  0  0
   23.1390   64.4260   -5.0260 C   0  0  0  0  0  3  0  0  0  0  0  0
   22.0700   64.9470   -7.3520 C   0  0  0  0  0  0  0  0  0  0  0  0
   24.0770   63.6910   -4.3540 C   0  0  0  0  0  3  0  0  0  0  0  0
   24.8860   62.8000   -5.0580 C   0  0  0  0  0  3  0  0  0  0  0  0
   21.2180   65.8070   -7.0060 O   0  0  0  0  0  0  0  0  0  0  0  0
   16.3150   63.9040  -10.6280 S   0  0  0  0  0  0  0  0  0  0  0  0
   15.8590   64.6590   -9.3870 O   0  0  0  0  0  0  0  0  0  0  0  0
   17.1820   64.8880  -11.3900 O   0  0  0  0  0  0  0  0  0  0  0  0
   14.9710   63.5090  -11.6300 C   0  0  0  0  0  0  0  0  0  0  0  0
   14.4170   64.4770  -12.4520 C   0  0  0  0  0  3  0  0  0  0  0  0
   13.3400   64.2140  -13.2750 C   0  0  0  0  0  3  0  0  0  0  0  0
   12.8130   62.9360  -13.2630 C   0  0  0  0  0  0  0  0  0  0  0  0
   13.3750   61.9820  -12.4390 C   0  0  0  0  0  3  0  0  0  0  0  0
   11.3110   62.5010  -14.3870 Br  0  0  0  0  0  0  0  0  0  0  0  0
   14.4520   62.2300  -11.6120 C   0  0  0  0  0  3  0  0  0  0  0  0
  1  6  1  0  0  0  0
  2  3  1  0  0  0  0
  2  1  1  0  0  0  0
  3  4  1  0  0  0  0
  4  5  1  0  0  0  0
  5  6  1  0  0  0  0
  7  4  1  0  0  0  0
  7  9  1  0  0  0  0
  8  7  2  0  0  0  0
  9 10  1  0  0  0  0
 10 11  1  0  0  0  0
 10 17  1  0  0  0  0
 11 13  1  0  0  0  0
 12 11  2  0  0  0  0
 13 15  2  0  0  0  0
 13 14  1  0  0  0  0
 14 16  2  0  0  0  0
 15 19  1  0  0  0  0
 16 18  1  0  0  0  0
 17 20  2  0  0  0  0
 17 14  1  0  0  0  0
 19 18  2  0  0  0  0
 21  1  1  0  0  0  0
 21 22  2  0  0  0  0
 23 21  2  0  0  0  0
 24 30  1  0  0  0  0
 24 21  1  0  0  0  0
 25 24  2  0  0  0  0
 26 27  2  0  0  0  0
 26 25  1  0  0  0  0
 27 28  1  0  0  0  0
 28 30  2  0  0  0  0
 29 27  1  0  0  0  0
M  END
>  <Pose>
1

>  <Score>
-7.796

$$$$
