/Users/jonathanwahrer/Desktop/Msc/3_Semester/Drug_Design_Praktikum/waehrer_HTS_screening/HTS_experiment/out/docking_results/vina_output/3sx0/1721_docked.pdbqt
 OpenBabel03192222483D

 28 31  0  0  1  0  0  0  0  0999 V2000
   20.9070   63.4600  -11.1920 C   0  0  0  0  0  2  0  0  0  0  0  0
   19.6900   63.9090  -10.6270 N   0  0  0  0  0  0  0  0  0  0  0  0
   19.5860   64.8700  -10.2920 H   0  0  0  0  0  0  0  0  0  0  0  0
   18.5800   62.9880  -10.5110 C   0  0  0  0  0  0  0  0  0  0  0  0
   17.3480   63.4530  -10.9040 C   0  0  2  0  0  3  0  0  0  0  0  0
   16.2530   62.5990  -10.8060 C   0  0  0  0  0  0  0  0  0  0  0  0
   16.8540   64.5970  -11.4000 N   0  0  0  0  0  0  0  0  0  0  0  0
   16.4960   61.3740  -10.3280 N   0  0  0  0  0  4  0  0  0  0  0  0
   15.1690   63.2610  -11.2420 N   0  0  0  0  0  0  0  0  0  0  0  0
   17.6800   60.9150   -9.9470 C   0  0  0  0  0  0  0  0  0  0  0  0
   17.8820   59.2950   -9.3350 Cl  0  0  0  0  0  0  0  0  0  0  0  0
   18.7440   61.7440  -10.0410 N   0  0  0  0  0  0  0  0  0  0  0  0
   15.5280   64.5020  -11.6130 C   0  0  0  0  0  3  0  0  0  0  0  0
   17.4730   65.4330  -11.5800 H   0  0  0  0  0  0  0  0  0  0  0  0
   22.0900   63.5900  -10.3560 C   0  0  0  0  0  0  0  0  0  0  0  0
   23.2000   63.8600  -11.0780 O   0  0  0  0  0  0  0  0  0  0  0  0
   22.2760   63.4880   -9.0050 N   0  0  0  0  0  0  0  0  0  0  0  0
   21.3340   63.1090   -8.0090 C   0  0  0  0  0  2  0  0  0  0  0  0
   23.6570   63.8470   -8.5030 C   0  0  0  0  0  2  0  0  0  0  0  0
   21.0460   64.2500   -7.0360 C   0  0  0  0  0  2  0  0  0  0  0  0
   22.2620   65.0090   -6.9670 N   0  0  0  0  0  0  0  0  0  0  0  0
   23.5020   64.2940   -7.0460 C   0  0  0  0  0  2  0  0  0  0  0  0
   22.2760   66.4080   -6.8230 C   0  0  0  0  0  0  0  0  0  0  0  0
   23.3470   67.0660   -6.2910 N   0  0  0  0  0  0  0  0  0  0  0  0
   23.4240   68.3750   -6.1270 C   0  0  0  0  0  3  0  0  0  0  0  0
   22.4000   69.2030   -6.4900 C   0  0  0  0  0  3  0  0  0  0  0  0
   21.2780   68.5990   -7.0380 C   0  0  0  0  0  3  0  0  0  0  0  0
   21.2200   67.2240   -7.2010 C   0  0  0  0  0  3  0  0  0  0  0  0
  1  2  1  0  0  0  0
  1 15  1  0  0  0  0
  2  4  1  0  0  0  0
  2  3  1  0  0  0  0
  4 12  2  0  0  0  0
  5  6  1  6  0  0  0
  5  4  1  0  0  0  0
  6  8  2  0  0  0  0
  7  5  1  0  0  0  0
  8 10  2  0  0  0  0
  9  6  1  0  0  0  0
 10 11  1  0  0  0  0
 12 10  1  0  0  0  0
 13  7  1  0  0  0  0
 13  9  2  0  0  0  0
 14  7  1  0  0  0  0
 15 17  1  0  0  0  0
 16 15  2  0  0  0  0
 17 19  1  0  0  0  0
 17 18  1  0  0  0  0
 18 20  1  0  0  0  0
 19 22  1  0  0  0  0
 20 21  1  0  0  0  0
 21 23  1  0  0  0  0
 22 21  1  0  0  0  0
 23 24  1  0  0  0  0
 24 25  2  0  0  0  0
 26 25  1  0  0  0  0
 27 26  2  0  0  0  0
 28 27  1  0  0  0  0
 28 23  2  0  0  0  0
M  END
>  <Pose>
1

>  <Score>
-8.770

$$$$
