/Users/jonathanwahrer/Desktop/Msc/3_Semester/Drug_Design_Praktikum/waehrer_HTS_screening/HTS_experiment/out/docking_results/vina_output/3sx0/1726_docked.pdbqt
 OpenBabel03192222483D

 30 33  0  0  1  0  0  0  0  0999 V2000
   21.7400   63.8870   -8.2400 N   0  0  0  0  0  4  0  0  0  0  0  0
   21.3980   65.0490   -7.4890 C   0  0  0  0  0  2  0  0  0  0  0  0
   22.3640   65.4210   -6.4100 C   0  0  1  0  0  3  0  0  0  0  0  0
   22.3370   64.5270   -5.2210 C   0  0  0  0  0  2  0  0  0  0  0  0
   23.5260   63.7460   -5.0230 N   0  0  0  0  0  0  0  0  0  0  0  0
   24.4070   63.4350   -5.9910 C   0  0  0  0  0  0  0  0  0  0  0  0
   25.5370   62.6920   -5.8030 C   0  0  0  0  0  3  0  0  0  0  0  0
   25.8130   62.2180   -4.5370 C   0  0  0  0  0  3  0  0  0  0  0  0
   24.9180   62.5300   -3.5420 C   0  0  0  0  0  3  0  0  0  0  0  0
   23.7890   63.2810   -3.7670 C   0  0  0  0  0  0  0  0  0  0  0  0
   22.9920   63.5470   -2.8310 O   0  0  0  0  0  0  0  0  0  0  0  0
   24.0460   63.9840   -7.3530 C   0  0  1  0  0  3  0  0  0  0  0  0
   22.9040   63.1890   -7.8500 C   0  0  0  0  0  2  0  0  0  0  0  0
   23.7380   65.4380   -7.0900 C   0  0  0  0  0  2  0  0  0  0  0  0
   21.8710   64.1920   -9.2520 H   0  0  0  0  0  0  0  0  0  0  0  0
   20.5720   63.0280   -8.2560 C   0  0  0  0  0  2  0  0  0  0  0  0
   20.0760   62.7060   -9.6300 C   0  0  1  0  0  3  0  0  0  0  0  0
   18.9770   63.7200   -9.9470 C   0  0  0  0  0  2  0  0  0  0  0  0
   17.7850   63.1870   -9.4490 O   0  0  0  0  0  0  0  0  0  0  0  0
   16.6770   62.8340  -10.1440 C   0  0  0  0  0  0  0  0  0  0  0  0
   15.7800   63.7930  -10.5570 C   0  0  0  0  0  0  0  0  0  0  0  0
   16.1380   65.6140  -10.1280 Br  0  0  0  0  0  0  0  0  0  0  0  0
   14.6290   63.4690  -11.2720 C   0  0  0  0  0  3  0  0  0  0  0  0
   14.3710   62.1650  -11.5780 C   0  0  0  0  0  0  0  0  0  0  0  0
   15.2530   61.1790  -11.1780 C   0  0  0  0  0  3  0  0  0  0  0  0
   13.1340   61.8250  -12.3470 C   0  0  0  0  0  1  0  0  0  0  0  0
   16.4030   61.5220  -10.4610 C   0  0  0  0  0  0  0  0  0  0  0  0
   17.6240   60.1720   -9.9050 Br  0  0  0  0  0  0  0  0  0  0  0  0
   21.1240   62.7920  -10.5440 O   0  0  0  0  0  0  0  0  0  0  0  0
   20.7220   63.1380  -11.3900 H   0  0  0  0  0  0  0  0  0  0  0  0
  1 13  1  0  0  0  0
  1  2  1  0  0  0  0
  3  2  1  6  0  0  0
  3  4  1  0  0  0  0
  4  5  1  0  0  0  0
  5 10  1  0  0  0  0
  6  7  2  0  0  0  0
  6  5  1  0  0  0  0
  7  8  1  0  0  0  0
  8  9  2  0  0  0  0
 10  9  1  0  0  0  0
 10 11  2  0  0  0  0
 12 13  1  1  0  0  0
 12 14  1  0  0  0  0
 12  6  1  0  0  0  0
 14  3  1  0  0  0  0
 15  1  1  0  0  0  0
 16  1  1  0  0  0  0
 17 18  1  6  0  0  0
 17 16  1  0  0  0  0
 18 19  1  0  0  0  0
 20 19  1  0  0  0  0
 21 20  2  0  0  0  0
 21 22  1  0  0  0  0
 23 21  1  0  0  0  0
 24 23  2  0  0  0  0
 24 25  1  0  0  0  0
 25 27  2  0  0  0  0
 26 24  1  0  0  0  0
 27 20  1  0  0  0  0
 27 28  1  0  0  0  0
 29 17  1  0  0  0  0
 30 29  1  0  0  0  0
M  END
>  <Pose>
1

>  <Score>
-8.075

$$$$
