MODEL 1
REMARK VINA RESULT:    -8.075      0.000      0.000
REMARK INTER + INTRA:         -10.845
REMARK INTER:                 -10.672
REMARK INTRA:                  -0.173
REMARK UNBOUND:                -0.173
REMARK  6 active torsions:
REMARK  status: ('A' for Active; 'I' for Inactive)
REMARK    1  A    between atoms: C_3  and  O_10 
REMARK    2  A    between atoms: O_10  and  C_11 
REMARK    3  A    between atoms: C_11  and  C_12 
REMARK    4  A    between atoms: C_12  and  O_13 
REMARK    5  A    between atoms: C_12  and  C_14 
REMARK    6  A    between atoms: C_14  and  N_15 
ROOT
ATOM      1  N   UNK d   1      21.740  63.887  -8.240  0.00  0.00    -0.068 N 
ATOM      2  C   UNK d   1      21.398  65.049  -7.489  0.00  0.00     0.241 C 
ATOM      3  C   UNK d   1      22.364  65.421  -6.410  0.00  0.00     0.031 C 
ATOM      4  C   UNK d   1      22.337  64.527  -5.221  0.00  0.00     0.138 C 
ATOM      5  N   UNK d   1      23.526  63.746  -5.023  0.00  0.00    -0.317 N 
ATOM      6  C   UNK d   1      24.407  63.435  -5.991  0.00  0.00     0.020 A 
ATOM      7  C   UNK d   1      25.537  62.692  -5.803  0.00  0.00     0.026 A 
ATOM      8  C   UNK d   1      25.813  62.218  -4.537  0.00  0.00     0.007 A 
ATOM      9  C   UNK d   1      24.918  62.530  -3.542  0.00  0.00     0.074 A 
ATOM     10  C   UNK d   1      23.789  63.281  -3.767  0.00  0.00     0.247 A 
ATOM     11  O   UNK d   1      22.992  63.547  -2.831  0.00  0.00    -0.268 OA
ATOM     12  C   UNK d   1      24.046  63.984  -7.353  0.00  0.00     0.062 C 
ATOM     13  C   UNK d   1      22.904  63.189  -7.850  0.00  0.00     0.245 C 
ATOM     14  C   UNK d   1      23.738  65.438  -7.090  0.00  0.00     0.020 C 
ATOM     15  H   UNK d   1      21.871  64.192  -9.252  0.00  0.00     0.280 HD
ENDROOT
BRANCH   1  16
ATOM     16  C   UNK d   1      20.572  63.028  -8.256  0.00  0.00     0.268 C 
BRANCH  16  17
ATOM     17  C   UNK d   1      20.076  62.706  -9.630  0.00  0.00     0.168 C 
BRANCH  17  18
ATOM     18  C   UNK d   1      18.977  63.720  -9.947  0.00  0.00     0.209 C 
BRANCH  18  19
ATOM     19  O   UNK d   1      17.785  63.187  -9.449  0.00  0.00    -0.346 OA
BRANCH  19  20
ATOM     20  C   UNK d   1      16.677  62.834 -10.144  0.00  0.00     0.103 A 
ATOM     21  C   UNK d   1      15.780  63.793 -10.557  0.00  0.00     0.046 A 
ATOM     22 Br   UNK d   1      16.138  65.614 -10.128  0.00  0.00    -0.048 Br
ATOM     23  C   UNK d   1      14.629  63.469 -11.272  0.00  0.00     0.028 A 
ATOM     24  C   UNK d   1      14.371  62.165 -11.578  0.00  0.00    -0.059 A 
ATOM     25  C   UNK d   1      15.253  61.179 -11.178  0.00  0.00     0.028 A 
ATOM     26  C   UNK d   1      13.134  61.825 -12.347  0.00  0.00     0.048 C 
ATOM     27  C   UNK d   1      16.403  61.522 -10.461  0.00  0.00     0.046 A 
ATOM     28 Br   UNK d   1      17.624  60.172  -9.905  0.00  0.00    -0.048 Br
ENDBRANCH  19  20
ENDBRANCH  18  19
ENDBRANCH  17  18
BRANCH  17  29
ATOM     29  O   UNK d   1      21.124  62.792 -10.544  0.00  0.00    -0.392 OA
ATOM     30  H   UNK d   1      20.722  63.138 -11.390  0.00  0.00     0.210 HD
ENDBRANCH  17  29
ENDBRANCH  16  17
ENDBRANCH   1  16
TORSDOF 6
ENDMDL
