MODEL 1
REMARK VINA RESULT:    -3.685      0.000      0.000
REMARK INTER + INTRA:          -5.709
REMARK INTER:                  -4.655
REMARK INTRA:                  -1.055
REMARK UNBOUND:                -1.055
REMARK  5 active torsions:
REMARK  status: ('A' for Active; 'I' for Inactive)
REMARK    1  A    between atoms: C_13  and  C_30 
REMARK    2  A    between atoms: N_18  and  C_21 
REMARK    3  A    between atoms: C_21  and  C_22 
REMARK    4  A    between atoms: C_23  and  O_28 
REMARK    5  A    between atoms: C_30  and  O_31 
ROOT
ATOM      1 Cl   UNK d   1      14.375  59.859 -17.612  0.00  0.00    -0.084 Cl
ATOM      2  C   UNK d   1      12.845  60.394 -16.899  0.00  0.00     0.034 A 
ATOM      3  C   UNK d   1      12.805  61.463 -16.039  0.00  0.00     0.036 A 
ATOM      4  C   UNK d   1      11.617  61.871 -15.492  0.00  0.00     0.019 A 
ATOM      5  C   UNK d   1      10.464  61.200 -15.812  0.00  0.00     0.044 A 
ATOM      6  C   UNK d   1      10.474  60.111 -16.683  0.00  0.00     0.032 A 
ATOM      7  C   UNK d   1      11.684  59.725 -17.216  0.00  0.00     0.026 A 
ATOM      8  N   UNK d   1       9.345  61.761 -15.151  0.00  0.00    -0.324 N 
ATOM      9  C   UNK d   1       9.835  62.845 -14.376  0.00  0.00     0.267 A 
ATOM     10  O   UNK d   1       9.145  63.587 -13.645  0.00  0.00    -0.270 OA
ATOM     11  C   UNK d   1      11.294  62.972 -14.556  0.00  0.00     0.279 A 
ATOM     12  N   UNK d   1      12.017  62.866 -13.312  0.00  0.00     0.116 N 
ATOM     13  C   UNK d   1      13.124  63.768 -13.373  0.00  0.00     0.264 C 
ATOM     14  C   UNK d   1      12.684  64.947 -14.210  0.00  0.00     0.130 C 
ATOM     15  C   UNK d   1      11.626  64.321 -15.082  0.00  0.00     0.147 C 
ATOM     16  C   UNK d   1      12.164  64.326 -16.464  0.00  0.00     0.235 C 
ATOM     17  O   UNK d   1      11.822  63.624 -17.450  0.00  0.00    -0.272 OA
ATOM     18  N   UNK d   1      13.199  65.330 -16.479  0.00  0.00    -0.283 N 
ATOM     19  C   UNK d   1      13.735  65.427 -15.143  0.00  0.00     0.234 C 
ATOM     20  O   UNK d   1      14.875  65.840 -14.807  0.00  0.00    -0.272 OA
ATOM     21  H   UNK d   1       8.326  61.466 -15.195  0.00  0.00     0.169 HD
ATOM     22  H   UNK d   1      12.306  61.896 -13.150  0.00  0.00     0.318 HD
ENDROOT
BRANCH  13  23
ATOM     23  C   UNK d   1      13.577  64.198 -11.994  0.00  0.00     0.148 C 
ATOM     24  C   UNK d   1      13.690  62.927 -11.160  0.00  0.00     0.041 C 
BRANCH  23  25
ATOM     25  O   UNK d   1      14.868  64.704 -12.115  0.00  0.00    -0.394 OA
ATOM     26  H   UNK d   1      15.384  64.146 -12.740  0.00  0.00     0.210 HD
ENDBRANCH  23  25
ENDBRANCH  13  23
BRANCH  18  27
ATOM     27  C   UNK d   1      13.638  66.110 -17.616  0.00  0.00     0.176 C 
BRANCH  27  28
ATOM     28  C   UNK d   1      13.294  67.550 -17.413  0.00  0.00    -0.006 A 
ATOM     29  C   UNK d   1      11.980  67.966 -17.398  0.00  0.00     0.076 A 
ATOM     30  C   UNK d   1      11.687  69.306 -17.207  0.00  0.00     0.037 A 
ATOM     31  C   UNK d   1      12.676  70.253 -17.028  0.00  0.00     0.003 A 
ATOM     32  C   UNK d   1      13.993  69.847 -17.042  0.00  0.00     0.001 A 
ATOM     33  C   UNK d   1      14.270  68.513 -17.233  0.00  0.00     0.011 A 
BRANCH  29  34
ATOM     34  O   UNK d   1      10.979  67.006 -17.579  0.00  0.00    -0.355 OA
ATOM     35  C   UNK d   1       9.727  67.196 -16.910  0.00  0.00     0.210 C 
ENDBRANCH  29  34
ENDBRANCH  27  28
ENDBRANCH  18  27
TORSDOF 5
ENDMDL
