/Users/jonathanwahrer/Desktop/Msc/3_Semester/Drug_Design_Praktikum/waehrer_HTS_screening/HTS_experiment/out/docking_results/vina_output/3sx0/1741_docked.pdbqt
 OpenBabel03192222493D

 28 31  0  0  0  0  0  0  0  0999 V2000
   19.8540   63.0680   -8.9480 C   0  0  0  0  0  0  0  0  0  0  0  0
   19.0830   63.0910   -7.9680 O   0  0  0  0  0  0  0  0  0  0  0  0
   20.8050   64.0820   -9.1260 N   0  0  0  0  0  0  0  0  0  0  0  0
   20.9640   65.1930   -8.2130 C   0  0  0  0  0  2  0  0  0  0  0  0
   22.4340   65.2440   -7.8310 C   0  0  0  0  0  2  0  0  0  0  0  0
   23.1390   64.1380   -8.3280 N   0  0  0  0  0  0  0  0  0  0  0  0
   23.1290   63.8540   -9.7040 C   0  0  0  0  0  2  0  0  0  0  0  0
   21.7330   64.0950  -10.2670 C   0  0  0  0  0  2  0  0  0  0  0  0
   19.7400   61.9340   -9.9270 C   0  0  0  0  0  2  0  0  0  0  0  0
   18.3630   61.5320  -10.1250 N   0  0  0  0  0  0  0  0  0  0  0  0
   17.3680   62.3360  -10.5990 C   0  0  0  0  0  0  0  0  0  0  0  0
   16.1820   61.6430  -10.6610 C   0  0  0  0  0  0  0  0  0  0  0  0
   17.4060   63.6540  -10.9930 C   0  0  0  0  0  3  0  0  0  0  0  0
   15.0060   62.2330  -11.1120 C   0  0  0  0  0  3  0  0  0  0  0  0
   16.4440   60.3660  -10.2120 C   0  0  0  0  0  3  0  0  0  0  0  0
   15.0370   63.5710  -11.5130 C   0  0  0  0  0  0  0  0  0  0  0  0
   13.4330   64.4150  -12.1400 Br  0  0  0  0  0  0  0  0  0  0  0  0
   16.2340   64.2510  -11.4440 C   0  0  0  0  0  3  0  0  0  0  0  0
   17.7870   60.3460   -9.8970 C   0  0  0  0  0  3  0  0  0  0  0  0
   23.7100   63.2180   -7.4330 C   0  0  0  0  0  2  0  0  0  0  0  0
   23.5810   63.5930   -6.0000 C   0  0  0  0  0  0  0  0  0  0  0  0
   22.5190   64.1750   -5.6660 O   0  0  0  0  0  0  0  0  0  0  0  0
   24.5640   63.3340   -5.0330 N   0  0  0  0  0  0  0  0  0  0  0  0
   24.3630   63.7410   -3.6570 C   0  0  0  0  0  2  0  0  0  0  0  0
   25.8180   62.6640   -5.3120 C   0  0  0  0  0  2  0  0  0  0  0  0
   24.5640   62.5130   -2.7940 C   0  0  0  0  0  2  0  0  0  0  0  0
   25.9170   62.1720   -2.9390 O   0  0  0  0  0  0  0  0  0  0  0  0
   26.1980   61.7360   -4.2110 C   0  0  0  0  0  2  0  0  0  0  0  0
  1  2  2  0  0  0  0
  3  1  1  0  0  0  0
  3  4  1  0  0  0  0
  4  5  1  0  0  0  0
  6  5  1  0  0  0  0
  6 20  1  0  0  0  0
  7  6  1  0  0  0  0
  8  7  1  0  0  0  0
  8  3  1  0  0  0  0
  9  1  1  0  0  0  0
 10  9  1  0  0  0  0
 10 19  1  0  0  0  0
 11 10  1  0  0  0  0
 12 11  1  0  0  0  0
 12 15  1  0  0  0  0
 13 11  2  0  0  0  0
 14 12  2  0  0  0  0
 15 19  2  0  0  0  0
 16 18  2  0  0  0  0
 16 14  1  0  0  0  0
 17 16  1  0  0  0  0
 18 13  1  0  0  0  0
 20 21  1  0  0  0  0
 21 22  2  0  0  0  0
 21 23  1  0  0  0  0
 23 24  1  0  0  0  0
 24 26  1  0  0  0  0
 25 23  1  0  0  0  0
 25 28  1  0  0  0  0
 27 26  1  0  0  0  0
 28 27  1  0  0  0  0
M  END
>  <Pose>
1

>  <Score>
-9.002

$$$$
