MODEL 1
REMARK VINA RESULT:    -9.002      0.000      0.000
REMARK INTER + INTRA:         -10.191
REMARK INTER:                 -11.107
REMARK INTRA:                   0.916
REMARK UNBOUND:                 0.916
REMARK  4 active torsions:
REMARK  status: ('A' for Active; 'I' for Inactive)
REMARK    1  A    between atoms: N_6  and  C_9 
REMARK    2  A    between atoms: C_9  and  C_10 
REMARK       I    between atoms: C_10  and  N_12 
REMARK    3  A    between atoms: N_15  and  C_18 
REMARK    4  A    between atoms: C_18  and  C_19 
REMARK       I    between atoms: C_19  and  N_21 
ROOT
ATOM      1  C   UNK d   1      19.854  63.068  -8.948  0.00  0.00     0.238 C 
ATOM      2  O   UNK d   1      19.083  63.091  -7.968  0.00  0.00    -0.272 OA
ATOM      3  N   UNK d   1      20.805  64.082  -9.126  0.00  0.00    -0.348 N 
ATOM      4  C   UNK d   1      20.964  65.193  -8.213  0.00  0.00     0.145 C 
ATOM      5  C   UNK d   1      22.434  65.244  -7.831  0.00  0.00     0.137 C 
ATOM      6  N   UNK d   1      23.139  64.138  -8.328  0.00  0.00    -0.401 N 
ATOM      7  C   UNK d   1      23.129  63.854  -9.704  0.00  0.00     0.137 C 
ATOM      8  C   UNK d   1      21.733  64.095 -10.267  0.00  0.00     0.145 C 
ENDROOT
BRANCH   1   9
ATOM      9  C   UNK d   1      19.740  61.934  -9.927  0.00  0.00     0.231 C 
BRANCH   9  10
ATOM     10  N   UNK d   1      18.363  61.532 -10.125  0.00  0.00    -0.347 N 
ATOM     11  C   UNK d   1      17.368  62.336 -10.599  0.00  0.00     0.045 A 
ATOM     12  C   UNK d   1      16.182  61.643 -10.661  0.00  0.00    -0.007 A 
ATOM     13  C   UNK d   1      17.406  63.654 -10.993  0.00  0.00     0.032 A 
ATOM     14  C   UNK d   1      15.006  62.233 -11.112  0.00  0.00     0.032 A 
ATOM     15  C   UNK d   1      16.444  60.366 -10.212  0.00  0.00     0.031 A 
ATOM     16  C   UNK d   1      15.037  63.571 -11.513  0.00  0.00     0.011 A 
ATOM     17 Br   UNK d   1      13.433  64.415 -12.140  0.00  0.00    -0.051 Br
ATOM     18  C   UNK d   1      16.234  64.251 -11.444  0.00  0.00     0.021 A 
ATOM     19  C   UNK d   1      17.787  60.346  -9.897  0.00  0.00     0.092 A 
ENDBRANCH   9  10
ENDBRANCH   1   9
BRANCH   6  20
ATOM     20  C   UNK d   1      23.710  63.218  -7.433  0.00  0.00     0.220 C 
BRANCH  20  21
ATOM     21  C   UNK d   1      23.581  63.593  -6.000  0.00  0.00     0.237 C 
ATOM     22  O   UNK d   1      22.519  64.175  -5.666  0.00  0.00    -0.272 OA
ATOM     23  N   UNK d   1      24.564  63.334  -5.033  0.00  0.00    -0.347 N 
ATOM     24  C   UNK d   1      24.363  63.741  -3.657  0.00  0.00     0.152 C 
ATOM     25  C   UNK d   1      25.818  62.664  -5.312  0.00  0.00     0.152 C 
ATOM     26  C   UNK d   1      24.564  62.513  -2.794  0.00  0.00     0.187 C 
ATOM     27  O   UNK d   1      25.917  62.172  -2.939  0.00  0.00    -0.388 OA
ATOM     28  C   UNK d   1      26.198  61.736  -4.211  0.00  0.00     0.187 C 
ENDBRANCH  20  21
ENDBRANCH   6  20
TORSDOF 4
ENDMDL
