MODEL 1
REMARK VINA RESULT:    -7.518      0.000      0.000
REMARK INTER + INTRA:          -8.800
REMARK INTER:                  -9.496
REMARK INTRA:                   0.696
REMARK UNBOUND:                 0.696
REMARK  5 active torsions:
REMARK  status: ('A' for Active; 'I' for Inactive)
REMARK    1  A    between atoms: C_4  and  N_8 
REMARK    2  A    between atoms: C_14  and  C_17 
REMARK    3  A    between atoms: C_19  and  C_22 
REMARK    4  A    between atoms: C_24  and  O_29 
REMARK    5  A    between atoms: C_25  and  O_28 
ROOT
ATOM      1  N   UNK d   1      22.718  63.423 -10.496  0.00  0.00    -0.233 N 
ATOM      2  C   UNK d   1      23.247  62.763  -9.356  0.00  0.00     0.336 C 
ATOM      3  O   UNK d   1      24.284  62.090  -9.422  0.00  0.00    -0.246 OA
ATOM      4  N   UNK d   1      22.575  62.868  -8.092  0.00  0.00    -0.277 N 
ATOM      5  C   UNK d   1      21.378  63.631  -7.958  0.00  0.00     0.244 C 
ATOM      6  O   UNK d   1      21.006  64.098  -6.868  0.00  0.00    -0.272 OA
ATOM      7  C   UNK d   1      20.545  63.872  -9.190  0.00  0.00     0.221 C 
ATOM      8  C   UNK d   1      21.501  64.168 -10.278  0.00  0.00     0.251 C 
ATOM      9  O   UNK d   1      21.285  65.129 -11.102  0.00  0.00    -0.271 OA
ATOM     10  H   UNK d   1      22.975  62.381  -7.280  0.00  0.00     0.173 HD
ENDROOT
BRANCH   7  11
ATOM     11  C   UNK d   1      19.706  62.665  -9.457  0.00  0.00     0.041 C 
ATOM     12  C   UNK d   1      18.918  62.004  -8.635  0.00  0.00     0.026 C 
ATOM     13  C   UNK d   1      18.297  60.873  -9.379  0.00  0.00     0.134 C 
ATOM     14  N   UNK d   1      19.292  60.682 -10.465  0.00  0.00    -0.228 NA
ATOM     15  N   UNK d   1      19.664  62.006 -10.730  0.00  0.00    -0.323 N 
ATOM     16  H   UNK d   1      20.083  60.104 -10.118  0.00  0.00     0.147 HD
ATOM     17  H   UNK d   1      19.868  62.436 -11.626  0.00  0.00     0.180 HD
BRANCH  13  18
ATOM     18  C   UNK d   1      17.061  61.357 -10.053  0.00  0.00    -0.032 A 
ATOM     19  C   UNK d   1      16.842  62.730 -10.292  0.00  0.00     0.048 A 
ATOM     20  C   UNK d   1      15.745  63.215 -10.935  0.00  0.00     0.101 A 
ATOM     21  C   UNK d   1      14.779  62.338 -11.389  0.00  0.00     0.099 A 
ATOM     22  C   UNK d   1      14.960  60.991 -11.172  0.00  0.00     0.040 A 
ATOM     23  C   UNK d   1      16.075  60.514 -10.520  0.00  0.00     0.012 A 
BRANCH  20  24
ATOM     24  O   UNK d   1      15.574  64.592 -11.143  0.00  0.00    -0.353 OA
ATOM     25  C   UNK d   1      15.771  65.485 -10.069  0.00  0.00     0.210 C 
ENDBRANCH  20  24
BRANCH  21  26
ATOM     26  O   UNK d   1      13.652  62.816 -12.049  0.00  0.00    -0.358 OA
ATOM     27  H   UNK d   1      13.058  63.489 -11.581  0.00  0.00     0.217 HD
ENDBRANCH  21  26
ENDBRANCH  13  18
ENDBRANCH   7  11
BRANCH   1  28
ATOM     28  C   UNK d   1      23.318  63.416 -11.784  0.00  0.00     0.048 A 
ATOM     29  C   UNK d   1      24.716  63.434 -11.850  0.00  0.00     0.054 A 
ATOM     30  C   UNK d   1      25.393  63.443 -13.049  0.00  0.00     0.036 A 
ATOM     31 Cl   UNK d   1      27.135  63.470 -13.033  0.00  0.00    -0.084 Cl
ATOM     32  C   UNK d   1      24.722  63.436 -14.244  0.00  0.00     0.024 A 
ATOM     33  C   UNK d   1      23.326  63.417 -14.188  0.00  0.00     0.004 A 
ATOM     34  C   UNK d   1      22.657  63.408 -12.983  0.00  0.00     0.030 A 
ENDBRANCH   1  28
TORSDOF 5
ENDMDL
