/Users/jonathanwahrer/Desktop/Msc/3_Semester/Drug_Design_Praktikum/waehrer_HTS_screening/HTS_experiment/out/docking_results/vina_output/3sx0/1758_docked.pdbqt
 OpenBabel03192222503D

 28 32  0  0  1  0  0  0  0  0999 V2000
   17.0040   62.8460  -10.6920 N   0  0  0  0  0  0  0  0  0  0  0  0
   16.3050   61.7370  -10.5340 N   0  0  0  0  0  0  0  0  0  0  0  0
   15.0070   61.9140  -10.8540 C   0  0  0  0  0  0  0  0  0  0  0  0
   14.0210   61.0500  -10.8230 C   0  0  0  0  0  1  0  0  0  0  0  0
   14.8780   63.2330  -11.2420 C   0  0  0  0  0  0  0  0  0  0  0  0
   16.1390   63.7760  -11.1290 C   0  0  0  0  0  0  0  0  0  0  0  0
   16.4430   64.9670  -11.3920 O   0  0  0  0  0  0  0  0  0  0  0  0
   16.6900   60.8210  -10.2020 H   0  0  0  0  0  0  0  0  0  0  0  0
   13.7470   63.8330  -11.6440 C   0  0  0  0  0  2  0  0  0  0  0  0
   13.8160   64.5580  -12.8650 N   0  0  0  0  0  0  0  0  0  0  0  0
   14.5650   65.2410  -13.0960 H   0  0  0  0  0  0  0  0  0  0  0  0
   12.7820   64.3410  -13.8640 C   0  0  2  0  0  0  0  0  0  0  0  0
   13.2560   64.8440  -15.2190 C   0  0  0  0  0  2  0  0  0  0  0  0
   12.2470   64.5670  -16.2030 N   0  0  2  0  0  0  0  0  0  0  0  0
   11.0400   65.2820  -15.8020 C   0  0  0  0  0  2  0  0  0  0  0  0
   12.0190   63.1400  -16.2400 C   0  0  0  0  0  2  0  0  0  0  0  0
   10.5360   64.8040  -14.5450 N   0  0  1  0  0  0  0  0  0  0  0  0
   10.3050   63.3770  -14.5990 C   0  0  0  0  0  2  0  0  0  0  0  0
   11.5180   65.0730  -13.5250 C   0  0  0  0  0  2  0  0  0  0  0  0
   11.4890   62.6500  -14.9720 N   0  0  2  0  0  0  0  0  0  0  0  0
   12.5060   62.8570  -13.9670 C   0  0  0  0  0  2  0  0  0  0  0  0
   18.4140   63.0180  -10.4460 C   0  0  0  0  0  0  0  0  0  0  0  0
   18.9580   63.0450   -9.2010 C   0  0  0  0  0  3  0  0  0  0  0  0
   20.3360   63.2170   -9.0660 C   0  0  0  0  0  3  0  0  0  0  0  0
   21.1620   63.3610  -10.1620 C   0  0  0  0  0  0  0  0  0  0  0  0
   23.2410   63.6210   -9.9530 I   0  0  0  0  0  0  0  0  0  0  0  0
   20.6150   63.3350  -11.4240 C   0  0  0  0  0  3  0  0  0  0  0  0
   19.2520   63.1630  -11.5370 C   0  0  0  0  0  3  0  0  0  0  0  0
  1  2  1  0  0  0  0
  1 22  1  0  0  0  0
  2  8  1  0  0  0  0
  3  4  1  0  0  0  0
  3  2  1  0  0  0  0
  5  6  1  0  0  0  0
  5  3  2  0  0  0  0
  6  1  1  0  0  0  0
  7  6  2  0  0  0  0
  9  5  1  0  0  0  0
 10  9  1  0  0  0  0
 11 10  1  0  0  0  0
 12 19  1  0  0  0  0
 12 10  1  1  0  0  0
 13 12  1  0  0  0  0
 14 16  1  1  0  0  0
 14 15  1  0  0  0  0
 14 13  1  0  0  0  0
 17 15  1  6  0  0  0
 17 19  1  0  0  0  0
 18 17  1  0  0  0  0
 20 16  1  6  0  0  0
 20 18  1  0  0  0  0
 20 21  1  0  0  0  0
 21 12  1  0  0  0  0
 22 23  1  0  0  0  0
 23 24  2  0  0  0  0
 25 26  1  0  0  0  0
 25 24  1  0  0  0  0
 27 25  2  0  0  0  0
 28 27  1  0  0  0  0
 28 22  2  0  0  0  0
M  END
>  <Pose>
1

>  <Score>
-7.449

$$$$
