MODEL 1
REMARK VINA RESULT:    -7.449      0.000      0.000
REMARK INTER + INTRA:         -10.104
REMARK INTER:                  -9.191
REMARK INTRA:                  -0.913
REMARK UNBOUND:                -0.913
REMARK  4 active torsions:
REMARK  status: ('A' for Active; 'I' for Inactive)
REMARK    1  A    between atoms: C_5  and  N_8 
REMARK    2  A    between atoms: C_12  and  C_13 
REMARK    3  A    between atoms: C_13  and  N_14 
REMARK    4  A    between atoms: N_14  and  C_15 
ROOT
ATOM      1  N   UNK d   1      17.004  62.846 -10.692  0.00  0.00    -0.220 N 
ATOM      2  N   UNK d   1      16.305  61.737 -10.534  0.00  0.00    -0.291 N 
ATOM      3  C   UNK d   1      15.007  61.914 -10.854  0.00  0.00     0.056 A 
ATOM      4  C   UNK d   1      14.021  61.050 -10.823  0.00  0.00     0.045 C 
ATOM      5  C   UNK d   1      14.878  63.233 -11.242  0.00  0.00     0.076 A 
ATOM      6  C   UNK d   1      16.139  63.776 -11.129  0.00  0.00     0.280 A 
ATOM      7  O   UNK d   1      16.443  64.967 -11.392  0.00  0.00    -0.265 OA
ATOM      8  H   UNK d   1      16.690  60.821 -10.202  0.00  0.00     0.187 HD
ENDROOT
BRANCH   5   9
ATOM      9  C   UNK d   1      13.747  63.833 -11.644  0.00  0.00     0.103 C 
BRANCH   9  10
ATOM     10  N   UNK d   1      13.816  64.558 -12.865  0.00  0.00    -0.384 N 
ATOM     11  H   UNK d   1      14.565  65.241 -13.096  0.00  0.00     0.159 HD
BRANCH  10  12
ATOM     12  C   UNK d   1      12.782  64.341 -13.864  0.00  0.00     0.109 C 
ATOM     13  C   UNK d   1      13.256  64.844 -15.219  0.00  0.00     0.311 C 
ATOM     14  N   UNK d   1      12.247  64.567 -16.203  0.00  0.00     0.147 N 
ATOM     15  C   UNK d   1      11.040  65.282 -15.802  0.00  0.00     0.547 C 
ATOM     16  C   UNK d   1      12.019  63.140 -16.240  0.00  0.00     0.547 C 
ATOM     17  N   UNK d   1      10.536  64.804 -14.545  0.00  0.00     0.147 N 
ATOM     18  C   UNK d   1      10.305  63.377 -14.599  0.00  0.00     0.547 C 
ATOM     19  C   UNK d   1      11.518  65.073 -13.525  0.00  0.00     0.311 C 
ATOM     20  N   UNK d   1      11.489  62.650 -14.972  0.00  0.00     0.147 N 
ATOM     21  C   UNK d   1      12.506  62.857 -13.967  0.00  0.00     0.311 C 
ENDBRANCH  10  12
ENDBRANCH   9  10
ENDBRANCH   5   9
BRANCH   1  22
ATOM     22  C   UNK d   1      18.414  63.018 -10.446  0.00  0.00     0.060 A 
ATOM     23  C   UNK d   1      18.958  63.045  -9.201  0.00  0.00     0.033 A 
ATOM     24  C   UNK d   1      20.336  63.217  -9.066  0.00  0.00     0.020 A 
ATOM     25  C   UNK d   1      21.162  63.361 -10.162  0.00  0.00     0.006 A 
ATOM     26  I   UNK d   1      23.241  63.621  -9.953  0.00  0.00    -0.045 I 
ATOM     27  C   UNK d   1      20.615  63.335 -11.424  0.00  0.00     0.020 A 
ATOM     28  C   UNK d   1      19.252  63.163 -11.537  0.00  0.00     0.033 A 
ENDBRANCH   1  22
TORSDOF 4
ENDMDL
