MODEL 1
REMARK VINA RESULT:    -8.499      0.000      0.000
REMARK INTER + INTRA:         -11.557
REMARK INTER:                 -11.479
REMARK INTRA:                  -0.077
REMARK UNBOUND:                -0.077
REMARK  6 active torsions:
REMARK  status: ('A' for Active; 'I' for Inactive)
REMARK    1  A    between atoms: S_1  and  N_4 
REMARK    2  A    between atoms: S_1  and  C_21 
REMARK    3  A    between atoms: C_5  and  C_9 
REMARK       I    between atoms: C_9  and  N_11 
REMARK    4  A    between atoms: N_11  and  C_12 
REMARK    5  A    between atoms: C_12  and  C_13 
REMARK    6  A    between atoms: C_13  and  N_14 
ROOT
ATOM      1  N   UNK d   1      17.656  62.623 -11.006  0.00  0.00    -0.293 N 
ATOM      2  C   UNK d   1      16.577  62.622 -10.144  0.00  0.00     0.188 C 
ATOM      3  C   UNK d   1      16.456  64.065  -9.635  0.00  0.00     0.037 C 
ATOM      4  C   UNK d   1      16.833  64.855 -10.869  0.00  0.00     0.023 C 
ATOM      5  C   UNK d   1      17.774  63.943 -11.619  0.00  0.00     0.136 C 
ENDROOT
BRANCH   1   6
ATOM      6  S   UNK d   1      19.111  61.869 -10.738  0.00  0.00     0.263 S 
ATOM      7  O   UNK d   1      19.692  61.242 -12.004  0.00  0.00    -0.200 OA
ATOM      8  O   UNK d   1      18.869  60.667  -9.823  0.00  0.00    -0.200 OA
BRANCH   6   9
ATOM      9  C   UNK d   1      20.330  62.850  -9.979  0.00  0.00     0.104 A 
ATOM     10  C   UNK d   1      20.210  63.135  -8.608  0.00  0.00     0.066 A 
ATOM     11  C   UNK d   1      21.071  63.942  -7.922  0.00  0.00     0.097 A 
ATOM     12  C   UNK d   1      22.116  64.501  -8.635  0.00  0.00     0.070 A 
ATOM     13  O   UNK d   1      20.948  64.219  -6.569  0.00  0.00    -0.340 OA
ATOM     14  C   UNK d   1      22.293  64.266  -9.965  0.00  0.00     0.058 A 
ATOM     15  N   UNK d   1      23.033  65.347  -7.924  0.00  0.00    -0.323 N 
ATOM     16  C   UNK d   1      21.387  63.436 -10.615  0.00  0.00     0.059 A 
ATOM     17 Cl   UNK d   1      21.741  63.100 -12.295  0.00  0.00    -0.083 Cl
ATOM     18  C   UNK d   1      22.840  65.578  -6.531  0.00  0.00     0.246 C 
ATOM     19  H   UNK d   1      23.831  65.778  -8.453  0.00  0.00     0.169 HD
ATOM     20  O   UNK d   1      23.301  66.603  -5.999  0.00  0.00    -0.271 OA
ATOM     21  C   UNK d   1      22.080  64.554  -5.770  0.00  0.00     0.278 C 
ENDBRANCH   6   9
ENDBRANCH   1   6
BRANCH   2  22
ATOM     22  C   UNK d   1      15.325  62.292 -10.939  0.00  0.00     0.241 C 
ATOM     23  O   UNK d   1      15.170  61.097 -11.225  0.00  0.00    -0.271 OA
ATOM     24  N   UNK d   1      14.439  63.323 -11.296  0.00  0.00    -0.358 N 
ATOM     25  H   UNK d   1      14.607  64.320 -11.051  0.00  0.00     0.162 HD
BRANCH  24  26
ATOM     26  C   UNK d   1      13.241  63.025 -12.042  0.00  0.00     0.152 C 
BRANCH  26  27
ATOM     27  C   UNK d   1      13.222  63.498 -13.445  0.00  0.00     0.292 C 
BRANCH  27  28
ATOM     28  N   UNK d   1      12.517  64.704 -13.699  0.00  0.00     0.090 N 
ATOM     29  C   UNK d   1      11.304  64.570 -14.439  0.00  0.00     0.272 C 
ATOM     30  C   UNK d   1      10.290  65.528 -13.846  0.00  0.00     0.030 C 
ATOM     31  C   UNK d   1      10.908  66.909 -13.773  0.00  0.00     0.002 C 
ATOM     32  C   UNK d   1      11.572  67.201 -15.092  0.00  0.00     0.002 C 
ATOM     33  C   UNK d   1      12.907  66.579 -15.263  0.00  0.00     0.030 C 
ATOM     34  C   UNK d   1      13.388  65.744 -14.136  0.00  0.00     0.272 C 
ENDBRANCH  27  28
ENDBRANCH  26  27
ENDBRANCH  24  26
ENDBRANCH   2  22
TORSDOF 6
ENDMDL
