/Users/jonathanwahrer/Desktop/Msc/3_Semester/Drug_Design_Praktikum/waehrer_HTS_screening/HTS_experiment/out/docking_results/vina_output/3sx0/1781_docked.pdbqt
 OpenBabel03192222513D

 24 27  0  0  0  0  0  0  0  0999 V2000
   21.6300   63.7580   -9.6740 C   0  0  0  0  0  0  0  0  0  0  0  0
   22.4080   64.1030  -10.6690 O   0  0  0  0  0  0  0  0  0  0  0  0
   22.2750   63.6130   -8.4550 N   0  0  0  0  0  0  0  0  0  0  0  0
   21.7950   63.2020   -7.1780 C   0  0  0  0  0  2  0  0  0  0  0  0
   21.6070   64.5100   -6.3830 C   0  0  0  0  0  2  0  0  0  0  0  0
   22.7630   65.3720   -6.6930 N   0  0  0  0  0  0  0  0  0  0  0  0
   23.9790   64.7370   -7.1110 C   0  0  0  0  0  2  0  0  0  0  0  0
   23.7250   63.9980   -8.4110 C   0  0  0  0  0  2  0  0  0  0  0  0
   20.2530   63.6000  -10.0480 C   0  0  0  0  0  0  0  0  0  0  0  0
   19.3140   63.2160   -9.0830 C   0  0  0  0  0  3  0  0  0  0  0  0
   17.9840   63.0030   -9.3630 C   0  0  0  0  0  3  0  0  0  0  0  0
   17.5000   63.1590  -10.6380 C   0  0  0  0  0  0  0  0  0  0  0  0
   15.7900   62.8870  -11.0020 Cl  0  0  0  0  0  0  0  0  0  0  0  0
   18.3830   63.5340  -11.6160 C   0  0  0  0  0  3  0  0  0  0  0  0
   19.7410   63.7490  -11.3160 C   0  0  0  0  0  3  0  0  0  0  0  0
   22.6350   66.7860   -6.5660 C   0  0  0  0  0  0  0  0  0  0  0  0
   23.6540   67.5410   -6.0980 N   0  0  0  0  0  0  0  0  0  0  0  0
   23.5710   68.8520   -5.9640 N   0  0  0  0  0  0  0  0  0  0  0  0
   22.4650   69.5390   -6.2840 C   0  0  0  0  0  0  0  0  0  0  0  0
   24.4560   69.7890   -5.5220 C   0  0  0  0  0  3  0  0  0  0  0  0
   22.6490   70.8610   -6.0510 N   0  0  0  0  0  0  0  0  0  0  0  0
   21.3770   68.8360   -6.7720 C   0  0  0  0  0  3  0  0  0  0  0  0
   23.8760   71.0020   -5.5840 N   0  0  0  0  0  0  0  0  0  0  0  0
   21.4890   67.4710   -6.9010 C   0  0  0  0  0  3  0  0  0  0  0  0
  1  3  1  0  0  0  0
  2  1  2  0  0  0  0
  3  8  1  0  0  0  0
  3  4  1  0  0  0  0
  4  5  1  0  0  0  0
  6 16  1  0  0  0  0
  6  5  1  0  0  0  0
  7  6  1  0  0  0  0
  8  7  1  0  0  0  0
  9  1  1  0  0  0  0
  9 10  1  0  0  0  0
 11 10  2  0  0  0  0
 12 11  1  0  0  0  0
 13 12  1  0  0  0  0
 14 15  1  0  0  0  0
 14 12  2  0  0  0  0
 15  9  2  0  0  0  0
 16 17  2  0  0  0  0
 17 18  1  0  0  0  0
 18 20  1  0  0  0  0
 19 21  2  0  0  0  0
 19 18  1  0  0  0  0
 21 23  1  0  0  0  0
 22 19  1  0  0  0  0
 23 20  2  0  0  0  0
 24 22  2  0  0  0  0
 24 16  1  0  0  0  0
M  END
>  <Pose>
1

>  <Score>
-7.705

$$$$
