MODEL 1
REMARK VINA RESULT:    -7.705      0.000      0.000
REMARK INTER + INTRA:          -8.771
REMARK INTER:                  -8.606
REMARK INTRA:                  -0.164
REMARK UNBOUND:                -0.164
REMARK  2 active torsions:
REMARK  status: ('A' for Active; 'I' for Inactive)
REMARK    1  A    between atoms: C_5  and  C_8 
REMARK       I    between atoms: C_8  and  N_10 
REMARK    2  A    between atoms: N_13  and  C_16 
ROOT
ATOM      1  C   UNK d   1      21.630  63.758  -9.674  0.00  0.00     0.187 C 
ATOM      2  O   UNK d   1      22.408  64.103 -10.669  0.00  0.00    -0.171 OA
ATOM      3  N   UNK d   1      22.275  63.613  -8.455  0.00  0.00    -0.356 N 
ATOM      4  C   UNK d   1      21.795  63.202  -7.178  0.00  0.00     0.145 C 
ATOM      5  C   UNK d   1      21.607  64.510  -6.383  0.00  0.00     0.144 C 
ATOM      6  N   UNK d   1      22.763  65.372  -6.693  0.00  0.00    -0.361 N 
ATOM      7  C   UNK d   1      23.979  64.737  -7.111  0.00  0.00     0.144 C 
ATOM      8  C   UNK d   1      23.725  63.998  -8.411  0.00  0.00     0.145 C 
ENDROOT
BRANCH   1   9
ATOM      9  C   UNK d   1      20.253  63.600 -10.048  0.00  0.00     0.018 A 
ATOM     10  C   UNK d   1      19.314  63.216  -9.083  0.00  0.00     0.017 A 
ATOM     11  C   UNK d   1      17.984  63.003  -9.363  0.00  0.00     0.025 A 
ATOM     12  C   UNK d   1      17.500  63.159 -10.638  0.00  0.00     0.034 A 
ATOM     13 Cl   UNK d   1      15.790  62.887 -11.002  0.00  0.00    -0.084 Cl
ATOM     14  C   UNK d   1      18.383  63.534 -11.616  0.00  0.00     0.025 A 
ATOM     15  C   UNK d   1      19.741  63.749 -11.316  0.00  0.00     0.017 A 
ENDBRANCH   1   9
BRANCH   6  16
ATOM     16  C   UNK d   1      22.635  66.786  -6.566  0.00  0.00     0.146 A 
ATOM     17  N   UNK d   1      23.654  67.541  -6.098  0.00  0.00    -0.147 NA
ATOM     18  N   UNK d   1      23.571  68.852  -5.964  0.00  0.00    -0.204 N 
ATOM     19  C   UNK d   1      22.465  69.539  -6.284  0.00  0.00     0.174 A 
ATOM     20  C   UNK d   1      24.456  69.789  -5.522  0.00  0.00     0.261 A 
ATOM     21  N   UNK d   1      22.649  70.861  -6.051  0.00  0.00    -0.129 NA
ATOM     22  C   UNK d   1      21.377  68.836  -6.772  0.00  0.00     0.058 A 
ATOM     23  N   UNK d   1      23.876  71.002  -5.584  0.00  0.00    -0.141 NA
ATOM     24  C   UNK d   1      21.489  67.471  -6.901  0.00  0.00     0.056 A 
ENDBRANCH   6  16
TORSDOF 2
ENDMDL
