MODEL 1
REMARK VINA RESULT:    -9.292      0.000      0.000
REMARK INTER + INTRA:         -12.271
REMARK INTER:                 -11.464
REMARK INTRA:                  -0.806
REMARK UNBOUND:                -0.806
REMARK  4 active torsions:
REMARK  status: ('A' for Active; 'I' for Inactive)
REMARK    1  A    between atoms: C_5  and  N_8 
REMARK    2  A    between atoms: C_10  and  C_24 
REMARK    3  A    between atoms: N_11  and  C_14 
REMARK    4  A    between atoms: C_14  and  C_15 
REMARK       I    between atoms: C_15  and  N_17 
ROOT
ATOM      1  N   UNK d   1      20.095  63.100 -10.412  0.00  0.00    -0.181 N 
ATOM      2  N   UNK d   1      20.946  63.045 -11.375  0.00  0.00    -0.144 NA
ATOM      3  C   UNK d   1      22.209  63.438 -10.961  0.00  0.00     0.165 A 
ATOM      4  N   UNK d   1      22.094  63.743  -9.682  0.00  0.00    -0.272 N 
ATOM      5  C   UNK d   1      20.776  63.527  -9.346  0.00  0.00     0.352 A 
ATOM      6  O   UNK d   1      20.323  63.718  -8.198  0.00  0.00    -0.244 OA
ENDROOT
BRANCH   4   7
ATOM      7  C   UNK d   1      23.062  64.297  -8.789  0.00  0.00     0.222 C 
BRANCH   7   8
ATOM      8  C   UNK d   1      23.696  63.337  -7.867  0.00  0.00     0.172 C 
ATOM      9  O   UNK d   1      24.184  62.293  -8.471  0.00  0.00    -0.175 OA
ATOM     10  N   UNK d   1      23.855  63.358  -6.499  0.00  0.00    -0.351 N 
ATOM     11  C   UNK d   1      23.364  64.380  -5.614  0.00  0.00     0.145 C 
ATOM     12  C   UNK d   1      24.597  62.265  -5.846  0.00  0.00     0.227 C 
ATOM     13  C   UNK d   1      23.669  64.068  -4.138  0.00  0.00     0.142 C 
ATOM     14  N   UNK d   1      25.105  63.809  -3.992  0.00  0.00    -0.358 N 
ATOM     15  C   UNK d   1      25.626  62.910  -4.995  0.00  0.00     0.235 C 
ATOM     16  H   UNK d   1      25.684  64.220  -3.255  0.00  0.00     0.162 HD
ATOM     17  O   UNK d   1      26.860  62.726  -5.099  0.00  0.00    -0.272 OA
ENDBRANCH   7   8
ENDBRANCH   4   7
BRANCH   3  18
ATOM     18  C   UNK d   1      23.316  63.471 -11.914  0.00  0.00     0.012 A 
ATOM     19  C   UNK d   1      23.007  63.516 -13.280  0.00  0.00     0.015 A 
ATOM     20  C   UNK d   1      23.943  63.490 -14.276  0.00  0.00     0.001 A 
ATOM     21  C   UNK d   1      25.296  63.414 -13.970  0.00  0.00     0.000 A 
ATOM     22  C   UNK d   1      25.609  63.367 -12.641  0.00  0.00     0.001 A 
ATOM     23  C   UNK d   1      24.647  63.394 -11.627  0.00  0.00     0.015 A 
ENDBRANCH   3  18
BRANCH   1  24
ATOM     24  C   UNK d   1      18.714  62.766 -10.504  0.00  0.00     0.063 A 
ATOM     25  C   UNK d   1      17.778  63.750 -10.749  0.00  0.00     0.033 A 
ATOM     26  C   UNK d   1      16.430  63.445 -10.841  0.00  0.00     0.026 A 
ATOM     27  C   UNK d   1      15.954  62.155 -10.693  0.00  0.00     0.034 A 
ATOM     28 Cl   UNK d   1      14.251  61.756 -10.805  0.00  0.00    -0.084 Cl
ATOM     29  C   UNK d   1      16.896  61.169 -10.446  0.00  0.00     0.026 A 
ATOM     30  C   UNK d   1      18.251  61.475 -10.355  0.00  0.00     0.033 A 
ENDBRANCH   1  24
TORSDOF 4
ENDMDL
