/Users/jonathanwahrer/Desktop/Msc/3_Semester/Drug_Design_Praktikum/waehrer_HTS_screening/HTS_experiment/out/docking_results/vina_output/3sx0/1789_docked.pdbqt
 OpenBabel03192222513D

 29 32  0  0  0  0  0  0  0  0999 V2000
   22.9210   63.7370   -8.8200 N   0  0  0  0  0  0  0  0  0  0  0  0
   23.7880   63.9370   -9.7840 N   0  0  0  0  0  0  0  0  0  0  0  0
   23.1210   63.8170  -10.9280 N   0  0  0  0  0  0  0  0  0  0  0  0
   21.8230   63.5390  -10.6990 C   0  0  0  0  0  0  0  0  0  0  0  0
   21.7160   63.4940   -9.3670 C   0  0  0  0  0  0  0  0  0  0  0  0
   20.3800   63.2070   -9.1280 C   0  0  0  0  0  0  0  0  0  0  0  0
   19.8860   63.0840   -7.9840 O   0  0  0  0  0  0  0  0  0  0  0  0
   19.6830   63.0810  -10.2670 N   0  0  0  0  0  0  0  0  0  0  0  0
   20.5820   63.2880  -11.2470 C   0  0  0  0  0  0  0  0  0  0  0  0
   20.3270   63.2560  -12.4880 O   0  0  0  0  0  0  0  0  0  0  0  0
   24.8230   64.1530   -9.6790 H   0  0  0  0  0  0  0  0  0  0  0  0
   23.5740   63.9290  -11.8660 H   0  0  0  0  0  0  0  0  0  0  0  0
   18.3000   62.7940  -10.4490 C   0  0  0  0  0  0  0  0  0  0  0  0
   17.7820   61.5160  -10.3740 C   0  0  0  0  0  3  0  0  0  0  0  0
   16.4400   61.2460  -10.5500 C   0  0  0  0  0  0  0  0  0  0  0  0
   15.5430   62.2580  -10.8180 C   0  0  0  0  0  0  0  0  0  0  0  0
   16.0460   63.5400  -10.8970 C   0  0  0  0  0  3  0  0  0  0  0  0
   17.3920   63.8010  -10.7170 C   0  0  0  0  0  3  0  0  0  0  0  0
   15.9190   59.9580  -10.4740 O   0  0  0  0  0  0  0  0  0  0  0  0
   16.6830   58.9870   -9.7840 C   0  0  0  0  0  1  0  0  0  0  0  0
   14.1910   61.9760  -10.9950 O   0  0  0  0  0  0  0  0  0  0  0  0
   13.4830   62.2790  -12.1580 C   0  0  0  0  0  1  0  0  0  0  0  0
   23.2100   63.7740   -7.4390 C   0  0  0  0  0  0  0  0  0  0  0  0
   22.4620   64.5820   -6.5880 C   0  0  0  0  0  3  0  0  0  0  0  0
   22.8010   64.5680   -5.2510 C   0  0  0  0  0  3  0  0  0  0  0  0
   23.8130   63.8190   -4.7210 C   0  0  0  0  0  0  0  0  0  0  0  0
   24.2090   63.8340   -3.0010 Cl  0  0  0  0  0  0  0  0  0  0  0  0
   24.5450   63.0240   -5.5680 C   0  0  0  0  0  3  0  0  0  0  0  0
   24.2490   63.0030   -6.9020 C   0  0  0  0  0  3  0  0  0  0  0  0
  1 23  1  0  0  0  0
  2 11  1  0  0  0  0
  2  1  1  0  0  0  0
  3  4  1  0  0  0  0
  3  2  1  0  0  0  0
  4  5  2  0  0  0  0
  5  6  1  0  0  0  0
  5  1  1  0  0  0  0
  6  7  2  0  0  0  0
  8  6  1  0  0  0  0
  9  4  1  0  0  0  0
  9  8  1  0  0  0  0
 10  9  2  0  0  0  0
 12  3  1  0  0  0  0
 13 14  1  0  0  0  0
 13  8  1  0  0  0  0
 15 19  1  0  0  0  0
 15 14  2  0  0  0  0
 16 15  1  0  0  0  0
 17 16  2  0  0  0  0
 17 18  1  0  0  0  0
 18 13  2  0  0  0  0
 19 20  1  0  0  0  0
 21 16  1  0  0  0  0
 22 21  1  0  0  0  0
 23 29  2  0  0  0  0
 23 24  1  0  0  0  0
 24 25  2  0  0  0  0
 25 26  1  0  0  0  0
 26 27  1  0  0  0  0
 28 26  2  0  0  0  0
 29 28  1  0  0  0  0
M  END
>  <Pose>
1

>  <Score>
-9.495

$$$$
