MODEL 1
REMARK VINA RESULT:    -9.495      0.000      0.000
REMARK INTER + INTRA:         -12.384
REMARK INTER:                 -11.715
REMARK INTRA:                  -0.668
REMARK UNBOUND:                -0.668
REMARK  4 active torsions:
REMARK  status: ('A' for Active; 'I' for Inactive)
REMARK    1  A    between atoms: C_5  and  N_8 
REMARK    2  A    between atoms: N_15  and  C_18 
REMARK    3  A    between atoms: C_20  and  O_26 
REMARK    4  A    between atoms: C_21  and  O_24 
ROOT
ATOM      1  N   UNK d   1      22.921  63.737  -8.820  0.00  0.00    -0.234 N 
ATOM      2  N   UNK d   1      23.788  63.937  -9.784  0.00  0.00    -0.234 N 
ATOM      3  N   UNK d   1      23.121  63.817 -10.928  0.00  0.00    -0.278 N 
ATOM      4  C   UNK d   1      21.823  63.539 -10.699  0.00  0.00     0.152 A 
ATOM      5  C   UNK d   1      21.716  63.494  -9.367  0.00  0.00     0.160 A 
ATOM      6  C   UNK d   1      20.380  63.207  -9.128  0.00  0.00     0.286 A 
ATOM      7  O   UNK d   1      19.886  63.084  -7.984  0.00  0.00    -0.265 OA
ATOM      8  N   UNK d   1      19.683  63.081 -10.267  0.00  0.00    -0.241 N 
ATOM      9  C   UNK d   1      20.582  63.288 -11.247  0.00  0.00     0.286 A 
ATOM     10  O   UNK d   1      20.327  63.256 -12.488  0.00  0.00    -0.265 OA
ATOM     11  H   UNK d   1      24.823  64.153  -9.679  0.00  0.00     0.209 HD
ATOM     12  H   UNK d   1      23.574  63.929 -11.866  0.00  0.00     0.189 HD
ENDROOT
BRANCH   8  13
ATOM     13  C   UNK d   1      18.300  62.794 -10.449  0.00  0.00     0.049 A 
ATOM     14  C   UNK d   1      17.782  61.516 -10.374  0.00  0.00     0.069 A 
ATOM     15  C   UNK d   1      16.440  61.246 -10.550  0.00  0.00     0.103 A 
ATOM     16  C   UNK d   1      15.543  62.258 -10.818  0.00  0.00     0.101 A 
ATOM     17  C   UNK d   1      16.046  63.540 -10.897  0.00  0.00     0.042 A 
ATOM     18  C   UNK d   1      17.392  63.801 -10.717  0.00  0.00     0.033 A 
BRANCH  15  19
ATOM     19  O   UNK d   1      15.919  59.958 -10.474  0.00  0.00    -0.353 OA
ATOM     20  C   UNK d   1      16.683  58.987  -9.784  0.00  0.00     0.210 C 
ENDBRANCH  15  19
BRANCH  16  21
ATOM     21  O   UNK d   1      14.191  61.976 -10.995  0.00  0.00    -0.353 OA
ATOM     22  C   UNK d   1      13.483  62.279 -12.158  0.00  0.00     0.210 C 
ENDBRANCH  16  21
ENDBRANCH   8  13
BRANCH   1  23
ATOM     23  C   UNK d   1      23.210  63.774  -7.439  0.00  0.00     0.058 A 
ATOM     24  C   UNK d   1      22.462  64.582  -6.588  0.00  0.00     0.033 A 
ATOM     25  C   UNK d   1      22.801  64.568  -5.251  0.00  0.00     0.026 A 
ATOM     26  C   UNK d   1      23.813  63.819  -4.721  0.00  0.00     0.034 A 
ATOM     27 Cl   UNK d   1      24.209  63.834  -3.001  0.00  0.00    -0.084 Cl
ATOM     28  C   UNK d   1      24.545  63.024  -5.568  0.00  0.00     0.026 A 
ATOM     29  C   UNK d   1      24.249  63.003  -6.902  0.00  0.00     0.033 A 
ENDBRANCH   1  23
TORSDOF 4
ENDMDL
