MODEL 1
REMARK VINA RESULT:    -9.759      0.000      0.000
REMARK INTER + INTRA:         -12.741
REMARK INTER:                 -12.040
REMARK INTRA:                  -0.700
REMARK UNBOUND:                -0.700
REMARK  4 active torsions:
REMARK  status: ('A' for Active; 'I' for Inactive)
REMARK    1  A    between atoms: C_5  and  N_8 
REMARK    2  A    between atoms: N_15  and  C_18 
REMARK    3  A    between atoms: C_20  and  O_26 
REMARK    4  A    between atoms: C_22  and  O_24 
ROOT
ATOM      1  N   UNK d   1      22.809  63.685  -9.198  0.00  0.00    -0.234 N 
ATOM      2  N   UNK d   1      23.652  63.871 -10.194  0.00  0.00    -0.234 N 
ATOM      3  N   UNK d   1      22.948  63.700 -11.306  0.00  0.00    -0.278 N 
ATOM      4  C   UNK d   1      21.665  63.406 -11.035  0.00  0.00     0.152 A 
ATOM      5  C   UNK d   1      21.589  63.399  -9.693  0.00  0.00     0.160 A 
ATOM      6  C   UNK d   1      20.269  63.096  -9.417  0.00  0.00     0.286 A 
ATOM      7  O   UNK d   1      19.827  63.004  -8.234  0.00  0.00    -0.265 OA
ATOM      8  N   UNK d   1      19.550  62.922 -10.538  0.00  0.00    -0.241 N 
ATOM      9  C   UNK d   1      20.417  63.114 -11.546  0.00  0.00     0.286 A 
ATOM     10  O   UNK d   1      20.111  63.033 -12.773  0.00  0.00    -0.265 OA
ATOM     11  H   UNK d   1      24.669  64.106 -10.102  0.00  0.00     0.209 HD
ATOM     12  H   UNK d   1      23.337  63.781 -12.270  0.00  0.00     0.189 HD
ENDROOT
BRANCH   8  13
ATOM     13  C   UNK d   1      18.161  62.602 -10.588  0.00  0.00     0.051 A 
ATOM     14  C   UNK d   1      17.695  61.315 -10.412  0.00  0.00     0.067 A 
ATOM     15  C   UNK d   1      16.356  60.982 -10.455  0.00  0.00     0.073 A 
ATOM     16  C   UNK d   1      15.439  61.985 -10.686  0.00  0.00     0.073 A 
ATOM     17  C   UNK d   1      15.849  63.290 -10.870  0.00  0.00     0.073 A 
ATOM     18  C   UNK d   1      17.209  63.577 -10.818  0.00  0.00     0.067 A 
BRANCH  15  19
ATOM     19  O   UNK d   1      15.932  59.652 -10.269  0.00  0.00    -0.356 OA
ATOM     20  C   UNK d   1      16.789  58.747  -9.612  0.00  0.00     0.210 C 
ENDBRANCH  15  19
BRANCH  17  21
ATOM     21  O   UNK d   1      14.896  64.273 -11.101  0.00  0.00    -0.356 OA
ATOM     22  C   UNK d   1      13.948  64.162 -12.127  0.00  0.00     0.210 C 
ENDBRANCH  17  21
ENDBRANCH   8  13
BRANCH   1  23
ATOM     23  C   UNK d   1      23.125  63.768  -7.818  0.00  0.00     0.058 A 
ATOM     24  C   UNK d   1      22.462  64.627  -6.955  0.00  0.00     0.033 A 
ATOM     25  C   UNK d   1      22.794  64.681  -5.627  0.00  0.00     0.026 A 
ATOM     26  C   UNK d   1      23.792  63.893  -5.092  0.00  0.00     0.034 A 
ATOM     27 Cl   UNK d   1      24.178  64.005  -3.370  0.00  0.00    -0.084 Cl
ATOM     28  C   UNK d   1      24.461  63.037  -5.927  0.00  0.00     0.026 A 
ATOM     29  C   UNK d   1      24.124  62.985  -7.264  0.00  0.00     0.033 A 
ENDBRANCH   1  23
TORSDOF 4
ENDMDL
