MODEL 1
REMARK VINA RESULT:    -8.922      0.000      0.000
REMARK INTER + INTRA:         -10.760
REMARK INTER:                 -10.487
REMARK INTRA:                  -0.272
REMARK UNBOUND:                -0.272
REMARK  3 active torsions:
REMARK  status: ('A' for Active; 'I' for Inactive)
REMARK    1  A    between atoms: N_15  and  C_19 
REMARK    2  A    between atoms: C_19  and  C_20 
REMARK       I    between atoms: C_20  and  N_22 
REMARK    3  A    between atoms: N_22  and  C_23 
ROOT
ATOM      1 Cl   UNK d   1      25.654  63.723 -12.762  0.00  0.00    -0.084 Cl
ATOM      2  C   UNK d   1      24.023  63.516 -12.126  0.00  0.00     0.036 A 
ATOM      3  C   UNK d   1      23.745  63.818 -10.805  0.00  0.00     0.055 A 
ATOM      4  C   UNK d   1      22.483  63.663 -10.299  0.00  0.00     0.077 A 
ATOM      5  C   UNK d   1      21.519  63.197 -11.160  0.00  0.00     0.038 A 
ATOM      6  C   UNK d   1      21.768  62.892 -12.473  0.00  0.00     0.019 A 
ATOM      7  C   UNK d   1      23.049  63.054 -12.972  0.00  0.00     0.025 A 
ATOM      8  C   UNK d   1      20.146  63.017 -10.649  0.00  0.00     0.153 A 
ATOM      9  N   UNK d   1      19.054  62.610 -11.193  0.00  0.00    -0.270 NA
ATOM     10  C   UNK d   1      17.955  62.608 -10.271  0.00  0.00     0.172 A 
ATOM     11  C   UNK d   1      18.535  63.101  -8.986  0.00  0.00     0.171 A 
ATOM     12  N   UNK d   1      19.926  63.343  -9.287  0.00  0.00    -0.160 N 
ATOM     13  C   UNK d   1      20.971  63.827  -8.431  0.00  0.00     0.736 A 
ATOM     14  N   UNK d   1      20.995  64.190  -7.140  0.00  0.00     0.025 NA
ATOM     15  N   UNK d   1      22.212  64.571  -6.797  0.00  0.00    -0.194 N 
ATOM     16  C   UNK d   1      22.959  64.438  -7.907  0.00  0.00     0.365 A 
ATOM     17  O   UNK d   1      24.183  64.709  -7.965  0.00  0.00    -0.244 OA
ATOM     18  N   UNK d   1      22.207  63.974  -8.942  0.00  0.00    -0.090 N 
ENDROOT
BRANCH  15  19
ATOM     19  C   UNK d   1      22.678  65.041  -5.497  0.00  0.00     0.259 C 
BRANCH  19  20
ATOM     20  C   UNK d   1      23.373  63.929  -4.806  0.00  0.00     0.237 C 
ATOM     21  O   UNK d   1      22.750  63.283  -3.917  0.00  0.00    -0.272 OA
ATOM     22  N   UNK d   1      24.711  63.558  -5.101  0.00  0.00    -0.356 N 
ATOM     23  H   UNK d   1      25.208  64.101  -5.836  0.00  0.00     0.162 HD
BRANCH  22  24
ATOM     24  C   UNK d   1      25.347  62.466  -4.400  0.00  0.00     0.076 C 
ATOM     25  C   UNK d   1      26.693  62.125  -5.045  0.00  0.00     0.032 C 
ATOM     26  C   UNK d   1      25.675  62.977  -3.004  0.00  0.00     0.032 C 
ENDBRANCH  22  24
ENDBRANCH  19  20
ENDBRANCH  15  19
TORSDOF 3
ENDMDL
