/Users/jonathanwahrer/Desktop/Msc/3_Semester/Drug_Design_Praktikum/waehrer_HTS_screening/HTS_experiment/out/docking_results/vina_output/3sx0/1801_docked.pdbqt
 OpenBabel03192222513D

 26 29  0  0  0  0  0  0  0  0999 V2000
   25.6540   63.7230  -12.7620 Cl  0  0  0  0  0  0  0  0  0  0  0  0
   24.0230   63.5160  -12.1260 C   0  0  0  0  0  0  0  0  0  0  0  0
   23.7450   63.8180  -10.8050 C   0  0  0  0  0  3  0  0  0  0  0  0
   22.4830   63.6630  -10.2990 C   0  0  0  0  0  0  0  0  0  0  0  0
   21.5190   63.1970  -11.1600 C   0  0  0  0  0  0  0  0  0  0  0  0
   21.7680   62.8920  -12.4730 C   0  0  0  0  0  3  0  0  0  0  0  0
   23.0490   63.0540  -12.9720 C   0  0  0  0  0  3  0  0  0  0  0  0
   20.1460   63.0170  -10.6490 C   0  0  0  0  0  0  0  0  0  0  0  0
   19.0540   62.6100  -11.1930 N   0  0  0  0  0  0  0  0  0  0  0  0
   17.9550   62.6080  -10.2710 C   0  0  0  0  0  3  0  0  0  0  0  0
   18.5350   63.1010   -8.9860 C   0  0  0  0  0  3  0  0  0  0  0  0
   19.9260   63.3430   -9.2870 N   0  0  0  0  0  0  0  0  0  0  0  0
   20.9710   63.8270   -8.4310 C   0  0  0  0  0  0  0  0  0  0  0  0
   20.9950   64.1900   -7.1400 N   0  0  0  0  0  0  0  0  0  0  0  0
   22.2120   64.5710   -6.7970 N   0  0  0  0  0  0  0  0  0  0  0  0
   22.9590   64.4380   -7.9070 C   0  0  0  0  0  0  0  0  0  0  0  0
   24.1830   64.7090   -7.9650 O   0  0  0  0  0  0  0  0  0  0  0  0
   22.2070   63.9740   -8.9420 N   0  0  0  0  0  0  0  0  0  0  0  0
   22.6780   65.0410   -5.4970 C   0  0  0  0  0  2  0  0  0  0  0  0
   23.3730   63.9290   -4.8060 C   0  0  0  0  0  0  0  0  0  0  0  0
   22.7500   63.2830   -3.9170 O   0  0  0  0  0  0  0  0  0  0  0  0
   24.7110   63.5580   -5.1010 N   0  0  0  0  0  0  0  0  0  0  0  0
   25.2080   64.1010   -5.8360 H   0  0  0  0  0  0  0  0  0  0  0  0
   25.3470   62.4660   -4.4000 C   0  0  0  0  0  3  0  0  0  0  0  0
   26.6930   62.1250   -5.0450 C   0  0  0  0  0  1  0  0  0  0  0  0
   25.6750   62.9770   -3.0040 C   0  0  0  0  0  1  0  0  0  0  0  0
  1  2  1  0  0  0  0
  2  3  1  0  0  0  0
  3  4  2  0  0  0  0
  4 18  1  0  0  0  0
  5  8  1  0  0  0  0
  5  4  1  0  0  0  0
  6  5  2  0  0  0  0
  7  6  1  0  0  0  0
  7  2  2  0  0  0  0
  8 12  1  0  0  0  0
  9  8  2  0  0  0  0
  9 10  1  0  0  0  0
 10 11  2  0  0  0  0
 12 11  1  0  0  0  0
 12 13  1  0  0  0  0
 13 14  2  0  0  0  0
 14 15  1  0  0  0  0
 15 19  1  0  0  0  0
 16 15  1  0  0  0  0
 17 16  2  0  0  0  0
 18 13  1  0  0  0  0
 18 16  1  0  0  0  0
 19 20  1  0  0  0  0
 20 21  2  0  0  0  0
 22 20  1  0  0  0  0
 22 24  1  0  0  0  0
 23 22  1  0  0  0  0
 24 26  1  0  0  0  0
 25 24  1  0  0  0  0
M  END
>  <Pose>
1

>  <Score>
-8.922

$$$$
