/Users/jonathanwahrer/Desktop/Msc/3_Semester/Drug_Design_Praktikum/waehrer_HTS_screening/HTS_experiment/out/docking_results/vina_output/3sx0/1806_docked.pdbqt
 OpenBabel03192222523D

 32 35  0  0  0  0  0  0  0  0999 V2000
   12.5040   64.4220  -13.5780 N   0  0  0  0  0  0  0  0  0  0  0  0
   13.1060   64.8940  -14.8080 C   0  0  0  0  0  2  0  0  0  0  0  0
   11.9710   65.4400  -15.6890 C   0  0  0  0  0  2  0  0  0  0  0  0
   10.6880   65.1710  -15.1360 N   0  0  0  0  0  0  0  0  0  0  0  0
   10.4490   65.7940  -13.8350 C   0  0  0  0  0  2  0  0  0  0  0  0
   11.5420   65.2890  -12.9250 C   0  0  0  0  0  2  0  0  0  0  0  0
   12.8320   63.1770  -12.9750 C   0  0  0  0  0  3  0  0  0  0  0  0
   13.9010   62.9020  -12.2660 C   0  0  0  0  0  0  0  0  0  0  0  0
   14.9120   63.8540  -12.0010 N   0  0  0  0  0  0  0  0  0  0  0  0
   14.0710   61.5720  -11.7250 N   0  0  0  0  0  0  0  0  0  0  0  0
   16.0740   63.5090  -11.2140 C   0  0  0  0  0  0  0  0  0  0  0  0
   14.8280   64.8180  -12.3690 H   0  0  0  0  0  0  0  0  0  0  0  0
   16.2550   62.2530  -10.6920 C   0  0  0  0  0  0  0  0  0  0  0  0
   17.0310   64.4620  -10.9800 C   0  0  0  0  0  3  0  0  0  0  0  0
   17.3790   61.9570   -9.9450 C   0  0  0  0  0  3  0  0  0  0  0  0
   15.2220   61.2630  -10.9590 C   0  0  0  0  0  0  0  0  0  0  0  0
   18.3270   62.9060   -9.7150 C   0  0  0  0  0  0  0  0  0  0  0  0
   19.7800   62.5860   -8.7700 Cl  0  0  0  0  0  0  0  0  0  0  0  0
   18.1570   64.1690  -10.2320 C   0  0  0  0  0  3  0  0  0  0  0  0
   15.3940   60.0940  -10.4710 O   0  0  0  0  0  0  0  0  0  0  0  0
   13.3490   60.8470  -11.9010 H   0  0  0  0  0  0  0  0  0  0  0  0
    9.6360   64.3790  -15.6580 C   0  0  0  0  0  0  0  0  0  0  0  0
    9.6870   63.0110  -15.4520 N   0  0  0  0  0  0  0  0  0  0  0  0
    8.7700   62.1570  -15.9020 C   0  0  0  0  0  3  0  0  0  0  0  0
    7.7130   62.6580  -16.6100 C   0  0  0  0  0  3  0  0  0  0  0  0
    7.6290   64.0030  -16.8330 C   0  0  0  0  0  3  0  0  0  0  0  0
    8.5950   64.9130  -16.3580 C   0  0  0  0  0  0  0  0  0  0  0  0
    8.4590   66.3200  -16.5830 C   0  0  0  0  0  0  0  0  0  0  0  0
    9.0080   66.9600  -17.4770 O   0  0  0  0  0  0  0  0  0  0  0  0
    7.6220   67.0670  -15.7090 N   0  0  0  0  0  0  0  0  0  0  0  0
    6.5870   66.9280  -15.7140 H   0  0  0  0  0  0  0  0  0  0  0  0
    7.9810   67.7770  -15.0330 H   0  0  0  0  0  0  0  0  0  0  0  0
  1  7  1  0  0  0  0
  1  6  1  0  0  0  0
  2  1  1  0  0  0  0
  3  4  1  0  0  0  0
  3  2  1  0  0  0  0
  4  5  1  0  0  0  0
  5  6  1  0  0  0  0
  7  8  2  0  0  0  0
  8  9  1  0  0  0  0
  8 10  1  0  0  0  0
  9 11  1  0  0  0  0
 10 16  1  0  0  0  0
 11 14  2  0  0  0  0
 11 13  1  0  0  0  0
 12  9  1  0  0  0  0
 13 15  2  0  0  0  0
 14 19  1  0  0  0  0
 15 17  1  0  0  0  0
 16 13  1  0  0  0  0
 16 20  2  0  0  0  0
 17 18  1  0  0  0  0
 19 17  2  0  0  0  0
 21 10  1  0  0  0  0
 22 23  1  0  0  0  0
 22  4  1  0  0  0  0
 24 23  2  0  0  0  0
 25 24  1  0  0  0  0
 26 25  2  0  0  0  0
 26 27  1  0  0  0  0
 27 22  2  0  0  0  0
 28 27  1  0  0  0  0
 28 30  1  0  0  0  0
 29 28  2  0  0  0  0
 30 32  1  0  0  0  0
 31 30  1  0  0  0  0
M  END
>  <Pose>
1

>  <Score>
-5.781

$$$$
