MODEL 1
REMARK VINA RESULT:    -5.781      0.000      0.000
REMARK INTER + INTRA:          -7.422
REMARK INTER:                  -6.794
REMARK INTRA:                  -0.627
REMARK UNBOUND:                -0.627
REMARK  3 active torsions:
REMARK  status: ('A' for Active; 'I' for Inactive)
REMARK    1  A    between atoms: C_10  and  N_11 
REMARK    2  A    between atoms: N_14  and  C_17 
REMARK    3  A    between atoms: C_22  and  C_23 
REMARK       I    between atoms: C_23  and  N_25 
ROOT
ATOM      1  N   UNK d   1      12.504  64.422 -13.578  0.00  0.00    -0.384 N 
ATOM      2  C   UNK d   1      13.106  64.894 -14.808  0.00  0.00     0.142 C 
ATOM      3  C   UNK d   1      11.971  65.440 -15.689  0.00  0.00     0.144 C 
ATOM      4  N   UNK d   1      10.688  65.171 -15.136  0.00  0.00    -0.362 N 
ATOM      5  C   UNK d   1      10.449  65.794 -13.835  0.00  0.00     0.144 C 
ATOM      6  C   UNK d   1      11.542  65.289 -12.925  0.00  0.00     0.142 C 
ENDROOT
BRANCH   1   7
ATOM      7  C   UNK d   1      12.832  63.177 -12.975  0.00  0.00     0.134 C 
ATOM      8  C   UNK d   1      13.901  62.902 -12.266  0.00  0.00     0.124 A 
ATOM      9  N   UNK d   1      14.912  63.854 -12.001  0.00  0.00    -0.340 N 
ATOM     10  N   UNK d   1      14.071  61.572 -11.725  0.00  0.00    -0.308 N 
ATOM     11  C   UNK d   1      16.074  63.509 -11.214  0.00  0.00     0.049 A 
ATOM     12  H   UNK d   1      14.828  64.818 -12.369  0.00  0.00     0.167 HD
ATOM     13  C   UNK d   1      16.255  62.253 -10.692  0.00  0.00     0.060 A 
ATOM     14  C   UNK d   1      17.031  64.462 -10.980  0.00  0.00     0.032 A 
ATOM     15  C   UNK d   1      17.379  61.957  -9.945  0.00  0.00     0.043 A 
ATOM     16  C   UNK d   1      15.222  61.263 -10.959  0.00  0.00     0.259 A 
ATOM     17  C   UNK d   1      18.327  62.906  -9.715  0.00  0.00     0.035 A 
ATOM     18 Cl   UNK d   1      19.780  62.586  -8.770  0.00  0.00    -0.084 Cl
ATOM     19  C   UNK d   1      18.157  64.169 -10.232  0.00  0.00     0.026 A 
ATOM     20  O   UNK d   1      15.394  60.094 -10.471  0.00  0.00    -0.267 OA
ATOM     21  H   UNK d   1      13.349  60.847 -11.901  0.00  0.00     0.170 HD
ENDBRANCH   1   7
BRANCH   4  22
ATOM     22  C   UNK d   1       9.636  64.379 -15.658  0.00  0.00     0.141 A 
ATOM     23  N   UNK d   1       9.687  63.011 -15.452  0.00  0.00    -0.242 NA
ATOM     24  C   UNK d   1       8.770  62.157 -15.902  0.00  0.00     0.119 A 
ATOM     25  C   UNK d   1       7.713  62.658 -16.610  0.00  0.00     0.020 A 
ATOM     26  C   UNK d   1       7.629  64.003 -16.833  0.00  0.00     0.022 A 
ATOM     27  C   UNK d   1       8.595  64.913 -16.358  0.00  0.00     0.077 A 
BRANCH  27  28
ATOM     28  C   UNK d   1       8.459  66.320 -16.583  0.00  0.00     0.253 C 
ATOM     29  O   UNK d   1       9.008  66.960 -17.477  0.00  0.00    -0.268 OA
ATOM     30  N   UNK d   1       7.622  67.067 -15.709  0.00  0.00    -0.366 N 
ATOM     31  H   UNK d   1       6.587  66.928 -15.714  0.00  0.00     0.159 HD
ATOM     32  H   UNK d   1       7.981  67.777 -15.033  0.00  0.00     0.159 HD
ENDBRANCH  27  28
ENDBRANCH   4  22
TORSDOF 3
ENDMDL
