MODEL 1
REMARK VINA RESULT:    -7.039      0.000      0.000
REMARK INTER + INTRA:          -7.854
REMARK INTER:                  -7.862
REMARK INTRA:                   0.008
REMARK UNBOUND:                 0.008
REMARK  2 active torsions:
REMARK  status: ('A' for Active; 'I' for Inactive)
REMARK    1  A    between atoms: C_5  and  N_8 
REMARK    2  A    between atoms: C_12  and  C_20 
ROOT
ATOM      1  N   UNK d   1      16.153  62.821 -10.624  0.00  0.00    -0.252 N 
ATOM      2  C   UNK d   1      16.883  63.678  -9.760  0.00  0.00     0.239 C 
ATOM      3  O   UNK d   1      16.522  64.839  -9.449  0.00  0.00    -0.272 OA
ATOM      4  C   UNK d   1      18.114  62.977  -9.305  0.00  0.00     0.138 C 
ATOM      5  C   UNK d   1      19.300  63.303 -10.159  0.00  0.00     0.142 C 
ATOM      6  O   UNK d   1      20.019  62.090 -10.070  0.00  0.00    -0.360 OA
ATOM      7  C   UNK d   1      19.013  61.255 -10.619  0.00  0.00     0.160 C 
ATOM      8  C   UNK d   1      17.885  61.512  -9.681  0.00  0.00     0.128 C 
ATOM      9  C   UNK d   1      16.589  61.479 -10.411  0.00  0.00     0.239 C 
ATOM     10  O   UNK d   1      16.005  60.450 -10.763  0.00  0.00    -0.272 OA
ATOM     11  C   UNK d   1      18.752  61.991 -11.883  0.00  0.00     0.005 C 
ATOM     12  C   UNK d   1      18.872  63.277 -11.566  0.00  0.00     0.015 C 
ENDROOT
BRANCH   1  13
ATOM     13  C   UNK d   1      15.157  63.302 -11.535  0.00  0.00     0.045 A 
ATOM     14  C   UNK d   1      15.232  64.560 -12.090  0.00  0.00     0.031 A 
ATOM     15  C   UNK d   1      14.280  65.035 -12.966  0.00  0.00     0.021 A 
ATOM     16  C   UNK d   1      13.224  64.216 -13.285  0.00  0.00     0.011 A 
ATOM     17 Br   UNK d   1      11.892  64.834 -14.485  0.00  0.00    -0.051 Br
ATOM     18  C   UNK d   1      13.126  62.959 -12.743  0.00  0.00     0.021 A 
ATOM     19  C   UNK d   1      14.090  62.474 -11.856  0.00  0.00     0.031 A 
ENDBRANCH   1  13
BRANCH   5  20
ATOM     20  C   UNK d   1      20.087  64.467  -9.734  0.00  0.00     0.298 C 
ATOM     21  O   UNK d   1      21.271  64.613 -10.403  0.00  0.00    -0.356 OA
ATOM     22  C   UNK d   1      22.303  64.352  -9.537  0.00  0.00     0.197 C 
ATOM     23  C   UNK d   1      21.677  64.028  -8.220  0.00  0.00     0.197 C 
ATOM     24  O   UNK d   1      20.359  64.440  -8.378  0.00  0.00    -0.356 OA
ENDBRANCH   5  20
TORSDOF 2
ENDMDL
