MODEL 1
REMARK VINA RESULT:    -7.233      0.000      0.000
REMARK INTER + INTRA:          -9.023
REMARK INTER:                  -9.348
REMARK INTRA:                   0.325
REMARK UNBOUND:                 0.325
REMARK  5 active torsions:
REMARK  status: ('A' for Active; 'I' for Inactive)
REMARK    1  A    between atoms: S_1  and  N_4 
REMARK    2  A    between atoms: S_1  and  C_26 
REMARK       I    between atoms: N_7  and  C_10 
REMARK    3  A    between atoms: C_10  and  C_12 
REMARK    4  A    between atoms: N_14  and  C_18 
REMARK    5  A    between atoms: C_18  and  C_19 
ROOT
ATOM      1  N   UNK d   1      13.483  63.397 -13.057  0.00  0.00    -0.203 NA
ATOM      2  C   UNK d   1      13.738  62.018 -12.726  0.00  0.00     0.127 C 
ATOM      3  C   UNK d   1      14.759  61.992 -11.613  0.00  0.00     0.141 C 
ATOM      4  N   UNK d   1      14.915  63.320 -11.076  0.00  0.00    -0.349 N 
ATOM      5  C   UNK d   1      13.770  64.192 -10.848  0.00  0.00     0.141 C 
ATOM      6  C   UNK d   1      12.739  63.983 -11.960  0.00  0.00     0.127 C 
ATOM      7  C   UNK d   1      16.200  63.803 -10.770  0.00  0.00     0.226 C 
ATOM      8  O   UNK d   1      16.317  64.970 -10.256  0.00  0.00    -0.273 OA
ENDROOT
BRANCH   7   9
ATOM      9  C   UNK d   1      17.406  62.975 -11.042  0.00  0.00     0.105 C 
ATOM     10  C   UNK d   1      18.661  63.792 -11.145  0.00  0.00     0.140 C 
ATOM     11  N   UNK d   1      19.367  63.585  -9.884  0.00  0.00    -0.347 N 
ATOM     12  C   UNK d   1      18.587  62.771  -9.029  0.00  0.00     0.221 C 
ATOM     13  O   UNK d   1      18.697  62.741  -7.779  0.00  0.00    -0.273 OA
ATOM     14  C   UNK d   1      17.675  62.016  -9.915  0.00  0.00     0.118 C 
BRANCH  11  15
ATOM     15  C   UNK d   1      20.664  64.138  -9.569  0.00  0.00     0.166 C 
BRANCH  15  16
ATOM     16  C   UNK d   1      21.692  63.730 -10.556  0.00  0.00    -0.018 A 
ATOM     17  C   UNK d   1      23.026  63.718 -10.177  0.00  0.00     0.042 A 
ATOM     18  C   UNK d   1      24.042  63.350 -11.043  0.00  0.00     0.024 A 
ATOM     19 Cl   UNK d   1      23.422  64.185  -8.545  0.00  0.00    -0.084 Cl
ATOM     20  C   UNK d   1      23.678  62.989 -12.324  0.00  0.00     0.002 A 
ATOM     21  C   UNK d   1      22.356  62.990 -12.736  0.00  0.00     0.001 A 
ATOM     22  C   UNK d   1      21.354  63.365 -11.842  0.00  0.00     0.010 A 
ENDBRANCH  15  16
ENDBRANCH  11  15
ENDBRANCH   7   9
BRANCH   1  23
ATOM     23  S   UNK d   1      12.648  63.538 -14.553  0.00  0.00     0.248 S 
ATOM     24  O   UNK d   1      12.828  62.314 -15.405  0.00  0.00    -0.206 OA
ATOM     25  O   UNK d   1      13.307  64.670 -15.313  0.00  0.00    -0.206 OA
BRANCH  23  26
ATOM     26  C   UNK d   1      10.970  63.923 -14.318  0.00  0.00     0.132 A 
ATOM     27  C   UNK d   1      10.334  65.137 -14.187  0.00  0.00     0.083 A 
ATOM     28  N   UNK d   1       9.000  64.887 -14.013  0.00  0.00    -0.132 NA
ATOM     29  C   UNK d   1      10.995  66.455 -14.239  0.00  0.00     0.074 C 
ATOM     30  O   UNK d   1       8.836  63.618 -14.036  0.00  0.00    -0.216 OA
ATOM     31  C   UNK d   1       9.967  62.978 -14.214  0.00  0.00     0.100 A 
ATOM     32  C   UNK d   1      10.070  61.504 -14.282  0.00  0.00     0.081 C 
ENDBRANCH  23  26
ENDBRANCH   1  23
TORSDOF 5
ENDMDL
