MODEL 1
REMARK VINA RESULT:    -7.709      0.000      0.000
REMARK INTER + INTRA:          -9.324
REMARK INTER:                  -9.512
REMARK INTRA:                   0.188
REMARK UNBOUND:                 0.188
REMARK  4 active torsions:
REMARK  status: ('A' for Active; 'I' for Inactive)
REMARK    1  A    between atoms: C_7  and  O_8 
REMARK    2  A    between atoms: C_13  and  C_16 
REMARK    3  A    between atoms: C_16  and  C_17 
REMARK       I    between atoms: C_17  and  N_19 
REMARK       I    between atoms: N_22  and  C_25 
REMARK    4  A    between atoms: C_25  and  C_27 
ROOT
ATOM      1  C   UNK d   1      17.856  62.675 -11.328  0.00  0.00     0.224 C 
ATOM      2  O   UNK d   1      18.141  61.494 -10.926  0.00  0.00    -0.273 OA
ATOM      3  N   UNK d   1      16.541  63.091 -11.216  0.00  0.00    -0.349 N 
ATOM      4  C   UNK d   1      15.499  62.271 -10.680  0.00  0.00     0.145 C 
ATOM      5  C   UNK d   1      14.434  62.098 -11.765  0.00  0.00     0.145 C 
ATOM      6  N   UNK d   1      13.995  63.378 -12.207  0.00  0.00    -0.355 N 
ATOM      7  C   UNK d   1      14.647  64.551 -11.586  0.00  0.00     0.145 C 
ATOM      8  C   UNK d   1      16.152  64.414 -11.649  0.00  0.00     0.145 C 
ATOM      9  C   UNK d   1      13.004  63.616 -13.183  0.00  0.00     0.204 C 
ATOM     10  O   UNK d   1      12.777  64.908 -13.400  0.00  0.00    -0.170 OA
ENDROOT
BRANCH   1  11
ATOM     11  C   UNK d   1      18.969  63.495 -11.880  0.00  0.00     0.148 C 
BRANCH  11  12
ATOM     12  C   UNK d   1      20.124  63.530 -10.955  0.00  0.00     0.033 A 
ATOM     13  C   UNK d   1      21.406  63.255 -11.429  0.00  0.00     0.295 A 
ATOM     14  O   UNK d   1      22.465  63.273 -10.656  0.00  0.00    -0.274 OA
ATOM     15  O   UNK d   1      21.504  62.981 -12.672  0.00  0.00    -0.259 OA
ATOM     16  C   UNK d   1      22.406  63.549  -9.376  0.00  0.00     0.093 A 
ATOM     17  C   UNK d   1      21.188  63.836  -8.806  0.00  0.00     0.006 A 
ATOM     18  C   UNK d   1      23.556  63.559  -8.576  0.00  0.00     0.076 A 
ATOM     19  C   UNK d   1      21.142  64.125  -7.463  0.00  0.00     0.041 A 
ATOM     20  C   UNK d   1      20.046  63.824  -9.613  0.00  0.00    -0.036 A 
ATOM     21  C   UNK d   1      22.286  64.133  -6.672  0.00  0.00     0.068 A 
ATOM     22 Cl   UNK d   1      22.231  64.497  -4.962  0.00  0.00    -0.081 Cl
ATOM     23  C   UNK d   1      23.510  63.847  -7.231  0.00  0.00     0.092 A 
ATOM     24  C   UNK d   1      18.758  64.133  -9.000  0.00  0.00     0.050 C 
BRANCH  23  25
ATOM     25  O   UNK d   1      24.670  63.854  -6.434  0.00  0.00    -0.354 OA
ATOM     26  C   UNK d   1      25.047  62.744  -5.659  0.00  0.00     0.210 C 
ENDBRANCH  23  25
ENDBRANCH  11  12
ENDBRANCH   1  11
BRANCH   9  27
ATOM     27  C   UNK d   1      12.206  62.728 -13.973  0.00  0.00     0.095 A 
ATOM     28  C   UNK d   1      12.502  62.567 -15.350  0.00  0.00     0.108 A 
ATOM     29  C   UNK d   1      11.761  61.731 -16.141  0.00  0.00     0.253 A 
ATOM     30  O   UNK d   1      12.045  61.606 -17.361  0.00  0.00    -0.268 OA
ATOM     31  N   UNK d   1      10.724  61.024 -15.673  0.00  0.00    -0.271 N 
ATOM     32  C   UNK d   1      10.444  61.175 -14.378  0.00  0.00     0.329 A 
ATOM     33  C   UNK d   1       9.951  60.149 -16.524  0.00  0.00     0.164 C 
ATOM     34  O   UNK d   1       9.466  60.524 -13.883  0.00  0.00    -0.246 OA
ATOM     35  N   UNK d   1      11.171  62.008 -13.554  0.00  0.00    -0.304 N 
ATOM     36  H   UNK d   1      10.875  62.052 -12.559  0.00  0.00     0.171 HD
ENDBRANCH   9  27
TORSDOF 4
ENDMDL
