MODEL 1
REMARK VINA RESULT:    -7.356      0.000      0.000
REMARK INTER + INTRA:          -8.154
REMARK INTER:                  -7.786
REMARK INTRA:                  -0.368
REMARK UNBOUND:                -0.368
REMARK  1 active torsions:
REMARK  status: ('A' for Active; 'I' for Inactive)
REMARK    1  A    between atoms: C_8  and  N_10 
ROOT
ATOM      1 Cl   UNK d   1      15.502  60.019 -11.037  0.00  0.00    -0.076 Cl
ATOM      2  C   UNK d   1      16.545  61.329 -10.493  0.00  0.00     0.127 A 
ATOM      3  C   UNK d   1      16.152  62.625 -10.741  0.00  0.00     0.050 A 
ATOM      4  N   UNK d   1      16.954  63.616 -10.322  0.00  0.00    -0.190 N 
ATOM      5  C   UNK d   1      18.123  63.387  -9.668  0.00  0.00     0.747 A 
ATOM      6  N   UNK d   1      18.516  62.127  -9.419  0.00  0.00    -0.005 N 
ATOM      7  N   UNK d   1      19.679  62.161  -8.776  0.00  0.00     0.046 NA
ATOM      8  C   UNK d   1      20.069  63.438  -8.591  0.00  0.00     0.772 A 
ATOM      9  N   UNK d   1      19.082  64.179  -9.156  0.00  0.00     0.133 NA
ATOM     10  C   UNK d   1      17.730  61.101  -9.830  0.00  0.00     0.308 A 
ATOM     11  O   UNK d   1      18.100  59.907  -9.595  0.00  0.00    -0.264 OA
ATOM     12  C   UNK d   1      14.862  62.895 -11.463  0.00  0.00     0.071 C 
ATOM     13  H   UNK d   1      16.661  64.604 -10.508  0.00  0.00     0.184 HD
ENDROOT
BRANCH   8  14
ATOM     14  N   UNK d   1      21.252  63.908  -7.950  0.00  0.00    -0.076 N 
ATOM     15  C   UNK d   1      21.341  64.389  -6.615  0.00  0.00     0.251 C 
ATOM     16  O   UNK d   1      20.544  64.194  -5.662  0.00  0.00    -0.272 OA
ATOM     17  C   UNK d   1      22.589  65.214  -6.473  0.00  0.00     0.096 C 
ATOM     18  C   UNK d   1      23.388  64.946  -7.698  0.00  0.00     0.096 C 
ATOM     19  C   UNK d   1      23.333  64.762  -5.235  0.00  0.00     0.042 C 
ATOM     20  C   UNK d   1      24.713  64.250  -7.443  0.00  0.00     0.042 C 
ATOM     21  C   UNK d   1      22.566  64.001  -8.477  0.00  0.00     0.251 C 
ATOM     22  C   UNK d   1      24.413  63.075  -6.563  0.00  0.00    -0.030 C 
ATOM     23  C   UNK d   1      23.725  63.351  -5.470  0.00  0.00    -0.030 C 
ATOM     24  O   UNK d   1      22.967  63.346  -9.494  0.00  0.00    -0.272 OA
ENDBRANCH   8  14
TORSDOF 1
ENDMDL
