MODEL 1
REMARK VINA RESULT:    -8.585      0.000      0.000
REMARK INTER + INTRA:         -13.370
REMARK INTER:                 -12.098
REMARK INTRA:                  -1.272
REMARK UNBOUND:                -1.272
REMARK  9 active torsions:
REMARK  status: ('A' for Active; 'I' for Inactive)
REMARK    1  A    between atoms: C_3  and  C_9 
REMARK    2  A    between atoms: N_10  and  N_11 
REMARK    3  A    between atoms: N_11  and  C_12 
REMARK    4  A    between atoms: N_13  and  C_22 
REMARK    5  A    between atoms: C_18  and  N_21 
REMARK    6  A    between atoms: C_24  and  C_29 
REMARK    7  A    between atoms: C_25  and  O_28 
REMARK    8  A    between atoms: C_26  and  O_27 
REMARK    9  A    between atoms: C_29  and  O_30 
ROOT
ATOM      1  C   UNK d   1      22.398  63.370 -10.427  0.00  0.00     0.727 A 
ATOM      2  N   UNK d   1      21.713  63.382  -9.273  0.00  0.00    -0.131 N 
ATOM      3  C   UNK d   1      20.419  63.240  -9.607  0.00  0.00     0.182 A 
ATOM      4  N   UNK d   1      19.279  63.183  -8.877  0.00  0.00    -0.221 NA
ATOM      5  C   UNK d   1      18.072  63.032  -9.456  0.00  0.00     0.237 A 
ATOM      6  N   UNK d   1      17.973  62.933 -10.799  0.00  0.00    -0.222 NA
ATOM      7  C   UNK d   1      19.059  62.982 -11.592  0.00  0.00     0.156 A 
ATOM      8  C   UNK d   1      20.285  63.137 -10.975  0.00  0.00     0.168 A 
ATOM      9  N   UNK d   1      21.543  63.222 -11.467  0.00  0.00    -0.055 NA
ENDROOT
BRANCH   1  10
ATOM     10  N   UNK d   1      23.807  63.492 -10.553  0.00  0.00    -0.107 N 
ATOM     11  H   UNK d   1      24.387  63.910  -9.787  0.00  0.00     0.208 HD
BRANCH  10  12
ATOM     12  N   UNK d   1      24.493  63.071 -11.694  0.00  0.00    -0.172 NA
ATOM     13  C   UNK d   1      24.724  63.925 -12.622  0.00  0.00     0.154 C 
BRANCH  13  14
ATOM     14  C   UNK d   1      25.436  63.569 -13.853  0.00  0.00     0.026 A 
ATOM     15  C   UNK d   1      26.767  63.213 -13.833  0.00  0.00     0.047 A 
ATOM     16 Cl   UNK d   1      27.593  63.196 -12.292  0.00  0.00    -0.083 Cl
ATOM     17  C   UNK d   1      27.425  62.877 -15.019  0.00  0.00     0.025 A 
ATOM     18  C   UNK d   1      26.779  62.889 -16.235  0.00  0.00     0.003 A 
ATOM     19  C   UNK d   1      25.446  63.246 -16.246  0.00  0.00     0.025 A 
ATOM     20  C   UNK d   1      24.790  63.581 -15.070  0.00  0.00     0.047 A 
ATOM     21 Cl   UNK d   1      23.089  64.035 -15.101  0.00  0.00    -0.083 Cl
ENDBRANCH  13  14
ENDBRANCH  10  12
ENDBRANCH   1  10
BRANCH   2  22
ATOM     22  C   UNK d   1      22.178  63.515  -7.923  0.00  0.00     0.279 C 
ATOM     23  O   UNK d   1      23.405  62.892  -7.713  0.00  0.00    -0.353 OA
ATOM     24  C   UNK d   1      23.782  63.433  -6.484  0.00  0.00     0.179 C 
ATOM     25  C   UNK d   1      23.689  64.921  -6.784  0.00  0.00     0.182 C 
ATOM     26  C   UNK d   1      22.384  64.973  -7.553  0.00  0.00     0.199 C 
BRANCH  24  27
ATOM     27  C   UNK d   1      25.172  63.030  -6.074  0.00  0.00     0.198 C 
BRANCH  27  28
ATOM     28  O   UNK d   1      25.488  63.410  -4.793  0.00  0.00    -0.398 OA
ATOM     29  H   UNK d   1      25.453  64.384  -4.677  0.00  0.00     0.209 HD
ENDBRANCH  27  28
ENDBRANCH  24  27
BRANCH  25  30
ATOM     30  O   UNK d   1      23.637  65.680  -5.624  0.00  0.00    -0.390 OA
ATOM     31  H   UNK d   1      22.681  65.753  -5.359  0.00  0.00     0.210 HD
ENDBRANCH  25  30
BRANCH  26  32
ATOM     32  O   UNK d   1      21.403  65.417  -6.664  0.00  0.00    -0.388 OA
ATOM     33  H   UNK d   1      21.428  66.388  -6.542  0.00  0.00     0.210 HD
ENDBRANCH  26  32
ENDBRANCH   2  22
BRANCH   7  34
ATOM     34  N   UNK d   1      18.923  62.876 -12.995  0.00  0.00    -0.382 N 
ATOM     35  H   UNK d   1      18.106  62.415 -13.432  0.00  0.00     0.157 HD
ATOM     36  H   UNK d   1      19.662  63.271 -13.604  0.00  0.00     0.157 HD
ENDBRANCH   7  34
TORSDOF 9
ENDMDL
