/Users/jonathanwahrer/Desktop/Msc/3_Semester/Drug_Design_Praktikum/waehrer_HTS_screening/HTS_experiment/out/docking_results/vina_output/3sx0/1835_docked.pdbqt
 OpenBabel03192222533D

 36 39  0  0  1  0  0  0  0  0999 V2000
   22.3980   63.3700  -10.4270 C   0  0  0  0  0  0  0  0  0  0  0  0
   21.7130   63.3820   -9.2730 N   0  0  0  0  0  0  0  0  0  0  0  0
   20.4190   63.2400   -9.6070 C   0  0  0  0  0  0  0  0  0  0  0  0
   19.2790   63.1830   -8.8770 N   0  0  0  0  0  0  0  0  0  0  0  0
   18.0720   63.0320   -9.4560 C   0  0  0  0  0  3  0  0  0  0  0  0
   17.9730   62.9330  -10.7990 N   0  0  0  0  0  0  0  0  0  0  0  0
   19.0590   62.9820  -11.5920 C   0  0  0  0  0  0  0  0  0  0  0  0
   20.2850   63.1370  -10.9750 C   0  0  0  0  0  0  0  0  0  0  0  0
   21.5430   63.2220  -11.4670 N   0  0  0  0  0  0  0  0  0  0  0  0
   23.8070   63.4920  -10.5530 N   0  0  0  0  0  0  0  0  0  0  0  0
   24.3870   63.9100   -9.7870 H   0  0  0  0  0  0  0  0  0  0  0  0
   24.4930   63.0710  -11.6940 N   0  0  0  0  0  0  0  0  0  0  0  0
   24.7240   63.9250  -12.6220 C   0  0  0  0  0  3  0  0  0  0  0  0
   25.4360   63.5690  -13.8530 C   0  0  0  0  0  0  0  0  0  0  0  0
   26.7670   63.2130  -13.8330 C   0  0  0  0  0  0  0  0  0  0  0  0
   27.5930   63.1960  -12.2920 Cl  0  0  0  0  0  0  0  0  0  0  0  0
   27.4250   62.8770  -15.0190 C   0  0  0  0  0  3  0  0  0  0  0  0
   26.7790   62.8890  -16.2350 C   0  0  0  0  0  3  0  0  0  0  0  0
   25.4460   63.2460  -16.2460 C   0  0  0  0  0  3  0  0  0  0  0  0
   24.7900   63.5810  -15.0700 C   0  0  0  0  0  0  0  0  0  0  0  0
   23.0890   64.0350  -15.1010 Cl  0  0  0  0  0  0  0  0  0  0  0  0
   22.1780   63.5150   -7.9230 C   0  0  1  0  0  3  0  0  0  0  0  0
   23.4050   62.8920   -7.7130 O   0  0  0  0  0  0  0  0  0  0  0  0
   23.7820   63.4330   -6.4840 C   0  0  2  0  0  3  0  0  0  0  0  0
   23.6890   64.9210   -6.7840 C   0  0  1  0  0  3  0  0  0  0  0  0
   22.3840   64.9730   -7.5530 C   0  0  2  0  0  3  0  0  0  0  0  0
   25.1720   63.0300   -6.0740 C   0  0  0  0  0  2  0  0  0  0  0  0
   25.4880   63.4100   -4.7930 O   0  0  0  0  0  0  0  0  0  0  0  0
   25.4530   64.3840   -4.6770 H   0  0  0  0  0  0  0  0  0  0  0  0
   23.6370   65.6800   -5.6240 O   0  0  0  0  0  0  0  0  0  0  0  0
   22.6810   65.7530   -5.3590 H   0  0  0  0  0  0  0  0  0  0  0  0
   21.4030   65.4170   -6.6640 O   0  0  0  0  0  0  0  0  0  0  0  0
   21.4280   66.3880   -6.5420 H   0  0  0  0  0  0  0  0  0  0  0  0
   18.9230   62.8760  -12.9950 N   0  0  0  0  0  0  0  0  0  0  0  0
   18.1060   62.4150  -13.4320 H   0  0  0  0  0  0  0  0  0  0  0  0
   19.6620   63.2710  -13.6040 H   0  0  0  0  0  0  0  0  0  0  0  0
  1  2  1  0  0  0  0
  3  2  1  0  0  0  0
  3  4  1  0  0  0  0
  5  4  2  0  0  0  0
  6  5  1  0  0  0  0
  7  8  1  0  0  0  0
  7  6  2  0  0  0  0
  8  3  2  0  0  0  0
  9  8  1  0  0  0  0
  9  1  2  0  0  0  0
 10  1  1  0  0  0  0
 10 11  1  0  0  0  0
 12 10  1  0  0  0  0
 13 12  2  0  0  0  0
 14 15  1  0  0  0  0
 14 13  1  0  0  0  0
 15 16  1  0  0  0  0
 17 15  2  0  0  0  0
 18 17  1  0  0  0  0
 19 18  2  0  0  0  0
 19 20  1  0  0  0  0
 20 14  2  0  0  0  0
 21 20  1  0  0  0  0
 22  2  1  6  0  0  0
 22 23  1  0  0  0  0
 22 26  1  0  0  0  0
 23 24  1  0  0  0  0
 24 27  1  6  0  0  0
 25 24  1  0  0  0  0
 25 30  1  1  0  0  0
 26 25  1  0  0  0  0
 26 32  1  1  0  0  0
 27 28  1  0  0  0  0
 28 29  1  0  0  0  0
 30 31  1  0  0  0  0
 32 33  1  0  0  0  0
 34  7  1  0  0  0  0
 35 34  1  0  0  0  0
 36 34  1  0  0  0  0
M  END
>  <Pose>
1

>  <Score>
-8.585

$$$$
