MODEL 1
REMARK VINA RESULT:    -7.968      0.000      0.000
REMARK INTER + INTRA:         -10.443
REMARK INTER:                 -10.298
REMARK INTRA:                  -0.145
REMARK UNBOUND:                -0.145
REMARK  5 active torsions:
REMARK  status: ('A' for Active; 'I' for Inactive)
REMARK    1  A    between atoms: C_5  and  N_8 
REMARK       I    between atoms: N_8  and  C_9 
REMARK    2  A    between atoms: C_9  and  C_11 
REMARK    3  A    between atoms: C_11  and  N_12 
REMARK    4  A    between atoms: N_15  and  C_18 
REMARK    5  A    between atoms: N_23  and  C_27 
ROOT
ATOM      1  N   UNK d   1      22.190  63.559  -9.334  0.00  0.00     0.100 N 
ATOM      2  C   UNK d   1      21.962  63.993  -7.940  0.00  0.00     0.293 C 
ATOM      3  C   UNK d   1      20.486  63.605  -7.715  0.00  0.00     0.154 C 
ATOM      4  N   UNK d   1      19.873  63.871  -9.026  0.00  0.00    -0.360 N 
ATOM      5  C   UNK d   1      20.349  65.045  -9.687  0.00  0.00     0.154 C 
ATOM      6  C   UNK d   1      21.773  64.714 -10.164  0.00  0.00     0.293 C 
ENDROOT
BRANCH   1   7
ATOM      7  C   UNK d   1      23.600  63.304  -9.566  0.00  0.00     0.375 C 
BRANCH   7   8
ATOM      8  C   UNK d   1      23.753  63.082 -11.053  0.00  0.00     0.250 C 
ATOM      9  N   UNK d   1      24.763  63.704 -11.794  0.00  0.00    -0.326 N 
ATOM     10  H   UNK d   1      25.394  64.375 -11.255  0.00  0.00     0.169 HD
ATOM     11  O   UNK d   1      22.939  62.313 -11.625  0.00  0.00    -0.271 OA
BRANCH   9  12
ATOM     12  C   UNK d   1      25.035  63.584 -13.173  0.00  0.00     0.034 A 
ATOM     13  C   UNK d   1      26.356  63.448 -13.624  0.00  0.00     0.031 A 
ATOM     14  C   UNK d   1      26.675  63.319 -14.951  0.00  0.00     0.026 A 
ATOM     15  C   UNK d   1      25.676  63.319 -15.914  0.00  0.00     0.034 A 
ATOM     16 Cl   UNK d   1      26.048  63.155 -17.616  0.00  0.00    -0.084 Cl
ATOM     17  C   UNK d   1      24.377  63.452 -15.488  0.00  0.00     0.026 A 
ATOM     18  C   UNK d   1      24.068  63.581 -14.139  0.00  0.00     0.031 A 
ENDBRANCH   9  12
ENDBRANCH   7   8
ENDBRANCH   1   7
BRANCH   4  19
ATOM     19  C   UNK d   1      18.912  62.975  -9.515  0.00  0.00     0.162 A 
ATOM     20  N   UNK d   1      19.184  61.635  -9.574  0.00  0.00    -0.222 NA
ATOM     21  C   UNK d   1      18.330  60.723 -10.037  0.00  0.00     0.237 A 
ATOM     22  N   UNK d   1      17.129  61.112 -10.479  0.00  0.00    -0.220 NA
ATOM     23  C   UNK d   1      16.749  62.385 -10.472  0.00  0.00     0.183 A 
ATOM     24  N   UNK d   1      15.629  63.032 -10.852  0.00  0.00    -0.232 N 
ATOM     25  C   UNK d   1      17.655  63.331  -9.983  0.00  0.00     0.173 A 
ATOM     26  N   UNK d   1      15.832  64.302 -10.609  0.00  0.00    -0.064 NA
ATOM     27  N   UNK d   1      17.036  64.491 -10.091  0.00  0.00    -0.124 NA
BRANCH  24  28
ATOM     28  C   UNK d   1      14.414  62.481 -11.422  0.00  0.00     0.150 C 
ATOM     29  C   UNK d   1      13.613  63.543 -12.143  0.00  0.00     0.029 C 
ENDBRANCH  24  28
ENDBRANCH   4  19
TORSDOF 5
ENDMDL
