MODEL 1
REMARK VINA RESULT:    -8.229      0.000      0.000
REMARK INTER + INTRA:         -10.956
REMARK INTER:                 -10.634
REMARK INTRA:                  -0.322
REMARK UNBOUND:                -0.322
REMARK  5 active torsions:
REMARK  status: ('A' for Active; 'I' for Inactive)
REMARK    1  A    between atoms: C_3  and  O_29 
REMARK    2  A    between atoms: C_6  and  N_8 
REMARK       I    between atoms: N_8  and  C_9 
REMARK    3  A    between atoms: C_9  and  C_11 
REMARK    4  A    between atoms: C_11  and  N_12 
REMARK    5  A    between atoms: C_17  and  N_23 
ROOT
ATOM      1  N   UNK d   1      15.097  62.753 -11.120  0.00  0.00    -0.299 N 
ATOM      2  C   UNK d   1      15.381  64.074 -11.094  0.00  0.00     0.215 A 
ATOM      3  N   UNK d   1      16.603  64.504 -10.715  0.00  0.00    -0.223 NA
ATOM      4  C   UNK d   1      17.586  63.672 -10.353  0.00  0.00     0.186 A 
ATOM      5  N   UNK d   1      18.805  64.089  -9.976  0.00  0.00    -0.042 NA
ATOM      6  C   UNK d   1      19.809  63.275  -9.607  0.00  0.00     0.726 A 
ATOM      7  N   UNK d   1      19.544  61.941  -9.628  0.00  0.00    -0.074 NA
ATOM      8  C   UNK d   1      18.339  61.480  -9.999  0.00  0.00     0.157 A 
ATOM      9  C   UNK d   1      17.316  62.325 -10.375  0.00  0.00     0.099 A 
ATOM     10  C   UNK d   1      16.071  61.871 -10.759  0.00  0.00     0.264 A 
ATOM     11  O   UNK d   1      15.885  60.629 -10.758  0.00  0.00    -0.267 OA
ENDROOT
BRANCH   1  12
ATOM     12  C   UNK d   1      13.831  62.216 -11.507  0.00  0.00     0.236 C 
BRANCH  12  13
ATOM     13  C   UNK d   1      13.292  62.857 -12.755  0.00  0.00     0.240 C 
ATOM     14  N   UNK d   1      12.864  64.194 -12.758  0.00  0.00    -0.326 N 
ATOM     15  H   UNK d   1      12.932  64.751 -11.841  0.00  0.00     0.169 HD
ATOM     16  O   UNK d   1      13.252  62.136 -13.764  0.00  0.00    -0.271 OA
BRANCH  14  17
ATOM     17  C   UNK d   1      12.346  64.846 -13.899  0.00  0.00     0.036 A 
ATOM     18  C   UNK d   1      11.072  64.712 -14.387  0.00  0.00     0.032 A 
ATOM     19  C   UNK d   1      10.678  65.400 -15.537  0.00  0.00     0.041 A 
ATOM     20  C   UNK d   1      11.512  66.233 -16.241  0.00  0.00     0.090 A 
ATOM     21  C   UNK d   1      12.791  66.374 -15.759  0.00  0.00     0.069 A 
ATOM     22 Cl   UNK d   1      13.935  67.415 -16.580  0.00  0.00    -0.081 Cl
ATOM     23  C   UNK d   1      13.189  65.703 -14.630  0.00  0.00     0.056 A 
BRANCH  20  24
ATOM     24  O   UNK d   1      11.080  66.907 -17.391  0.00  0.00    -0.354 OA
ATOM     25  C   UNK d   1      10.281  68.062 -17.270  0.00  0.00     0.210 C 
ENDBRANCH  20  24
ENDBRANCH  14  17
ENDBRANCH  12  13
ENDBRANCH   1  12
BRANCH   6  26
ATOM     26  N   UNK d   1      21.081  63.756  -9.215  0.00  0.00    -0.210 N 
ATOM     27  C   UNK d   1      21.334  63.964  -7.808  0.00  0.00     0.167 C 
ATOM     28  C   UNK d   1      22.759  63.512  -7.493  0.00  0.00     0.188 C 
ATOM     29  O   UNK d   1      23.680  64.043  -8.394  0.00  0.00    -0.388 OA
ATOM     30  C   UNK d   1      23.432  63.431  -9.623  0.00  0.00     0.188 C 
ATOM     31  C   UNK d   1      22.139  64.050 -10.153  0.00  0.00     0.167 C 
ENDBRANCH   6  26
TORSDOF 5
ENDMDL
