/Users/jonathanwahrer/Desktop/Msc/3_Semester/Drug_Design_Praktikum/waehrer_HTS_screening/HTS_experiment/out/docking_results/vina_output/3sx0/1846_docked.pdbqt
 OpenBabel03192222543D

 31 34  0  0  1  0  0  0  0  0999 V2000
   15.0970   62.7530  -11.1200 N   0  0  0  0  0  0  0  0  0  0  0  0
   15.3810   64.0740  -11.0940 C   0  0  0  0  0  2  0  0  0  0  0  0
   16.6030   64.5040  -10.7150 N   0  0  0  0  0  0  0  0  0  0  0  0
   17.5860   63.6720  -10.3530 C   0  0  0  0  0  0  0  0  0  0  0  0
   18.8050   64.0890   -9.9760 N   0  0  0  0  0  0  0  0  0  0  0  0
   19.8090   63.2750   -9.6070 C   0  0  0  0  0  0  0  0  0  0  0  0
   19.5440   61.9410   -9.6280 N   0  0  0  0  0  0  0  0  0  0  0  0
   18.3390   61.4800   -9.9990 C   0  0  0  0  0  3  0  0  0  0  0  0
   17.3160   62.3250  -10.3750 C   0  0  1  0  0  3  0  0  0  0  0  0
   16.0710   61.8710  -10.7590 C   0  0  0  0  0  0  0  0  0  0  0  0
   15.8850   60.6290  -10.7580 O   0  0  0  0  0  0  0  0  0  0  0  0
   13.8310   62.2160  -11.5070 C   0  0  0  0  0  2  0  0  0  0  0  0
   13.2920   62.8570  -12.7550 C   0  0  0  0  0  0  0  0  0  0  0  0
   12.8640   64.1940  -12.7580 N   0  0  0  0  0  0  0  0  0  0  0  0
   12.9320   64.7510  -11.8410 H   0  0  0  0  0  0  0  0  0  0  0  0
   13.2520   62.1360  -13.7640 O   0  0  0  0  0  0  0  0  0  0  0  0
   12.3460   64.8460  -13.8990 C   0  0  0  0  0  0  0  0  0  0  0  0
   11.0720   64.7120  -14.3870 C   0  0  0  0  0  3  0  0  0  0  0  0
   10.6780   65.4000  -15.5370 C   0  0  0  0  0  3  0  0  0  0  0  0
   11.5120   66.2330  -16.2410 C   0  0  0  0  0  0  0  0  0  0  0  0
   12.7910   66.3740  -15.7590 C   0  0  0  0  0  0  0  0  0  0  0  0
   13.9350   67.4150  -16.5800 Cl  0  0  0  0  0  0  0  0  0  0  0  0
   13.1890   65.7030  -14.6300 C   0  0  0  0  0  3  0  0  0  0  0  0
   11.0800   66.9070  -17.3910 O   0  0  0  0  0  0  0  0  0  0  0  0
   10.2810   68.0620  -17.2700 C   0  0  0  0  0  1  0  0  0  0  0  0
   21.0810   63.7560   -9.2150 N   0  0  0  0  0  0  0  0  0  0  0  0
   21.3340   63.9640   -7.8080 C   0  0  0  0  0  2  0  0  0  0  0  0
   22.7590   63.5120   -7.4930 C   0  0  0  0  0  2  0  0  0  0  0  0
   23.6800   64.0430   -8.3940 O   0  0  0  0  0  0  0  0  0  0  0  0
   23.4320   63.4310   -9.6230 C   0  0  0  0  0  2  0  0  0  0  0  0
   22.1390   64.0500  -10.1530 C   0  0  0  0  0  2  0  0  0  0  0  0
  1  2  1  0  0  0  0
  1 10  1  0  0  0  0
  2  3  1  0  0  0  0
  3  4  2  0  0  0  0
  4  5  1  0  0  0  0
  5  6  2  0  0  0  0
  6 26  1  0  0  0  0
  7  6  1  0  0  0  0
  8  7  2  0  0  0  0
  9  4  1  0  0  0  0
  9  8  1  1  0  0  0
 10 11  2  0  0  0  0
 10  9  1  0  0  0  0
 12  1  1  0  0  0  0
 13 12  1  0  0  0  0
 14 13  1  0  0  0  0
 14 15  1  0  0  0  0
 16 13  2  0  0  0  0
 17 14  1  0  0  0  0
 18 17  1  0  0  0  0
 19 18  2  0  0  0  0
 20 21  2  0  0  0  0
 20 19  1  0  0  0  0
 21 23  1  0  0  0  0
 22 21  1  0  0  0  0
 23 17  2  0  0  0  0
 24 25  1  0  0  0  0
 24 20  1  0  0  0  0
 26 27  1  0  0  0  0
 27 28  1  0  0  0  0
 29 28  1  0  0  0  0
 30 29  1  0  0  0  0
 31 30  1  0  0  0  0
 31 26  1  0  0  0  0
M  END
>  <Pose>
1

>  <Score>
-8.229

$$$$
