/Users/jonathanwahrer/Desktop/Msc/3_Semester/Drug_Design_Praktikum/waehrer_HTS_screening/HTS_experiment/out/docking_results/vina_output/3sx0/1852_docked.pdbqt
 OpenBabel03192222543D

 26 29  0  0  1  0  0  0  0  0999 V2000
   20.5550   62.9590  -10.0520 N   0  0  0  0  0  0  0  0  0  0  0  0
   19.3870   63.3570  -10.7720 C   0  0  0  0  0  2  0  0  0  0  0  0
   18.1820   62.7910  -10.0410 C   0  0  1  0  0  3  0  0  0  0  0  0
   18.6970   62.7040   -8.6190 C   0  0  0  0  0  2  0  0  0  0  0  0
   20.1480   62.2750   -8.8650 C   0  0  0  0  0  2  0  0  0  0  0  0
   21.6230   64.2740   -9.7420 S   0  0  0  0  0  0  0  0  0  0  0  0
   20.9330   65.5680  -10.0090 O   0  0  0  0  0  0  0  0  0  0  0  0
   22.7900   64.1420  -10.6840 O   0  0  0  0  0  0  0  0  0  0  0  0
   22.2200   64.2490   -8.0990 C   0  0  0  0  0  0  0  0  0  0  0  0
   23.3930   63.5880   -7.7910 C   0  0  0  0  0  3  0  0  0  0  0  0
   23.9080   63.5380   -6.5070 C   0  0  0  0  0  0  0  0  0  0  0  0
   23.2400   64.1700   -5.4740 C   0  0  0  0  0  0  0  0  0  0  0  0
   25.0750   62.8830   -6.1880 O   0  0  0  0  0  0  0  0  0  0  0  0
   22.0770   64.8250   -5.7880 C   0  0  0  0  0  3  0  0  0  0  0  0
   23.7920   64.0970   -4.2050 O   0  0  0  0  0  0  0  0  0  0  0  0
   21.5610   64.8770   -7.0640 C   0  0  0  0  0  3  0  0  0  0  0  0
   24.6550   63.0530   -3.7880 C   0  0  0  0  0  2  0  0  0  0  0  0
   25.4730   62.4760   -4.9120 C   0  0  0  0  0  2  0  0  0  0  0  0
   17.1560   63.7680  -10.0830 O   0  0  0  0  0  0  0  0  0  0  0  0
   16.0210   63.6090  -10.8620 C   0  0  0  0  0  0  0  0  0  0  0  0
   15.6560   64.6910  -11.6090 N   0  0  0  0  0  0  0  0  0  0  0  0
   14.5600   64.5670  -12.3750 C   0  0  0  0  0  3  0  0  0  0  0  0
   13.8160   63.4060  -12.4240 C   0  0  0  0  0  0  0  0  0  0  0  0
   14.2330   62.3430  -11.6460 C   0  0  0  0  0  2  0  0  0  0  0  0
   12.3880   63.2580  -13.4270 Cl  0  0  0  0  0  0  0  0  0  0  0  0
   15.3360   62.4680  -10.8770 N   0  0  0  0  0  0  0  0  0  0  0  0
  1  6  1  0  0  0  0
  1  5  1  0  0  0  0
  2  1  1  0  0  0  0
  2  3  1  0  0  0  0
  3 19  1  1  0  0  0
  3  4  1  0  0  0  0
  5  4  1  0  0  0  0
  6  9  1  0  0  0  0
  7  6  2  0  0  0  0
  8  6  2  0  0  0  0
  9 10  2  0  0  0  0
  9 16  1  0  0  0  0
 10 11  1  0  0  0  0
 11 13  1  0  0  0  0
 11 12  2  0  0  0  0
 12 15  1  0  0  0  0
 13 18  1  0  0  0  0
 14 12  1  0  0  0  0
 15 17  1  0  0  0  0
 16 14  2  0  0  0  0
 18 17  1  0  0  0  0
 20 19  1  0  0  0  0
 21 20  2  0  0  0  0
 22 21  1  0  0  0  0
 23 22  2  0  0  0  0
 23 24  1  0  0  0  0
 24 26  1  0  0  0  0
 25 23  1  0  0  0  0
 26 20  2  0  0  0  0
M  END
>  <Pose>
1

>  <Score>
-8.100

$$$$
