MODEL 1
REMARK VINA RESULT:    -8.100      0.000      0.000
REMARK INTER + INTRA:         -10.638
REMARK INTER:                  -9.994
REMARK INTRA:                  -0.644
REMARK UNBOUND:                -0.644
REMARK  4 active torsions:
REMARK  status: ('A' for Active; 'I' for Inactive)
REMARK    1  A    between atoms: S_1  and  N_4 
REMARK    2  A    between atoms: S_1  and  C_17 
REMARK    3  A    between atoms: C_6  and  O_9 
REMARK    4  A    between atoms: O_9  and  C_10 
ROOT
ATOM      1  N   UNK d   1      20.555  62.959 -10.052  0.00  0.00    -0.204 NA
ATOM      2  C   UNK d   1      19.387  63.357 -10.772  0.00  0.00     0.140 C 
ATOM      3  C   UNK d   1      18.182  62.791 -10.041  0.00  0.00     0.147 C 
ATOM      4  C   UNK d   1      18.697  62.704  -8.619  0.00  0.00     0.049 C 
ATOM      5  C   UNK d   1      20.148  62.275  -8.865  0.00  0.00     0.110 C 
ENDROOT
BRANCH   1   6
ATOM      6  S   UNK d   1      21.623  64.274  -9.742  0.00  0.00     0.243 S 
ATOM      7  O   UNK d   1      20.933  65.568 -10.009  0.00  0.00    -0.206 OA
ATOM      8  O   UNK d   1      22.790  64.142 -10.684  0.00  0.00    -0.206 OA
BRANCH   6   9
ATOM      9  C   UNK d   1      22.220  64.249  -8.099  0.00  0.00     0.077 A 
ATOM     10  C   UNK d   1      23.393  63.588  -7.791  0.00  0.00     0.064 A 
ATOM     11  C   UNK d   1      23.908  63.538  -6.507  0.00  0.00     0.103 A 
ATOM     12  C   UNK d   1      23.240  64.170  -5.474  0.00  0.00     0.102 A 
ATOM     13  O   UNK d   1      25.075  62.883  -6.188  0.00  0.00    -0.346 OA
ATOM     14  C   UNK d   1      22.077  64.825  -5.788  0.00  0.00     0.041 A 
ATOM     15  O   UNK d   1      23.792  64.097  -4.205  0.00  0.00    -0.346 OA
ATOM     16  C   UNK d   1      21.561  64.877  -7.064  0.00  0.00     0.028 A 
ATOM     17  C   UNK d   1      24.655  63.053  -3.788  0.00  0.00     0.202 C 
ATOM     18  C   UNK d   1      25.473  62.476  -4.912  0.00  0.00     0.202 C 
ENDBRANCH   6   9
ENDBRANCH   1   6
BRANCH   3  19
ATOM     19  O   UNK d   1      17.156  63.768 -10.083  0.00  0.00    -0.312 OA
BRANCH  19  20
ATOM     20  C   UNK d   1      16.021  63.609 -10.862  0.00  0.00     0.268 A 
ATOM     21  N   UNK d   1      15.656  64.691 -11.609  0.00  0.00    -0.218 NA
ATOM     22  C   UNK d   1      14.560  64.567 -12.375  0.00  0.00     0.146 A 
ATOM     23  C   UNK d   1      13.816  63.406 -12.424  0.00  0.00     0.069 A 
ATOM     24  C   UNK d   1      14.233  62.343 -11.646  0.00  0.00     0.146 A 
ATOM     25 Cl   UNK d   1      12.388  63.258 -13.427  0.00  0.00    -0.081 Cl
ATOM     26  N   UNK d   1      15.336  62.468 -10.877  0.00  0.00    -0.218 NA
ENDBRANCH  19  20
ENDBRANCH   3  19
TORSDOF 4
ENDMDL
