MODEL 1
REMARK VINA RESULT:    -6.862      0.000      0.000
REMARK INTER + INTRA:          -9.133
REMARK INTER:                  -8.868
REMARK INTRA:                  -0.264
REMARK UNBOUND:                -0.264
REMARK  5 active torsions:
REMARK  status: ('A' for Active; 'I' for Inactive)
REMARK    1  A    between atoms: C_4  and  C_8 
REMARK    2  A    between atoms: C_8  and  N_9 
REMARK    3  A    between atoms: C_13  and  N_14 
REMARK    4  A    between atoms: N_17  and  C_20 
REMARK    5  A    between atoms: C_20  and  C_21 
REMARK       I    between atoms: C_21  and  N_23 
ROOT
ATOM      1  N   UNK d   1      20.870  63.961  -9.947  0.00  0.00    -0.168 N 
ATOM      2  C   UNK d   1      21.409  63.591 -11.141  0.00  0.00     0.167 A 
ATOM      3  C   UNK d   1      22.772  63.641 -11.014  0.00  0.00     0.185 A 
ATOM      4  N   UNK d   1      23.013  64.035  -9.764  0.00  0.00    -0.044 NA
ATOM      5  C   UNK d   1      21.852  64.241  -9.086  0.00  0.00     0.707 A 
ATOM      6  N   UNK d   1      23.526  63.328 -12.082  0.00  0.00    -0.286 N 
ATOM      7  C   UNK d   1      22.968  62.971 -13.270  0.00  0.00     0.330 A 
ATOM      8  O   UNK d   1      23.674  62.674 -14.286  0.00  0.00    -0.246 OA
ATOM      9  N   UNK d   1      21.635  62.914 -13.425  0.00  0.00    -0.273 N 
ATOM     10  C   UNK d   1      20.867  63.221 -12.370  0.00  0.00     0.280 A 
ATOM     11  O   UNK d   1      19.630  63.161 -12.547  0.00  0.00    -0.265 OA
ATOM     12  C   UNK d   1      24.963  63.370 -12.000  0.00  0.00     0.163 C 
ATOM     13  H   UNK d   1      21.202  62.633 -14.356  0.00  0.00     0.173 HD
ENDROOT
BRANCH   5  14
ATOM     14  N   UNK d   1      21.777  64.713  -7.724  0.00  0.00    -0.212 N 
ATOM     15  C   UNK d   1      21.256  63.762  -6.770  0.00  0.00     0.171 C 
ATOM     16  C   UNK d   1      21.274  64.259  -5.347  0.00  0.00     0.293 C 
ATOM     17  N   UNK d   1      22.546  64.832  -5.101  0.00  0.00     0.100 N 
ATOM     18  C   UNK d   1      22.779  65.992  -5.895  0.00  0.00     0.293 C 
ATOM     19  C   UNK d   1      22.161  66.003  -7.262  0.00  0.00     0.171 C 
BRANCH  17  20
ATOM     20  C   UNK d   1      23.577  63.845  -5.182  0.00  0.00     0.374 C 
BRANCH  20  21
ATOM     21  C   UNK d   1      24.051  63.352  -3.856  0.00  0.00     0.243 C 
ATOM     22  O   UNK d   1      24.467  64.085  -2.945  0.00  0.00    -0.272 OA
ATOM     23  N   UNK d   1      23.999  61.928  -3.686  0.00  0.00    -0.369 N 
ATOM     24  H   UNK d   1      24.755  61.303  -4.047  0.00  0.00     0.159 HD
ATOM     25  H   UNK d   1      23.202  61.524  -3.199  0.00  0.00     0.159 HD
ENDBRANCH  20  21
ENDBRANCH  17  20
ENDBRANCH   5  14
BRANCH   1  26
ATOM     26  C   UNK d   1      19.468  63.998  -9.700  0.00  0.00     0.186 C 
BRANCH  26  27
ATOM     27  C   UNK d   1      18.761  62.695  -9.804  0.00  0.00    -0.038 A 
ATOM     28  C   UNK d   1      17.435  62.699 -10.264  0.00  0.00     0.032 A 
ATOM     29  C   UNK d   1      16.687  61.563 -10.393  0.00  0.00     0.034 A 
ATOM     30 Cl   UNK d   1      15.026  61.557 -10.978  0.00  0.00    -0.084 Cl
ATOM     31  C   UNK d   1      17.245  60.348 -10.057  0.00  0.00     0.024 A 
ATOM     32  C   UNK d   1      18.549  60.334  -9.604  0.00  0.00     0.002 A 
ATOM     33  C   UNK d   1      19.305  61.490  -9.475  0.00  0.00     0.009 A 
ENDBRANCH  26  27
ENDBRANCH   1  26
TORSDOF 5
ENDMDL
