MODEL 1
REMARK VINA RESULT:    -5.059      0.000      0.000
REMARK INTER + INTRA:          -4.030
REMARK INTER:                  -6.094
REMARK INTRA:                   2.064
REMARK UNBOUND:                 2.064
REMARK  4 active torsions:
REMARK  status: ('A' for Active; 'I' for Inactive)
REMARK    1  A    between atoms: C_5  and  C_8 
REMARK    2  A    between atoms: C_8  and  O_26 
REMARK    3  A    between atoms: N_9  and  C_18 
REMARK    4  A    between atoms: C_21  and  O_24 
ROOT
ATOM      1  C   UNK d   1      21.675  64.249  -7.090  0.00  0.00     0.287 C 
ATOM      2  N   UNK d   1      22.759  63.347  -7.050  0.00  0.00     0.042 N 
ATOM      3  C   UNK d   1      23.246  63.102  -8.341  0.00  0.00     0.210 C 
ATOM      4  C   UNK d   1      24.105  62.352  -8.987  0.00  0.00     0.030 C 
ATOM      5  C   UNK d   1      24.280  62.459 -10.440  0.00  0.00     0.032 C 
ATOM      6  C   UNK d   1      23.775  63.622 -11.159  0.00  0.00     0.024 C 
ATOM      7  C   UNK d   1      22.968  64.593 -10.334  0.00  0.00     0.125 C 
ATOM      8  N   UNK d   1      22.430  63.968  -9.179  0.00  0.00    -0.351 N 
ATOM      9  C   UNK d   1      21.142  63.931  -8.498  0.00  0.00     0.151 C 
ATOM     10  C   UNK d   1      20.214  64.920  -9.069  0.00  0.00     0.038 C 
ATOM     11  H   UNK d   1      22.230  62.380  -6.864  0.00  0.00     0.299 HD
ENDROOT
BRANCH   1  12
ATOM     12  C   UNK d   1      21.945  65.681  -6.984  0.00  0.00     0.008 A 
ATOM     13  C   UNK d   1      23.166  66.113  -6.536  0.00  0.00     0.014 A 
ATOM     14  C   UNK d   1      23.466  67.467  -6.399  0.00  0.00     0.024 A 
ATOM     15  C   UNK d   1      22.489  68.395  -6.729  0.00  0.00     0.034 A 
ATOM     16 Cl   UNK d   1      22.768  70.120  -6.589  0.00  0.00    -0.084 Cl
ATOM     17  C   UNK d   1      21.264  67.944  -7.181  0.00  0.00     0.024 A 
ATOM     18  C   UNK d   1      20.967  66.603  -7.316  0.00  0.00     0.014 A 
ENDBRANCH   1  12
BRANCH   1  19
ATOM     19  O   UNK d   1      20.688  63.837  -6.225  0.00  0.00    -0.359 OA
ATOM     20  H   UNK d   1      19.789  63.746  -6.590  0.00  0.00     0.213 HD
ENDBRANCH   1  19
BRANCH   2  21
ATOM     21  C   UNK d   1      23.592  63.377  -5.936  0.00  0.00     0.146 A 
ATOM     22  C   UNK d   1      24.904  62.971  -6.117  0.00  0.00     0.041 A 
ATOM     23  C   UNK d   1      25.824  62.942  -5.096  0.00  0.00     0.039 A 
ATOM     24  C   UNK d   1      25.492  63.325  -3.793  0.00  0.00     0.068 A 
ATOM     25  C   UNK d   1      24.186  63.721  -3.642  0.00  0.00     0.039 A 
ATOM     26  C   UNK d   1      23.273  63.748  -4.667  0.00  0.00     0.041 A 
BRANCH  24  27
ATOM     27  O   UNK d   1      26.426  63.296  -2.776  0.00  0.00    -0.356 OA
ATOM     28  C   UNK d   1      26.145  62.585  -1.596  0.00  0.00     0.210 C 
ENDBRANCH  24  27
ENDBRANCH   2  21
TORSDOF 4
ENDMDL
