/Users/jonathanwahrer/Desktop/Msc/3_Semester/Drug_Design_Praktikum/waehrer_HTS_screening/HTS_experiment/out/docking_results/vina_output/3sx0/1893_docked.pdbqt
 OpenBabel03192222553D

 28 31  0  0  0  0  0  0  0  0999 V2000
   18.3030   62.5810   -9.9570 N   0  0  0  0  0  0  0  0  0  0  0  0
   17.2070   63.3310  -10.2170 C   0  0  0  0  0  0  0  0  0  0  0  0
   17.1880   64.5890  -10.1640 O   0  0  0  0  0  0  0  0  0  0  0  0
   16.1250   62.5320  -10.5470 C   0  0  0  0  0  0  0  0  0  0  0  0
   16.5620   61.2840  -10.4860 C   0  0  0  0  0  0  0  0  0  0  0  0
   15.5060   60.5080  -10.8070 N   0  0  0  0  0  0  0  0  0  0  0  0
   14.4500   61.2960  -11.0550 N   0  0  0  0  0  0  0  0  0  0  0  0
   14.8260   62.5540  -10.8950 N   0  0  0  0  0  0  0  0  0  0  0  0
   17.8940   61.3110  -10.1250 C   0  0  0  0  0  0  0  0  0  0  0  0
   18.5940   60.2850   -9.9840 O   0  0  0  0  0  0  0  0  0  0  0  0
   15.5170   59.4730  -10.8510 H   0  0  0  0  0  0  0  0  0  0  0  0
   13.4850   61.0130  -11.3280 H   0  0  0  0  0  0  0  0  0  0  0  0
   14.0040   63.7340  -11.0640 C   0  0  0  0  0  2  0  0  0  0  0  0
   13.6160   63.9740  -12.4760 C   0  0  0  0  0  0  0  0  0  0  0  0
   12.8610   63.1020  -13.2290 C   0  0  0  0  0  3  0  0  0  0  0  0
   12.5010   63.3300  -14.5420 C   0  0  0  0  0  0  0  0  0  0  0  0
   12.9140   64.4920  -15.1490 C   0  0  0  0  0  3  0  0  0  0  0  0
   13.6700   65.3910  -14.4340 C   0  0  0  0  0  3  0  0  0  0  0  0
   14.0170   65.1370  -13.1180 C   0  0  0  0  0  3  0  0  0  0  0  0
   11.7300   62.3760  -15.2180 O   0  0  0  0  0  0  0  0  0  0  0  0
   10.5370   61.8610  -14.6610 C   0  0  0  0  0  1  0  0  0  0  0  0
   19.5830   63.0480   -9.5890 C   0  0  0  0  0  0  0  0  0  0  0  0
   20.5640   63.2880  -10.5280 C   0  0  0  0  0  3  0  0  0  0  0  0
   21.8250   63.7450  -10.1940 C   0  0  0  0  0  3  0  0  0  0  0  0
   22.1070   63.9670   -8.8620 C   0  0  0  0  0  0  0  0  0  0  0  0
   23.6970   64.5510   -8.3560 Cl  0  0  0  0  0  0  0  0  0  0  0  0
   21.1600   63.7410   -7.8840 C   0  0  0  0  0  3  0  0  0  0  0  0
   19.9030   63.2810   -8.2670 C   0  0  0  0  0  3  0  0  0  0  0  0
  1 22  1  0  0  0  0
  2  3  2  0  0  0  0
  2  1  1  0  0  0  0
  4  5  2  0  0  0  0
  4  2  1  0  0  0  0
  5  9  1  0  0  0  0
  6  5  1  0  0  0  0
  7  8  1  0  0  0  0
  7  6  1  0  0  0  0
  8  4  1  0  0  0  0
  9 10  2  0  0  0  0
  9  1  1  0  0  0  0
 11  6  1  0  0  0  0
 12  7  1  0  0  0  0
 13  8  1  0  0  0  0
 14 13  1  0  0  0  0
 15 14  2  0  0  0  0
 16 15  1  0  0  0  0
 17 16  2  0  0  0  0
 17 18  1  0  0  0  0
 18 19  2  0  0  0  0
 19 14  1  0  0  0  0
 20 21  1  0  0  0  0
 20 16  1  0  0  0  0
 22 28  1  0  0  0  0
 23 24  1  0  0  0  0
 23 22  2  0  0  0  0
 24 25  2  0  0  0  0
 25 26  1  0  0  0  0
 25 27  1  0  0  0  0
 28 27  2  0  0  0  0
M  END
>  <Pose>
1

>  <Score>
-8.997

$$$$
