MODEL 1
REMARK VINA RESULT:    -9.736      0.000      0.000
REMARK INTER + INTRA:         -11.614
REMARK INTER:                 -11.444
REMARK INTRA:                  -0.170
REMARK UNBOUND:                -0.170
REMARK  3 active torsions:
REMARK  status: ('A' for Active; 'I' for Inactive)
REMARK    1  A    between atoms: C_5  and  N_8 
REMARK    2  A    between atoms: N_15  and  C_16 
REMARK    3  A    between atoms: C_16  and  C_17 
ROOT
ATOM      1  N   UNK d   1      20.159  63.212  -9.317  0.00  0.00    -0.241 N 
ATOM      2  C   UNK d   1      20.561  63.520  -8.063  0.00  0.00     0.286 A 
ATOM      3  O   UNK d   1      19.850  63.379  -7.046  0.00  0.00    -0.265 OA
ATOM      4  C   UNK d   1      21.857  64.007  -8.063  0.00  0.00     0.154 A 
ATOM      5  C   UNK d   1      22.252  63.995  -9.344  0.00  0.00     0.152 A 
ATOM      6  N   UNK d   1      23.511  64.468  -9.332  0.00  0.00    -0.279 N 
ATOM      7  N   UNK d   1      23.865  64.755  -8.093  0.00  0.00    -0.239 N 
ATOM      8  N   UNK d   1      22.855  64.476  -7.296  0.00  0.00    -0.266 N 
ATOM      9  C   UNK d   1      21.205  63.508 -10.098  0.00  0.00     0.286 A 
ATOM     10  O   UNK d   1      21.232  63.362 -11.351  0.00  0.00    -0.265 OA
ATOM     11  H   UNK d   1      24.138  64.600 -10.152  0.00  0.00     0.189 HD
ATOM     12  H   UNK d   1      24.803  65.145  -7.782  0.00  0.00     0.208 HD
ENDROOT
BRANCH   1  13
ATOM     13  C   UNK d   1      18.896  62.688  -9.720  0.00  0.00     0.046 A 
ATOM     14  C   UNK d   1      17.835  63.517 -10.016  0.00  0.00     0.032 A 
ATOM     15  C   UNK d   1      16.607  63.017 -10.408  0.00  0.00     0.026 A 
ATOM     16  C   UNK d   1      16.391  61.660 -10.520  0.00  0.00     0.034 A 
ATOM     17 Cl   UNK d   1      14.826  61.025 -11.020  0.00  0.00    -0.084 Cl
ATOM     18  C   UNK d   1      17.446  60.820 -10.226  0.00  0.00     0.026 A 
ATOM     19  C   UNK d   1      18.669  61.328  -9.835  0.00  0.00     0.032 A 
ENDBRANCH   1  13
BRANCH   8  20
ATOM     20  C   UNK d   1      22.805  64.642  -5.863  0.00  0.00     0.189 C 
BRANCH  20  21
ATOM     21  C   UNK d   1      23.778  63.802  -5.132  0.00  0.00    -0.038 A 
ATOM     22  C   UNK d   1      24.763  63.142  -5.825  0.00  0.00     0.009 A 
ATOM     23  C   UNK d   1      25.656  62.363  -5.126  0.00  0.00     0.001 A 
ATOM     24  C   UNK d   1      25.580  62.234  -3.751  0.00  0.00     0.000 A 
ATOM     25  C   UNK d   1      24.593  62.895  -3.055  0.00  0.00     0.001 A 
ATOM     26  C   UNK d   1      23.714  63.665  -3.764  0.00  0.00     0.009 A 
ENDBRANCH  20  21
ENDBRANCH   8  20
TORSDOF 3
ENDMDL
