/Users/jonathanwahrer/Desktop/Msc/3_Semester/Drug_Design_Praktikum/waehrer_HTS_screening/HTS_experiment/out/docking_results/vina_output/3sx0/1894_docked.pdbqt
 OpenBabel03192222553D

 26 29  0  0  0  0  0  0  0  0999 V2000
   20.1590   63.2120   -9.3170 N   0  0  0  0  0  0  0  0  0  0  0  0
   20.5610   63.5200   -8.0630 C   0  0  0  0  0  0  0  0  0  0  0  0
   19.8500   63.3790   -7.0460 O   0  0  0  0  0  0  0  0  0  0  0  0
   21.8570   64.0070   -8.0630 C   0  0  0  0  0  0  0  0  0  0  0  0
   22.2520   63.9950   -9.3440 C   0  0  0  0  0  0  0  0  0  0  0  0
   23.5110   64.4680   -9.3320 N   0  0  0  0  0  0  0  0  0  0  0  0
   23.8650   64.7550   -8.0930 N   0  0  0  0  0  0  0  0  0  0  0  0
   22.8550   64.4760   -7.2960 N   0  0  0  0  0  0  0  0  0  0  0  0
   21.2050   63.5080  -10.0980 C   0  0  0  0  0  0  0  0  0  0  0  0
   21.2320   63.3620  -11.3510 O   0  0  0  0  0  0  0  0  0  0  0  0
   24.1380   64.6000  -10.1520 H   0  0  0  0  0  0  0  0  0  0  0  0
   24.8030   65.1450   -7.7820 H   0  0  0  0  0  0  0  0  0  0  0  0
   18.8960   62.6880   -9.7200 C   0  0  0  0  0  0  0  0  0  0  0  0
   17.8350   63.5170  -10.0160 C   0  0  0  0  0  3  0  0  0  0  0  0
   16.6070   63.0170  -10.4080 C   0  0  0  0  0  3  0  0  0  0  0  0
   16.3910   61.6600  -10.5200 C   0  0  0  0  0  0  0  0  0  0  0  0
   14.8260   61.0250  -11.0200 Cl  0  0  0  0  0  0  0  0  0  0  0  0
   17.4460   60.8200  -10.2260 C   0  0  0  0  0  3  0  0  0  0  0  0
   18.6690   61.3280   -9.8350 C   0  0  0  0  0  3  0  0  0  0  0  0
   22.8050   64.6420   -5.8630 C   0  0  0  0  0  2  0  0  0  0  0  0
   23.7780   63.8020   -5.1320 C   0  0  0  0  0  0  0  0  0  0  0  0
   24.7630   63.1420   -5.8250 C   0  0  0  0  0  3  0  0  0  0  0  0
   25.6560   62.3630   -5.1260 C   0  0  0  0  0  3  0  0  0  0  0  0
   25.5800   62.2340   -3.7510 C   0  0  0  0  0  3  0  0  0  0  0  0
   24.5930   62.8950   -3.0550 C   0  0  0  0  0  3  0  0  0  0  0  0
   23.7140   63.6650   -3.7640 C   0  0  0  0  0  3  0  0  0  0  0  0
  1  2  1  0  0  0  0
  2  3  2  0  0  0  0
  4  2  1  0  0  0  0
  4  8  1  0  0  0  0
  5  6  1  0  0  0  0
  5  4  2  0  0  0  0
  6  7  1  0  0  0  0
  7 12  1  0  0  0  0
  7  8  1  0  0  0  0
  8 20  1  0  0  0  0
  9  5  1  0  0  0  0
  9  1  1  0  0  0  0
 10  9  2  0  0  0  0
 11  6  1  0  0  0  0
 13  1  1  0  0  0  0
 14 13  2  0  0  0  0
 15 14  1  0  0  0  0
 16 15  2  0  0  0  0
 16 18  1  0  0  0  0
 17 16  1  0  0  0  0
 18 19  2  0  0  0  0
 19 13  1  0  0  0  0
 20 21  1  0  0  0  0
 21 26  1  0  0  0  0
 22 21  2  0  0  0  0
 22 23  1  0  0  0  0
 23 24  2  0  0  0  0
 24 25  1  0  0  0  0
 26 25  2  0  0  0  0
M  END
>  <Pose>
1

>  <Score>
-9.736

$$$$
