/Users/jonathanwahrer/Desktop/Msc/3_Semester/Drug_Design_Praktikum/waehrer_HTS_screening/HTS_experiment/out/docking_results/vina_output/3sx0/1895_docked.pdbqt
 OpenBabel03192222563D

 32 35  0  0  1  0  0  0  0  0999 V2000
   13.8170   63.2190  -12.6910 N   0  0  0  0  0  0  0  0  0  0  0  0
   13.3760   64.5020  -13.0780 C   0  0  0  0  0  2  0  0  0  0  0  0
   13.3040   64.5170  -14.6190 C   0  0  0  0  0  2  0  0  0  0  0  0
   12.1980   63.6400  -14.9080 N   0  0  0  0  0  0  0  0  0  0  0  0
   12.4850   62.2370  -14.5370 C   0  0  0  0  0  2  0  0  0  0  0  0
   13.2380   62.0860  -13.2800 C   0  0  0  0  0  2  0  0  0  0  0  0
   10.9560   63.9350  -15.4660 C   0  0  0  0  0  0  0  0  0  0  0  0
   10.1780   62.8760  -15.5780 O   0  0  0  0  0  0  0  0  0  0  0  0
   10.3200   65.1350  -15.9470 C   0  0  0  0  0  2  0  0  0  0  0  0
   11.0560   66.3610  -15.9030 N   0  0  0  0  0  0  0  0  0  0  0  0
   12.1760   66.6900  -16.7260 C   0  0  0  0  0  0  0  0  0  0  0  0
   12.6670   65.8980  -17.6010 O   0  0  0  0  0  0  0  0  0  0  0  0
   12.6010   67.9940  -16.3920 N   0  0  0  0  0  0  0  0  0  0  0  0
   11.5300   68.6450  -15.6540 C   0  0  1  0  0  0  0  0  0  0  0  0
   13.5070   68.4310  -16.6200 H   0  0  0  0  0  0  0  0  0  0  0  0
   11.9980   69.5370  -14.5580 C   0  0  1  0  0  3  0  0  0  0  0  0
   10.6740   69.3670  -16.6700 C   0  0  0  0  0  2  0  0  0  0  0  0
   10.8020   67.4860  -15.0580 C   0  0  0  0  0  0  0  0  0  0  0  0
   11.0010   70.6960  -14.4490 C   0  0  0  0  0  2  0  0  0  0  0  0
   12.0280   68.8810  -13.1980 C   0  0  0  0  0  1  0  0  0  0  0  0
   11.2580   71.5830  -15.6520 C   0  0  0  0  0  2  0  0  0  0  0  0
   11.3180   70.7280  -16.8940 C   0  0  0  0  0  2  0  0  0  0  0  0
   10.1060   67.4920  -14.0240 O   0  0  0  0  0  0  0  0  0  0  0  0
   14.2090   63.0650  -11.0360 S   0  0  0  0  0  0  0  0  0  0  0  0
   13.7130   64.1650  -10.1840 O   0  0  0  0  0  0  0  0  0  0  0  0
   13.6250   61.7660  -10.5360 O   0  0  0  0  0  0  0  0  0  0  0  0
   15.9750   62.9640  -10.9220 C   0  0  0  0  0  0  0  0  0  0  0  0
   17.1580   64.1480  -11.2350 S   0  0  0  0  0  0  0  0  0  0  0  0
   18.5540   63.2390  -10.8880 C   0  0  0  0  0  0  0  0  0  0  0  0
   18.0500   62.0160  -10.5310 C   0  0  0  0  0  3  0  0  0  0  0  0
   20.2480   63.7490  -10.9680 Cl  0  0  0  0  0  0  0  0  0  0  0  0
   16.7130   61.8800  -10.5500 C   0  0  0  0  0  3  0  0  0  0  0  0
  1 24  1  0  0  0  0
  2  1  1  0  0  0  0
  3  2  1  0  0  0  0
  4  3  1  0  0  0  0
  4  5  1  0  0  0  0
  5  6  1  0  0  0  0
  6  1  1  0  0  0  0
  7  4  1  0  0  0  0
  8  7  2  0  0  0  0
  9 10  1  0  0  0  0
  9  7  1  0  0  0  0
 10 18  1  0  0  0  0
 11 13  1  0  0  0  0
 11 10  1  0  0  0  0
 12 11  2  0  0  0  0
 13 14  1  0  0  0  0
 14 17  1  6  0  0  0
 14 18  1  0  0  0  0
 14 16  1  0  0  0  0
 15 13  1  0  0  0  0
 16 19  1  0  0  0  0
 16 20  1  1  0  0  0
 18 23  2  0  0  0  0
 21 19  1  0  0  0  0
 22 17  1  0  0  0  0
 22 21  1  0  0  0  0
 24 27  1  0  0  0  0
 24 26  2  0  0  0  0
 24 25  2  0  0  0  0
 27 32  2  0  0  0  0
 28 27  1  0  0  0  0
 28 29  1  0  0  0  0
 29 30  2  0  0  0  0
 31 29  1  0  0  0  0
 32 30  1  0  0  0  0
M  END
>  <Pose>
1

>  <Score>
-5.298

$$$$
