/Users/jonathanwahrer/Desktop/Msc/3_Semester/Drug_Design_Praktikum/waehrer_HTS_screening/HTS_experiment/out/docking_results/vina_output/3sx0/1906_docked.pdbqt
 OpenBabel03192222563D

 33 36  0  0  1  0  0  0  0  0999 V2000
   20.8350   63.5800   -8.3050 C   0  0  1  0  0  0  0  0  0  0  0  0
   20.8540   64.6820   -9.1710 O   0  0  0  0  0  0  0  0  0  0  0  0
   20.3830   65.8440   -8.6250 C   0  0  0  0  0  2  0  0  0  0  0  0
   21.2920   66.4480   -7.5740 C   0  0  0  0  0  2  0  0  0  0  0  0
   21.8070   65.2700   -6.8310 N   0  0  0  0  0  0  0  0  0  0  0  0
   20.9690   64.1350   -6.8740 C   0  0  0  0  0  2  0  0  0  0  0  0
   23.0200   65.3880   -6.1840 C   0  0  0  0  0  0  0  0  0  0  0  0
   23.6810   66.5060   -6.2320 O   0  0  0  0  0  0  0  0  0  0  0  0
   19.4460   63.0140   -8.3930 C   0  0  0  0  0  2  0  0  0  0  0  0
   18.6380   63.3430   -9.3750 O   0  0  0  0  0  0  0  0  0  0  0  0
   17.4510   63.4520   -9.8970 C   0  0  0  0  0  0  0  0  0  0  0  0
   16.6900   62.4100  -10.3600 C   0  0  0  0  0  3  0  0  0  0  0  0
   15.4500   62.6350  -10.8950 C   0  0  0  0  0  0  0  0  0  0  0  0
   14.4990   61.2700  -11.4800 Cl  0  0  0  0  0  0  0  0  0  0  0  0
   14.9190   63.9070  -10.9890 C   0  0  0  0  0  3  0  0  0  0  0  0
   15.6760   64.9510  -10.5250 C   0  0  0  0  0  3  0  0  0  0  0  0
   16.9060   64.7480   -9.9920 C   0  0  0  0  0  3  0  0  0  0  0  0
   21.9350   62.6910   -8.6640 C   0  0  0  0  0  2  0  0  0  0  0  0
   23.0550   63.2370   -9.4340 C   0  0  0  0  0  0  0  0  0  0  0  0
   24.1610   63.4420   -8.8990 O   0  0  0  0  0  0  0  0  0  0  0  0
   22.9220   63.5520  -10.8170 N   0  0  0  0  0  0  0  0  0  0  0  0
   21.6640   63.3460  -11.5270 C   0  0  0  0  0  2  0  0  0  0  0  0
   24.0250   64.0930  -11.5830 C   0  0  0  0  0  2  0  0  0  0  0  0
   21.9960   62.6320  -12.8200 C   0  0  0  0  0  2  0  0  0  0  0  0
   22.9050   63.4090  -13.5440 O   0  0  0  0  0  0  0  0  0  0  0  0
   24.1360   63.3770  -12.8900 C   0  0  0  0  0  2  0  0  0  0  0  0
   23.6540   64.3510   -5.4290 C   0  0  0  0  0  0  0  0  0  0  0  0
   23.4660   64.1640   -4.1230 N   0  0  0  0  0  0  0  0  0  0  0  0
   24.0580   63.1890   -3.4050 C   0  0  0  0  0  3  0  0  0  0  0  0
   24.9230   62.3100   -4.0380 C   0  0  0  0  0  0  0  0  0  0  0  0
   25.1340   62.4650   -5.3350 N   0  0  0  0  0  0  0  0  0  0  0  0
   25.5480   61.2570   -3.1990 C   0  0  0  0  0  1  0  0  0  0  0  0
   24.5330   63.4440   -6.0300 C   0  0  0  0  0  3  0  0  0  0  0  0
  1 18  1  6  0  0  0
  1  6  1  0  0  0  0
  2  3  1  0  0  0  0
  2  1  1  0  0  0  0
  3  4  1  0  0  0  0
  4  5  1  0  0  0  0
  5  7  1  0  0  0  0
  6  5  1  0  0  0  0
  7 27  1  0  0  0  0
  8  7  2  0  0  0  0
  9  1  1  0  0  0  0
 10  9  1  0  0  0  0
 11 10  1  0  0  0  0
 12 11  2  0  0  0  0
 13 12  1  0  0  0  0
 14 13  1  0  0  0  0
 15 13  2  0  0  0  0
 15 16  1  0  0  0  0
 16 17  2  0  0  0  0
 17 11  1  0  0  0  0
 19 20  2  0  0  0  0
 19 18  1  0  0  0  0
 21 19  1  0  0  0  0
 22 21  1  0  0  0  0
 23 21  1  0  0  0  0
 24 22  1  0  0  0  0
 25 26  1  0  0  0  0
 25 24  1  0  0  0  0
 26 23  1  0  0  0  0
 27 28  1  0  0  0  0
 28 29  2  0  0  0  0
 30 29  1  0  0  0  0
 30 32  1  0  0  0  0
 31 30  2  0  0  0  0
 33 27  2  0  0  0  0
 33 31  1  0  0  0  0
M  END
>  <Pose>
1

>  <Score>
-7.135

$$$$
