MODEL 1
REMARK VINA RESULT:    -7.135      0.000      0.000
REMARK INTER + INTRA:          -9.719
REMARK INTER:                  -9.638
REMARK INTRA:                  -0.082
REMARK UNBOUND:                -0.082
REMARK  6 active torsions:
REMARK  status: ('A' for Active; 'I' for Inactive)
REMARK    1  A    between atoms: C_4  and  O_8 
REMARK    2  A    between atoms: O_8  and  C_9 
REMARK    3  A    between atoms: C_9  and  C_10 
REMARK    4  A    between atoms: C_10  and  C_25 
REMARK       I    between atoms: N_14  and  C_16 
REMARK    5  A    between atoms: C_16  and  C_18 
REMARK    6  A    between atoms: C_25  and  C_26 
REMARK       I    between atoms: C_26  and  N_28 
ROOT
ATOM      1  C   UNK d   1      20.835  63.580  -8.305  0.00  0.00     0.107 C 
ATOM      2  O   UNK d   1      20.854  64.682  -9.171  0.00  0.00    -0.374 OA
ATOM      3  C   UNK d   1      20.383  65.844  -8.625  0.00  0.00     0.189 C 
ATOM      4  C   UNK d   1      21.292  66.448  -7.574  0.00  0.00     0.151 C 
ATOM      5  N   UNK d   1      21.807  65.270  -6.831  0.00  0.00    -0.353 N 
ATOM      6  C   UNK d   1      20.969  64.135  -6.874  0.00  0.00     0.165 C 
ATOM      7  C   UNK d   1      23.020  65.388  -6.184  0.00  0.00     0.207 C 
ATOM      8  O   UNK d   1      23.681  66.506  -6.232  0.00  0.00    -0.170 OA
ENDROOT
BRANCH   1   9
ATOM      9  C   UNK d   1      19.446  63.014  -8.393  0.00  0.00     0.215 C 
BRANCH   9  10
ATOM     10  O   UNK d   1      18.638  63.343  -9.375  0.00  0.00    -0.348 OA
BRANCH  10  11
ATOM     11  C   UNK d   1      17.451  63.452  -9.897  0.00  0.00     0.070 A 
ATOM     12  C   UNK d   1      16.690  62.410 -10.360  0.00  0.00     0.060 A 
ATOM     13  C   UNK d   1      15.450  62.635 -10.895  0.00  0.00     0.036 A 
ATOM     14 Cl   UNK d   1      14.499  61.270 -11.480  0.00  0.00    -0.084 Cl
ATOM     15  C   UNK d   1      14.919  63.907 -10.989  0.00  0.00     0.024 A 
ATOM     16  C   UNK d   1      15.676  64.951 -10.525  0.00  0.00     0.004 A 
ATOM     17  C   UNK d   1      16.906  64.748  -9.992  0.00  0.00     0.037 A 
ENDBRANCH  10  11
ENDBRANCH   9  10
ENDBRANCH   1   9
BRANCH   1  18
ATOM     18  C   UNK d   1      21.935  62.691  -8.664  0.00  0.00     0.144 C 
BRANCH  18  19
ATOM     19  C   UNK d   1      23.055  63.237  -9.434  0.00  0.00     0.222 C 
ATOM     20  O   UNK d   1      24.161  63.442  -8.899  0.00  0.00    -0.273 OA
ATOM     21  N   UNK d   1      22.922  63.552 -10.817  0.00  0.00    -0.348 N 
ATOM     22  C   UNK d   1      21.664  63.346 -11.527  0.00  0.00     0.152 C 
ATOM     23  C   UNK d   1      24.025  64.093 -11.583  0.00  0.00     0.152 C 
ATOM     24  C   UNK d   1      21.996  62.632 -12.820  0.00  0.00     0.187 C 
ATOM     25  O   UNK d   1      22.905  63.409 -13.544  0.00  0.00    -0.388 OA
ATOM     26  C   UNK d   1      24.136  63.377 -12.890  0.00  0.00     0.187 C 
ENDBRANCH  18  19
ENDBRANCH   1  18
BRANCH   7  27
ATOM     27  C   UNK d   1      23.654  64.351  -5.429  0.00  0.00     0.127 A 
ATOM     28  N   UNK d   1      23.466  64.164  -4.123  0.00  0.00    -0.253 NA
ATOM     29  C   UNK d   1      24.058  63.189  -3.405  0.00  0.00     0.144 A 
ATOM     30  C   UNK d   1      24.923  62.310  -4.038  0.00  0.00     0.048 A 
ATOM     31  N   UNK d   1      25.134  62.465  -5.335  0.00  0.00    -0.262 NA
ATOM     32  C   UNK d   1      25.548  61.257  -3.199  0.00  0.00     0.072 C 
ATOM     33  C   UNK d   1      24.533  63.444  -6.030  0.00  0.00     0.153 A 
ENDBRANCH   7  27
TORSDOF 6
ENDMDL
