/Users/jonathanwahrer/Desktop/Msc/3_Semester/Drug_Design_Praktikum/waehrer_HTS_screening/HTS_experiment/out/docking_results/vina_output/3sx0/1913_docked.pdbqt
 OpenBabel03192222563D

 29 32  0  0  1  0  0  0  0  0999 V2000
   22.4050   63.9380   -8.4440 N   0  0  0  0  0  0  0  0  0  0  0  0
   23.6550   64.3760   -7.8660 C   0  0  0  0  0  2  0  0  0  0  0  0
   23.5980   64.5330   -6.3700 C   0  0  0  0  0  2  0  0  0  0  0  0
   22.3500   65.2520   -5.9930 C   0  0  2  0  0  3  0  0  0  0  0  0
   21.1620   64.4310   -6.3600 C   0  0  0  0  0  3  0  0  0  0  0  0
   21.1960   63.7820   -7.6950 C   0  0  0  0  0  3  0  0  0  0  0  0
   22.3210   66.6320   -6.4790 C   0  0  0  0  0  0  0  0  0  0  0  0
   21.3120   67.0200   -7.1170 O   0  0  0  0  0  0  0  0  0  0  0  0
   23.3720   67.5480   -6.2670 N   0  0  0  0  0  0  0  0  0  0  0  0
   24.2240   67.2210   -5.7270 H   0  0  0  0  0  0  0  0  0  0  0  0
   23.3560   68.9130   -6.7410 C   0  0  0  0  0  2  0  0  0  0  0  0
   22.8140   69.8930   -5.7410 C   0  0  0  0  0  2  0  0  0  0  0  0
   23.8130   70.8840   -5.3860 N   0  0  0  0  0  0  0  0  0  0  0  0
   24.2610   71.6490   -6.5010 C   0  0  0  0  0  2  0  0  0  0  0  0
   25.6840   71.2740   -6.8640 C   0  0  0  0  0  2  0  0  0  0  0  0
   26.4890   71.6100   -5.8040 O   0  0  0  0  0  0  0  0  0  0  0  0
   26.1330   71.0960   -4.5860 C   0  0  0  0  0  2  0  0  0  0  0  0
   24.8270   70.3800   -4.5320 C   0  0  0  0  0  2  0  0  0  0  0  0
   22.3820   63.6520   -9.8250 C   0  0  0  0  0  0  0  0  0  0  0  0
   21.2000   63.3900  -10.4640 C   0  0  0  0  0  0  0  0  0  0  0  0
   21.1770   63.1270  -11.8420 C   0  0  0  0  0  0  0  0  0  0  0  0
   19.9250   63.3080  -10.0500 N   0  0  0  0  0  0  0  0  0  0  0  0
   22.3440   63.1420  -12.4930 N   0  0  0  0  0  4  0  0  0  0  0  0
   19.9300   62.8970  -12.2320 N   0  0  0  0  0  0  0  0  0  0  0  0
   23.5020   63.3950  -11.8820 C   0  0  0  0  0  0  0  0  0  0  0  0
   24.9780   63.3990  -12.7900 Cl  0  0  0  0  0  0  0  0  0  0  0  0
   23.5270   63.6470  -10.5700 N   0  0  0  0  0  2  0  0  0  0  0  0
   19.1840   63.0140  -11.1250 C   0  0  0  0  0  3  0  0  0  0  0  0
   19.6170   63.4510   -9.0590 H   0  0  0  0  0  0  0  0  0  0  0  0
  1  2  1  0  0  0  0
  1  6  1  0  0  0  0
  2  3  1  0  0  0  0
  3  4  1  0  0  0  0
  4  7  1  6  0  0  0
  5  4  1  0  0  0  0
  6  5  2  0  0  0  0
  7  9  1  0  0  0  0
  8  7  2  0  0  0  0
  9 10  1  0  0  0  0
 11  9  1  0  0  0  0
 11 12  1  0  0  0  0
 12 13  1  0  0  0  0
 13 18  1  0  0  0  0
 14 13  1  0  0  0  0
 15 14  1  0  0  0  0
 15 16  1  0  0  0  0
 16 17  1  0  0  0  0
 17 18  1  0  0  0  0
 19  1  1  0  0  0  0
 20 22  1  0  0  0  0
 20 19  2  0  0  0  0
 21 20  1  0  0  0  0
 22 29  1  0  0  0  0
 23 25  2  0  0  0  0
 23 21  2  0  0  0  0
 24 21  1  0  0  0  0
 24 28  2  0  0  0  0
 25 27  1  0  0  0  0
 26 25  1  0  0  0  0
 27 19  1  0  0  0  0
 28 22  1  0  0  0  0
M  END
>  <Pose>
1

>  <Score>
-8.756

$$$$
