/Users/jonathanwahrer/Desktop/Msc/3_Semester/Drug_Design_Praktikum/waehrer_HTS_screening/HTS_experiment/out/docking_results/vina_output/3sx0/1928_docked.pdbqt
 OpenBabel03192222573D

 28 31  0  0  0  0  0  0  0  0999 V2000
   19.0330   62.8970  -10.0330 N   0  0  0  0  0  0  0  0  0  0  0  0
   18.7040   61.5920   -9.9360 C   0  0  0  0  0  2  0  0  0  0  0  0
   17.4170   61.1740  -10.1570 C   0  0  0  0  0  0  0  0  0  0  0  0
   16.3910   62.1640  -10.5030 C   0  0  0  0  0  0  0  0  0  0  0  0
   15.2370   61.4800  -10.6620 N   0  0  0  0  0  2  0  0  0  0  0  0
   15.4560   60.1980  -10.4510 N   0  0  0  0  0  0  0  0  0  0  0  0
   16.7390   59.9560  -10.1460 C   0  0  0  0  0  0  0  0  0  0  0  0
   17.2740   58.8500   -9.8900 O   0  0  0  0  0  0  0  0  0  0  0  0
   16.7750   63.4850  -10.5900 C   0  0  0  0  0  0  0  0  0  0  0  0
   18.0880   63.7800  -10.3470 C   0  0  0  0  0  3  0  0  0  0  0  0
   14.7230   59.4680  -10.5140 H   0  0  0  0  0  0  0  0  0  0  0  0
   20.4230   63.2870   -9.7860 C   0  0  0  0  0  2  0  0  0  0  0  0
   21.1910   63.2330  -11.0450 C   0  0  0  0  0  0  0  0  0  0  0  0
   20.6660   63.0090  -12.2250 O   0  0  0  0  0  0  0  0  0  0  0  0
   21.6110   63.0270  -13.1170 N   0  0  0  0  0  0  0  0  0  0  0  0
   22.7950   63.2650  -12.5330 C   0  0  0  0  0  0  0  0  0  0  0  0
   22.5290   63.3950  -11.2250 N   0  0  0  0  0  0  0  0  0  0  0  0
   24.0760   63.3550  -13.2200 C   0  0  0  0  0  0  0  0  0  0  0  0
   25.2660   63.3810  -12.5310 C   0  0  0  0  0  3  0  0  0  0  0  0
   26.4870   63.4660  -13.1730 C   0  0  0  0  0  3  0  0  0  0  0  0
   26.5480   63.5290  -14.5530 C   0  0  0  0  0  0  0  0  0  0  0  0
   28.0860   63.6360  -15.3920 Cl  0  0  0  0  0  0  0  0  0  0  0  0
   25.3490   63.5020  -15.2520 C   0  0  0  0  0  3  0  0  0  0  0  0
   24.1310   63.4160  -14.5970 C   0  0  0  0  0  3  0  0  0  0  0  0
   15.7800   64.5010  -10.9320 C   0  0  0  0  0  0  0  0  0  0  0  0
   15.4660   65.3800  -10.1180 O   0  0  0  0  0  0  0  0  0  0  0  0
   15.1620   64.5070  -12.1710 O   0  0  0  0  0  0  0  0  0  0  0  0
   13.7990   64.2130  -12.3660 C   0  0  0  0  0  1  0  0  0  0  0  0
  1  2  1  0  0  0  0
  1 12  1  0  0  0  0
  3  7  1  0  0  0  0
  3  2  1  0  0  0  0
  4  3  2  0  0  0  0
  5  4  1  0  0  0  0
  5  6  1  0  0  0  0
  6  7  1  0  0  0  0
  7  8  2  0  0  0  0
  9  4  1  0  0  0  0
  9 10  2  0  0  0  0
 10  1  1  0  0  0  0
 11  6  1  0  0  0  0
 13 12  1  0  0  0  0
 14 13  1  0  0  0  0
 15 16  2  0  0  0  0
 15 14  1  0  0  0  0
 16 17  1  0  0  0  0
 17 13  2  0  0  0  0
 18 16  1  0  0  0  0
 18 19  1  0  0  0  0
 20 19  2  0  0  0  0
 21 20  1  0  0  0  0
 22 21  1  0  0  0  0
 23 24  1  0  0  0  0
 23 21  2  0  0  0  0
 24 18  2  0  0  0  0
 25  9  1  0  0  0  0
 25 26  2  0  0  0  0
 27 25  1  0  0  0  0
 28 27  1  0  0  0  0
M  END
>  <Pose>
1

>  <Score>
-9.222

$$$$
