/Users/jonathanwahrer/Desktop/Msc/3_Semester/Drug_Design_Praktikum/waehrer_HTS_screening/HTS_experiment/out/docking_results/vina_output/3sx0/1930_docked.pdbqt
 OpenBabel03192222573D

 34 37  0  0  1  0  0  0  0  0999 V2000
   15.5320   62.1570  -11.0470 C   0  0  0  0  0  0  0  0  0  0  0  0
   15.5340   60.9060  -11.1730 O   0  0  0  0  0  0  0  0  0  0  0  0
   14.4140   62.8970  -11.4740 N   0  0  0  0  0  0  0  0  0  0  0  0
   13.2340   62.2660  -12.0670 C   0  0  0  0  0  2  0  0  0  0  0  0
   13.1830   62.7730  -13.4940 C   0  0  2  0  0  3  0  0  0  0  0  0
   13.1720   64.2830  -13.5310 C   0  0  2  0  0  0  0  0  0  0  0  0
   13.1210   64.8510  -12.1080 C   0  0  0  0  0  2  0  0  0  0  0  0
   14.3410   64.3430  -11.3590 C   0  0  0  0  0  2  0  0  0  0  0  0
   12.0590   64.8600  -14.3530 C   0  0  0  0  0  1  0  0  0  0  0  0
   16.7170   62.8190  -10.4500 C   0  0  0  0  0  2  0  0  0  0  0  0
   18.0150   62.3580  -11.0280 C   0  0  0  0  0  2  0  0  0  0  0  0
   19.2070   62.8210  -10.2750 C   0  0  0  0  0  0  0  0  0  0  0  0
   19.3300   63.0950   -8.9650 N   0  0  0  0  0  0  0  0  0  0  0  0
   20.5800   63.4910   -8.6700 C   0  0  0  0  0  0  0  0  0  0  0  0
   21.2510   63.8840   -7.5230 C   0  0  0  0  0  3  0  0  0  0  0  0
   21.2900   63.4690   -9.8530 C   0  0  0  0  0  0  0  0  0  0  0  0
   22.5740   64.2450   -7.5280 C   0  0  0  0  0  0  0  0  0  0  0  0
   23.4340   64.7450   -6.0790 Cl  0  0  0  0  0  0  0  0  0  0  0  0
   23.2550   64.2110   -8.7260 C   0  0  0  0  0  3  0  0  0  0  0  0
   22.6220   63.8230   -9.9020 C   0  0  0  0  0  3  0  0  0  0  0  0
   20.4410   63.0620  -10.8040 N   0  0  0  0  0  0  0  0  0  0  0  0
   20.7210   62.8780  -12.2270 C   0  0  0  0  0  1  0  0  0  0  0  0
   12.1970   62.1520  -14.3060 N   0  0  0  0  0  0  0  0  0  0  0  0
   10.9270   61.9390  -13.8520 C   0  0  0  0  0  3  0  0  0  0  0  0
    9.9680   61.3360  -14.6380 C   0  0  0  0  0  0  0  0  0  0  0  0
   10.2920   60.9350  -15.9150 C   0  0  0  0  0  0  0  0  0  0  0  0
    8.5800   61.0900  -14.1750 C   0  0  0  0  0  1  0  0  0  0  0  0
    9.4320   60.3730  -16.6750 O   0  0  0  0  0  0  0  0  0  0  0  0
   11.5440   61.1480  -16.3550 N   0  0  0  0  0  0  0  0  0  0  0  0
   12.4590   61.7490  -15.5400 C   0  0  0  0  0  0  0  0  0  0  0  0
   11.7920   60.8490  -17.3170 H   0  0  0  0  0  0  0  0  0  0  0  0
   13.6090   61.9210  -16.0040 O   0  0  0  0  0  0  0  0  0  0  0  0
   14.3710   64.8100  -14.0720 O   0  0  0  0  0  0  0  0  0  0  0  0
   14.7060   64.1240  -14.7000 H   0  0  0  0  0  0  0  0  0  0  0  0
  1 10  1  0  0  0  0
  2  1  2  0  0  0  0
  3  8  1  0  0  0  0
  3  1  1  0  0  0  0
  4  3  1  0  0  0  0
  5 23  1  1  0  0  0
  5  4  1  0  0  0  0
  6  9  1  6  0  0  0
  6  5  1  0  0  0  0
  6  7  1  0  0  0  0
  7  8  1  0  0  0  0
 11 10  1  0  0  0  0
 11 12  1  0  0  0  0
 12 13  2  0  0  0  0
 13 14  1  0  0  0  0
 14 15  1  0  0  0  0
 16 14  2  0  0  0  0
 17 15  2  0  0  0  0
 17 18  1  0  0  0  0
 19 17  1  0  0  0  0
 20 16  1  0  0  0  0
 20 19  2  0  0  0  0
 21 12  1  0  0  0  0
 21 16  1  0  0  0  0
 22 21  1  0  0  0  0
 23 24  1  0  0  0  0
 25 27  1  0  0  0  0
 25 24  2  0  0  0  0
 26 25  1  0  0  0  0
 28 26  2  0  0  0  0
 29 26  1  0  0  0  0
 29 30  1  0  0  0  0
 30 23  1  0  0  0  0
 31 29  1  0  0  0  0
 32 30  2  0  0  0  0
 33  6  1  0  0  0  0
 34 33  1  0  0  0  0
M  END
>  <Pose>
1

>  <Score>
-7.801

$$$$
