MODEL 1
REMARK VINA RESULT:    -8.827      0.000      0.000
REMARK INTER + INTRA:          -9.834
REMARK INTER:                 -10.891
REMARK INTRA:                   1.057
REMARK UNBOUND:                 1.057
REMARK  4 active torsions:
REMARK  status: ('A' for Active; 'I' for Inactive)
REMARK    1  A    between atoms: C_6  and  C_11 
REMARK    2  A    between atoms: C_11  and  N_12 
REMARK       I    between atoms: N_12  and  C_13 
REMARK    3  A    between atoms: C_13  and  C_15 
REMARK    4  A    between atoms: C_15  and  N_18 
ROOT
ATOM      1  N   UNK d   1      22.868  64.509  -8.512  0.00  0.00    -0.352 N 
ATOM      2  C   UNK d   1      23.357  63.566  -7.587  0.00  0.00     0.246 C 
ATOM      3  O   UNK d   1      23.551  62.407  -7.992  0.00  0.00    -0.271 OA
ATOM      4  H   UNK d   1      22.697  65.490  -8.192  0.00  0.00     0.162 HD
ENDROOT
BRANCH   1   5
ATOM      5  C   UNK d   1      22.585  64.176  -9.896  0.00  0.00     0.201 C 
BRANCH   5   6
ATOM      6  C   UNK d   1      21.185  63.643 -10.018  0.00  0.00     0.123 A 
ATOM      7  N   UNK d   1      20.081  64.334 -10.359  0.00  0.00    -0.232 NA
ATOM      8  C   UNK d   1      19.001  63.532 -10.367  0.00  0.00     0.087 A 
ATOM      9  C   UNK d   1      17.658  63.685 -10.632  0.00  0.00     0.057 A 
ATOM     10  C   UNK d   1      19.445  62.255 -10.010  0.00  0.00     0.062 A 
ATOM     11  C   UNK d   1      16.734  62.656 -10.564  0.00  0.00     0.036 A 
ATOM     12 Cl   UNK d   1      15.025  62.906 -10.913  0.00  0.00    -0.084 Cl
ATOM     13  C   UNK d   1      17.204  61.396 -10.206  0.00  0.00     0.026 A 
ATOM     14  C   UNK d   1      18.539  61.223  -9.939  0.00  0.00     0.034 A 
ATOM     15  N   UNK d   1      20.772  62.382  -9.813  0.00  0.00    -0.341 N 
ATOM     16  H   UNK d   1      21.405  61.598  -9.532  0.00  0.00     0.167 HD
ENDBRANCH   5   6
ENDBRANCH   1   5
BRANCH   2  17
ATOM     17  C   UNK d   1      23.644  63.899  -6.181  0.00  0.00     0.110 A 
ATOM     18  C   UNK d   1      23.535  65.327  -5.812  0.00  0.00     0.044 A 
ATOM     19  C   UNK d   1      22.416  64.461  -5.386  0.00  0.00     0.044 A 
BRANCH  17  20
ATOM     20  N   UNK d   1      24.407  62.993  -5.377  0.00  0.00    -0.392 N 
ATOM     21  C   UNK d   1      24.052  62.908  -4.016  0.00  0.00     0.144 C 
ATOM     22  C   UNK d   1      25.001  63.808  -3.233  0.00  0.00     0.187 C 
ATOM     23  O   UNK d   1      26.270  63.278  -3.244  0.00  0.00    -0.388 OA
ATOM     24  C   UNK d   1      26.587  62.553  -4.366  0.00  0.00     0.187 C 
ATOM     25  C   UNK d   1      25.797  62.985  -5.585  0.00  0.00     0.144 C 
ENDBRANCH  17  20
ENDBRANCH   2  17
TORSDOF 4
ENDMDL
