MODEL 1
REMARK VINA RESULT:    -6.634      0.000      0.000
REMARK INTER + INTRA:          -5.785
REMARK INTER:                  -8.573
REMARK INTRA:                   2.788
REMARK UNBOUND:                 2.788
REMARK  5 active torsions:
REMARK  status: ('A' for Active; 'I' for Inactive)
REMARK    1  A    between atoms: C_3  and  C_8 
REMARK    2  A    between atoms: C_8  and  N_9 
REMARK       I    between atoms: N_9  and  C_10 
REMARK    3  A    between atoms: C_10  and  C_12 
REMARK    4  A    between atoms: C_12  and  N_13 
REMARK       I    between atoms: N_16  and  C_19 
REMARK    5  A    between atoms: C_19  and  C_21 
ROOT
ATOM      1  N   UNK d   1      11.869  65.178 -14.435  0.00  0.00     0.100 N 
ATOM      2  C   UNK d   1      12.249  65.028 -15.762  0.00  0.00     0.293 C 
ATOM      3  C   UNK d   1      11.536  66.183 -16.586  0.00  0.00     0.156 C 
ATOM      4  N   UNK d   1      11.443  67.207 -15.580  0.00  0.00    -0.346 N 
ATOM      5  C   UNK d   1      10.261  66.976 -14.700  0.00  0.00     0.156 C 
ATOM      6  C   UNK d   1      10.406  65.522 -14.348  0.00  0.00     0.293 C 
ATOM      7  C   UNK d   1      12.256  68.297 -15.483  0.00  0.00     0.251 C 
ATOM      8  O   UNK d   1      12.376  68.846 -14.334  0.00  0.00    -0.270 OA
ENDROOT
BRANCH   1   9
ATOM      9  C   UNK d   1      12.107  64.173 -13.427  0.00  0.00     0.374 C 
BRANCH   9  10
ATOM     10  C   UNK d   1      13.460  64.503 -12.787  0.00  0.00     0.246 C 
ATOM     11  N   UNK d   1      13.714  63.987 -11.515  0.00  0.00    -0.355 N 
ATOM     12  H   UNK d   1      12.839  63.615 -11.000  0.00  0.00     0.162 HD
ATOM     13  O   UNK d   1      14.256  65.173 -13.392  0.00  0.00    -0.272 OA
BRANCH  11  14
ATOM     14  C   UNK d   1      14.945  63.995 -10.811  0.00  0.00     0.162 C 
BRANCH  14  15
ATOM     15  C   UNK d   1      15.601  62.662 -10.770  0.00  0.00    -0.019 A 
ATOM     16  C   UNK d   1      16.945  62.605 -10.417  0.00  0.00     0.042 A 
ATOM     17 Cl   UNK d   1      17.839  64.102 -10.314  0.00  0.00    -0.084 Cl
ATOM     18  C   UNK d   1      17.586  61.428 -10.204  0.00  0.00     0.024 A 
ATOM     19  C   UNK d   1      16.968  60.198 -10.301  0.00  0.00     0.002 A 
ATOM     20  C   UNK d   1      15.605  60.260 -10.660  0.00  0.00     0.001 A 
ATOM     21  C   UNK d   1      14.950  61.463 -10.892  0.00  0.00     0.010 A 
ENDBRANCH  14  15
ENDBRANCH  11  14
ENDBRANCH   9  10
ENDBRANCH   1   9
BRANCH   7  22
ATOM     22  C   UNK d   1      13.031  68.968 -16.573  0.00  0.00     0.245 C 
ATOM     23  O   UNK d   1      12.031  69.215 -17.616  0.00  0.00    -0.331 OA
ATOM     24  C   UNK d   1      10.777  69.549 -17.029  0.00  0.00     0.103 A 
ATOM     25  C   UNK d   1      10.800  70.272 -15.866  0.00  0.00     0.102 A 
ATOM     26  C   UNK d   1       9.567  69.171 -17.599  0.00  0.00     0.040 A 
ATOM     27  C   UNK d   1       9.627  70.639 -15.214  0.00  0.00     0.039 A 
ATOM     28  O   UNK d   1      12.033  70.650 -15.321  0.00  0.00    -0.345 OA
ATOM     29  C   UNK d   1       8.438  70.233 -15.809  0.00  0.00     0.003 A 
ATOM     30  C   UNK d   1       8.380  69.513 -16.982  0.00  0.00     0.003 A 
ATOM     31  C   UNK d   1      13.272  70.404 -16.033  0.00  0.00     0.218 C 
ENDBRANCH   7  22
TORSDOF 5
ENDMDL
