MODEL 1
REMARK VINA RESULT:    -7.606      0.000      0.000
REMARK INTER + INTRA:          -8.910
REMARK INTER:                  -9.829
REMARK INTRA:                   0.919
REMARK UNBOUND:                 0.919
REMARK  5 active torsions:
REMARK  status: ('A' for Active; 'I' for Inactive)
REMARK    1  A    between atoms: C_5  and  C_8 
REMARK    2  A    between atoms: N_9  and  C_22 
REMARK    3  A    between atoms: C_15  and  C_17 
REMARK    4  A    between atoms: C_22  and  C_23 
REMARK    5  A    between atoms: C_23  and  N_24 
ROOT
ATOM      1  C   UNK d   1      21.545  64.901  -6.443  0.00  0.00     0.161 C 
ATOM      2  N   UNK d   1      21.618  64.229  -7.747  0.00  0.00    -0.331 N 
ATOM      3  C   UNK d   1      22.986  64.262  -8.110  0.00  0.00     0.295 C 
ATOM      4  O   UNK d   1      23.451  64.276  -9.275  0.00  0.00    -0.264 OA
ATOM      5  C   UNK d   1      23.763  64.276  -6.857  0.00  0.00     0.251 C 
ATOM      6  O   UNK d   1      25.008  64.307  -6.725  0.00  0.00    -0.282 OA
ATOM      7  C   UNK d   1      22.760  64.251  -5.802  0.00  0.00     0.064 C 
ATOM      8  C   UNK d   1      22.887  63.774  -4.613  0.00  0.00     0.153 C 
ATOM      9  O   UNK d   1      21.828  63.806  -3.707  0.00  0.00    -0.188 OA
ENDROOT
BRANCH   2  10
ATOM     10  C   UNK d   1      20.499  63.666  -8.488  0.00  0.00     0.155 C 
BRANCH  10  11
ATOM     11  C   UNK d   1      20.659  63.714  -9.976  0.00  0.00     0.255 C 
BRANCH  11  12
ATOM     12  N   UNK d   1      20.188  62.582 -10.696  0.00  0.00    -0.066 N 
ATOM     13  C   UNK d   1      19.247  61.740 -10.030  0.00  0.00     0.261 C 
ATOM     14  C   UNK d   1      17.934  62.423  -9.719  0.00  0.00     0.195 C 
ATOM     15  O   UNK d   1      17.351  62.926 -10.876  0.00  0.00    -0.388 OA
ATOM     16  C   UNK d   1      18.236  63.705 -11.614  0.00  0.00     0.195 C 
ATOM     17  C   UNK d   1      19.519  62.990 -11.949  0.00  0.00     0.261 C 
ATOM     18  H   UNK d   1      21.010  61.994 -10.956  0.00  0.00     0.280 HD
ENDBRANCH  11  12
ENDBRANCH  10  11
ENDBRANCH   2  10
BRANCH   1  19
ATOM     19  C   UNK d   1      21.900  66.336  -6.576  0.00  0.00    -0.030 A 
ATOM     20  C   UNK d   1      21.085  67.237  -7.213  0.00  0.00     0.011 A 
ATOM     21  C   UNK d   1      21.402  68.577  -7.333  0.00  0.00     0.024 A 
ATOM     22  C   UNK d   1      22.581  69.045  -6.795  0.00  0.00     0.034 A 
ATOM     23 Cl   UNK d   1      23.058  70.721  -6.897  0.00  0.00    -0.084 Cl
ATOM     24  C   UNK d   1      23.411  68.162  -6.153  0.00  0.00     0.024 A 
ATOM     25  C   UNK d   1      23.089  66.827  -6.038  0.00  0.00     0.011 A 
ENDBRANCH   1  19
BRANCH   8  26
ATOM     26  C   UNK d   1      24.149  63.186  -4.176  0.00  0.00     0.112 A 
ATOM     27  O   UNK d   1      24.795  62.144  -4.564  0.00  0.00    -0.320 OA
ATOM     28  C   UNK d   1      25.894  61.995  -3.883  0.00  0.00     0.142 A 
ATOM     29  C   UNK d   1      26.000  63.009  -2.966  0.00  0.00     0.027 A 
ATOM     30  C   UNK d   1      24.885  63.781  -3.143  0.00  0.00     0.042 A 
ENDBRANCH   8  26
TORSDOF 5
ENDMDL
