MODEL 1
REMARK VINA RESULT:    -8.142      0.000      0.000
REMARK INTER + INTRA:          -8.764
REMARK INTER:                  -8.618
REMARK INTRA:                  -0.146
REMARK UNBOUND:                -0.146
REMARK  1 active torsions:
REMARK  status: ('A' for Active; 'I' for Inactive)
REMARK    1  A    between atoms: C_5  and  N_8 
ROOT
ATOM      1  N   UNK d   1      21.294  63.241 -11.760  0.00  0.00    -0.252 N 
ATOM      2  C   UNK d   1      20.757  63.881 -10.593  0.00  0.00     0.237 C 
ATOM      3  O   UNK d   1      21.492  64.185  -9.592  0.00  0.00    -0.272 OA
ATOM      4  C   UNK d   1      19.312  64.096 -10.774  0.00  0.00     0.104 C 
ATOM      5  C   UNK d   1      18.956  63.111 -11.861  0.00  0.00     0.104 C 
ATOM      6  C   UNK d   1      17.992  62.088 -11.302  0.00  0.00     0.076 C 
ATOM      7  C   UNK d   1      16.697  62.862 -11.017  0.00  0.00     0.091 C 
ATOM      8  C   UNK d   1      17.053  63.848  -9.942  0.00  0.00     0.133 C 
ATOM      9  O   UNK d   1      16.209  64.546  -9.450  0.00  0.00    -0.298 OA
ATOM     10  C   UNK d   1      18.502  63.897  -9.539  0.00  0.00     0.076 C 
ATOM     11  C   UNK d   1      18.800  62.527  -8.918  0.00  0.00     0.091 C 
ATOM     12  C   UNK d   1      18.467  61.526  -9.990  0.00  0.00     0.133 C 
ATOM     13  O   UNK d   1      18.586  60.351  -9.772  0.00  0.00    -0.298 OA
ATOM     14  C   UNK d   1      20.209  62.548 -12.361  0.00  0.00     0.237 C 
ATOM     15  O   UNK d   1      20.309  61.610 -13.184  0.00  0.00    -0.272 OA
ENDROOT
BRANCH   1  16
ATOM     16  C   UNK d   1      22.634  63.279 -12.238  0.00  0.00     0.045 A 
ATOM     17  C   UNK d   1      22.889  63.585 -13.562  0.00  0.00     0.032 A 
ATOM     18  C   UNK d   1      24.166  63.637 -14.070  0.00  0.00     0.026 A 
ATOM     19  C   UNK d   1      25.256  63.383 -13.274  0.00  0.00     0.034 A 
ATOM     20 Cl   UNK d   1      26.893  63.446 -13.914  0.00  0.00    -0.084 Cl
ATOM     21  C   UNK d   1      25.024  63.074 -11.944  0.00  0.00     0.026 A 
ATOM     22  C   UNK d   1      23.739  63.027 -11.455  0.00  0.00     0.032 A 
ENDBRANCH   1  16
TORSDOF 1
ENDMDL
