MODEL 1
REMARK VINA RESULT:    -7.544      0.000      0.000
REMARK INTER + INTRA:          -8.971
REMARK INTER:                  -8.868
REMARK INTRA:                  -0.104
REMARK UNBOUND:                -0.104
REMARK  3 active torsions:
REMARK  status: ('A' for Active; 'I' for Inactive)
REMARK    1  A    between atoms: C_5  and  N_8 
REMARK    2  A    between atoms: C_14  and  C_18 
REMARK    3  A    between atoms: C_18  and  C_19 
REMARK       I    between atoms: C_19  and  N_21 
ROOT
ATOM      1  N   UNK d   1      22.760  63.647  -6.188  0.00  0.00    -0.252 N 
ATOM      2  C   UNK d   1      22.684  63.264  -7.579  0.00  0.00     0.239 C 
ATOM      3  O   UNK d   1      23.583  62.728  -8.233  0.00  0.00    -0.272 OA
ATOM      4  C   UNK d   1      21.360  63.609  -8.112  0.00  0.00     0.147 C 
ATOM      5  C   UNK d   1      21.355  64.321  -9.443  0.00  0.00     0.279 C 
ATOM      6  N   UNK d   1      21.355  65.740  -9.184  0.00  0.00     0.114 N 
ATOM      7  C   UNK d   1      21.681  65.897  -7.781  0.00  0.00     0.245 C 
ATOM      8  C   UNK d   1      20.941  64.720  -7.177  0.00  0.00     0.129 C 
ATOM      9  C   UNK d   1      21.499  64.268  -5.889  0.00  0.00     0.238 C 
ATOM     10  O   UNK d   1      20.936  64.424  -4.802  0.00  0.00    -0.272 OA
ATOM     11  C   UNK d   1      20.081  63.881 -10.111  0.00  0.00     0.017 A 
ATOM     12  C   UNK d   1      20.422  63.076 -11.161  0.00  0.00     0.044 A 
ATOM     13  C   UNK d   1      19.451  62.449 -11.957  0.00  0.00     0.030 A 
ATOM     14  C   UNK d   1      18.111  62.639 -11.692  0.00  0.00     0.002 A 
ATOM     15  C   UNK d   1      17.768  63.447 -10.641  0.00  0.00     0.001 A 
ATOM     16  C   UNK d   1      18.734  64.055  -9.868  0.00  0.00     0.012 A 
ATOM     17  N   UNK d   1      21.828  63.054 -11.350  0.00  0.00    -0.324 N 
ATOM     18  C   UNK d   1      22.394  63.901 -10.362  0.00  0.00     0.267 C 
ATOM     19  O   UNK d   1      23.605  64.208 -10.334  0.00  0.00    -0.270 OA
ATOM     20  H   UNK d   1      22.083  66.176  -9.799  0.00  0.00     0.318 HD
ATOM     21  H   UNK d   1      22.359  62.506 -12.094  0.00  0.00     0.169 HD
ENDROOT
BRANCH   7  22
ATOM     22  C   UNK d   1      21.180  67.202  -7.220  0.00  0.00     0.139 C 
BRANCH  22  23
ATOM     23  C   UNK d   1      22.149  67.909  -6.388  0.00  0.00     0.217 C 
ATOM     24  O   UNK d   1      23.325  67.506  -6.303  0.00  0.00    -0.274 OA
ATOM     25  N   UNK d   1      21.756  69.061  -5.668  0.00  0.00    -0.370 N 
ATOM     26  H   UNK d   1      20.777  69.434  -5.636  0.00  0.00     0.159 HD
ATOM     27  H   UNK d   1      22.437  69.642  -5.097  0.00  0.00     0.159 HD
ENDBRANCH  22  23
ENDBRANCH   7  22
BRANCH   1  28
ATOM     28  C   UNK d   1      23.808  63.465  -5.280  0.00  0.00     0.045 A 
ATOM     29  C   UNK d   1      25.035  62.974  -5.635  0.00  0.00     0.032 A 
ATOM     30  C   UNK d   1      26.077  62.798  -4.732  0.00  0.00     0.026 A 
ATOM     31  C   UNK d   1      25.886  63.128  -3.413  0.00  0.00     0.034 A 
ATOM     32 Cl   UNK d   1      27.195  62.920  -2.263  0.00  0.00    -0.084 Cl
ATOM     33  C   UNK d   1      24.677  63.618  -3.024  0.00  0.00     0.026 A 
ATOM     34  C   UNK d   1      23.647  63.785  -3.954  0.00  0.00     0.032 A 
ENDBRANCH   1  28
TORSDOF 3
ENDMDL
