/Users/jonathanwahrer/Desktop/Msc/3_Semester/Drug_Design_Praktikum/waehrer_HTS_screening/HTS_experiment/out/docking_results/vina_output/3sx0/1943_docked.pdbqt
 OpenBabel03192222593D

 34 38  0  0  1  0  0  0  0  0999 V2000
   22.7600   63.6470   -6.1880 N   0  0  0  0  0  0  0  0  0  0  0  0
   22.6840   63.2640   -7.5790 C   0  0  0  0  0  0  0  0  0  0  0  0
   23.5830   62.7280   -8.2330 O   0  0  0  0  0  0  0  0  0  0  0  0
   21.3600   63.6090   -8.1120 C   0  0  2  0  0  3  0  0  0  0  0  0
   21.3550   64.3210   -9.4430 C   0  0  2  0  0  0  0  0  0  0  0  0
   21.3550   65.7400   -9.1840 N   0  0  0  0  0  0  0  0  0  0  0  0
   21.6810   65.8970   -7.7810 C   0  0  2  0  0  3  0  0  0  0  0  0
   20.9410   64.7200   -7.1770 C   0  0  2  0  0  3  0  0  0  0  0  0
   21.4990   64.2680   -5.8890 C   0  0  0  0  0  0  0  0  0  0  0  0
   20.9360   64.4240   -4.8020 O   0  0  0  0  0  0  0  0  0  0  0  0
   20.0810   63.8810  -10.1110 C   0  0  0  0  0  0  0  0  0  0  0  0
   20.4220   63.0760  -11.1610 C   0  0  0  0  0  0  0  0  0  0  0  0
   19.4510   62.4490  -11.9570 C   0  0  0  0  0  3  0  0  0  0  0  0
   18.1110   62.6390  -11.6920 C   0  0  0  0  0  3  0  0  0  0  0  0
   17.7680   63.4470  -10.6410 C   0  0  0  0  0  3  0  0  0  0  0  0
   18.7340   64.0550   -9.8680 C   0  0  0  0  0  3  0  0  0  0  0  0
   21.8280   63.0540  -11.3500 N   0  0  0  0  0  0  0  0  0  0  0  0
   22.3940   63.9010  -10.3620 C   0  0  0  0  0  0  0  0  0  0  0  0
   23.6050   64.2080  -10.3340 O   0  0  0  0  0  0  0  0  0  0  0  0
   22.0830   66.1760   -9.7990 H   0  0  0  0  0  0  0  0  0  0  0  0
   22.3590   62.5060  -12.0940 H   0  0  0  0  0  0  0  0  0  0  0  0
   21.1800   67.2020   -7.2200 C   0  0  0  0  0  2  0  0  0  0  0  0
   22.1490   67.9090   -6.3880 C   0  0  0  0  0  0  0  0  0  0  0  0
   23.3250   67.5060   -6.3030 O   0  0  0  0  0  0  0  0  0  0  0  0
   21.7560   69.0610   -5.6680 N   0  0  0  0  0  0  0  0  0  0  0  0
   20.7770   69.4340   -5.6360 H   0  0  0  0  0  0  0  0  0  0  0  0
   22.4370   69.6420   -5.0970 H   0  0  0  0  0  0  0  0  0  0  0  0
   23.8080   63.4650   -5.2800 C   0  0  0  0  0  0  0  0  0  0  0  0
   25.0350   62.9740   -5.6350 C   0  0  0  0  0  3  0  0  0  0  0  0
   26.0770   62.7980   -4.7320 C   0  0  0  0  0  3  0  0  0  0  0  0
   25.8860   63.1280   -3.4130 C   0  0  0  0  0  0  0  0  0  0  0  0
   27.1950   62.9200   -2.2630 Cl  0  0  0  0  0  0  0  0  0  0  0  0
   24.6770   63.6180   -3.0240 C   0  0  0  0  0  3  0  0  0  0  0  0
   23.6470   63.7850   -3.9540 C   0  0  0  0  0  3  0  0  0  0  0  0
  1  9  1  0  0  0  0
  1 28  1  0  0  0  0
  2  1  1  0  0  0  0
  3  2  2  0  0  0  0
  4  2  1  1  0  0  0
  4  8  1  0  0  0  0
  5 18  1  6  0  0  0
  5  6  1  0  0  0  0
  5  4  1  0  0  0  0
  6  7  1  0  0  0  0
  7 22  1  1  0  0  0
  7  8  1  0  0  0  0
  8  9  1  1  0  0  0
  9 10  2  0  0  0  0
 11 16  1  0  0  0  0
 11  5  1  0  0  0  0
 12 11  2  0  0  0  0
 13 14  2  0  0  0  0
 13 12  1  0  0  0  0
 14 15  1  0  0  0  0
 15 16  2  0  0  0  0
 17 12  1  0  0  0  0
 17 18  1  0  0  0  0
 18 19  2  0  0  0  0
 20  6  1  0  0  0  0
 21 17  1  0  0  0  0
 22 23  1  0  0  0  0
 23 24  2  0  0  0  0
 23 25  1  0  0  0  0
 25 26  1  0  0  0  0
 25 27  1  0  0  0  0
 28 34  1  0  0  0  0
 29 28  2  0  0  0  0
 29 30  1  0  0  0  0
 30 31  2  0  0  0  0
 31 33  1  0  0  0  0
 31 32  1  0  0  0  0
 34 33  2  0  0  0  0
M  END
>  <Pose>
1

>  <Score>
-7.544

$$$$
