MODEL 1
REMARK VINA RESULT:    -8.156      0.000      0.000
REMARK INTER + INTRA:         -10.309
REMARK INTER:                 -10.063
REMARK INTRA:                  -0.246
REMARK UNBOUND:                -0.246
REMARK  4 active torsions:
REMARK  status: ('A' for Active; 'I' for Inactive)
REMARK    1  A    between atoms: N_15  and  C_16 
REMARK    2  A    between atoms: C_16  and  C_17 
REMARK       I    between atoms: C_17  and  N_19 
REMARK    3  A    between atoms: N_19  and  C_20 
REMARK    4  A    between atoms: C_20  and  C_21 
ROOT
ATOM      1 Cl   UNK d   1      25.610  63.746 -12.758  0.00  0.00    -0.084 Cl
ATOM      2  C   UNK d   1      24.017  63.533 -12.060  0.00  0.00     0.036 A 
ATOM      3  C   UNK d   1      23.751  63.849 -10.747  0.00  0.00     0.054 A 
ATOM      4  C   UNK d   1      22.476  63.673 -10.203  0.00  0.00     0.055 A 
ATOM      5  C   UNK d   1      21.476  63.170 -11.023  0.00  0.00     0.037 A 
ATOM      6  C   UNK d   1      21.726  62.851 -12.336  0.00  0.00     0.019 A 
ATOM      7  C   UNK d   1      22.982  63.026 -12.858  0.00  0.00     0.025 A 
ATOM      8  C   UNK d   1      20.116  62.969 -10.493  0.00  0.00     0.141 A 
ATOM      9  N   UNK d   1      19.027  62.528 -11.025  0.00  0.00    -0.270 NA
ATOM     10  C   UNK d   1      17.929  62.513 -10.098  0.00  0.00     0.171 A 
ATOM     11  C   UNK d   1      18.514  63.041  -8.825  0.00  0.00     0.157 A 
ATOM     12  N   UNK d   1      19.892  63.309  -9.139  0.00  0.00    -0.281 N 
ATOM     13  C   UNK d   1      20.937  63.823  -8.324  0.00  0.00     0.331 A 
ATOM     14  O   UNK d   1      20.757  64.134  -7.112  0.00  0.00    -0.246 OA
ATOM     15  N   UNK d   1      22.267  64.020  -8.839  0.00  0.00    -0.290 N 
ENDROOT
BRANCH  15  16
ATOM     16  C   UNK d   1      23.322  64.548  -7.986  0.00  0.00     0.236 C 
BRANCH  16  17
ATOM     17  C   UNK d   1      23.951  63.472  -7.186  0.00  0.00     0.236 C 
ATOM     18  O   UNK d   1      23.774  62.284  -7.549  0.00  0.00    -0.272 OA
ATOM     19  N   UNK d   1      24.741  63.722  -6.038  0.00  0.00    -0.359 N 
ATOM     20  H   UNK d   1      24.880  64.712  -5.752  0.00  0.00     0.162 HD
BRANCH  19  21
ATOM     21  C   UNK d   1      25.344  62.654  -5.277  0.00  0.00     0.127 C 
BRANCH  21  22
ATOM     22  C   UNK d   1      24.531  62.380  -4.040  0.00  0.00     0.003 A 
ATOM     23  C   UNK d   1      24.108  63.514  -3.175  0.00  0.00     0.007 A 
ATOM     24  C   UNK d   1      25.198  62.621  -2.719  0.00  0.00     0.007 A 
ENDBRANCH  21  22
ENDBRANCH  19  21
ENDBRANCH  16  17
ENDBRANCH  15  16
TORSDOF 4
ENDMDL
