/Users/jonathanwahrer/Desktop/Msc/3_Semester/Drug_Design_Praktikum/waehrer_HTS_screening/HTS_experiment/out/docking_results/vina_output/3sx0/1956_docked.pdbqt
 OpenBabel03192222593D

 35 38  0  0  1  0  0  0  0  0999 V2000
   23.5560   63.0200  -10.7550 C   0  0  0  0  0  0  0  0  0  0  0  0
   22.2370   63.0320  -10.8510 C   0  0  0  0  0  0  0  0  0  0  0  0
   21.2760   62.8700   -9.7000 C   0  0  2  0  0  3  0  0  0  0  0  0
   19.9960   62.6270  -10.2990 N   0  0  0  0  0  0  0  0  0  0  0  0
   20.0360   62.8930  -11.6940 C   0  0  0  0  0  0  0  0  0  0  0  0
   19.0770   62.9120  -12.4780 O   0  0  0  0  0  0  0  0  0  0  0  0
   21.4540   63.1470  -12.0400 C   0  0  0  0  0  0  0  0  0  0  0  0
   21.8620   63.4120  -13.1960 O   0  0  0  0  0  0  0  0  0  0  0  0
   24.0810   62.8330   -9.4550 O   0  0  0  0  0  1  0  0  0  0  0  0
   21.3410   64.1330   -8.9160 C   0  0  0  0  0  0  0  0  0  0  0  0
   20.9110   65.3040   -9.4720 C   0  0  0  0  0  3  0  0  0  0  0  0
   20.9620   66.4570   -8.7410 C   0  0  0  0  0  3  0  0  0  0  0  0
   21.4380   66.4770   -7.4480 C   0  0  0  0  0  0  0  0  0  0  0  0
   21.8730   65.2920   -6.8840 C   0  0  0  0  0  3  0  0  0  0  0  0
   21.8190   64.1240   -7.6300 C   0  0  0  0  0  3  0  0  0  0  0  0
   21.4860   67.6550   -6.7100 O   0  0  0  0  0  0  0  0  0  0  0  0
   22.7750   68.1850   -6.3670 C   0  0  0  0  0  2  0  0  0  0  0  0
   22.6070   69.6390   -5.9340 C   0  0  0  0  0  2  0  0  0  0  0  0
   23.9530   70.0980   -5.3910 C   0  0  0  0  0  1  0  0  0  0  0  0
   18.8110   62.1560   -9.5900 C   0  0  0  0  0  2  0  0  0  0  0  0
   17.8280   63.2680   -9.4580 C   0  0  0  0  0  2  0  0  0  0  0  0
   16.8280   63.2350  -10.5380 N   0  0  0  0  0  4  0  0  0  0  0  0
   15.9170   64.3170  -10.3280 C   0  0  0  0  0  2  0  0  0  0  0  0
   14.6340   64.1470  -11.1400 C   0  0  0  0  0  2  0  0  0  0  0  0
   14.0840   62.9140  -10.7450 O   0  0  0  0  0  0  0  0  0  0  0  0
   14.9010   61.9230  -11.2460 C   0  0  0  0  0  2  0  0  0  0  0  0
   16.2090   61.9290  -10.4790 C   0  0  0  0  0  2  0  0  0  0  0  0
   17.2960   63.3520  -11.4740 H   0  0  0  0  0  0  0  0  0  0  0  0
   24.4300   63.1880  -11.8940 C   0  0  0  0  0  0  0  0  0  0  0  0
   25.8020   62.9380  -11.7560 C   0  0  0  0  0  3  0  0  0  0  0  0
   26.6980   63.1180  -12.7890 C   0  0  0  0  0  3  0  0  0  0  0  0
   26.2700   63.5580  -14.0190 C   0  0  0  0  0  0  0  0  0  0  0  0
   27.3520   63.8060  -15.3700 Cl  0  0  0  0  0  0  0  0  0  0  0  0
   24.9380   63.8120  -14.1870 C   0  0  0  0  0  3  0  0  0  0  0  0
   24.0310   63.6290  -13.1340 C   0  0  0  0  0  3  0  0  0  0  0  0
  1  9  1  0  0  0  0
  2  1  2  0  0  0  0
  2  3  1  0  0  0  0
  3 10  1  6  0  0  0
  4  3  1  0  0  0  0
  4 20  1  0  0  0  0
  5  4  1  0  0  0  0
  6  5  2  0  0  0  0
  7  5  1  0  0  0  0
  7  2  1  0  0  0  0
  8  7  2  0  0  0  0
 10 15  1  0  0  0  0
 11 10  2  0  0  0  0
 11 12  1  0  0  0  0
 12 13  2  0  0  0  0
 13 14  1  0  0  0  0
 13 16  1  0  0  0  0
 15 14  2  0  0  0  0
 16 17  1  0  0  0  0
 17 18  1  0  0  0  0
 18 19  1  0  0  0  0
 20 21  1  0  0  0  0
 22 27  1  0  0  0  0
 22 23  1  0  0  0  0
 22 21  1  0  0  0  0
 24 25  1  0  0  0  0
 24 23  1  0  0  0  0
 26 25  1  0  0  0  0
 26 27  1  0  0  0  0
 28 22  1  0  0  0  0
 29 30  1  0  0  0  0
 29  1  1  0  0  0  0
 31 30  2  0  0  0  0
 32 31  1  0  0  0  0
 33 32  1  0  0  0  0
 34 32  2  0  0  0  0
 34 35  1  0  0  0  0
 35 29  2  0  0  0  0
M  END
>  <Pose>
1

>  <Score>
-7.494

$$$$
