/Users/jonathanwahrer/Desktop/Msc/3_Semester/Drug_Design_Praktikum/waehrer_HTS_screening/HTS_experiment/out/docking_results/vina_output/3sx0/1958_docked.pdbqt
 OpenBabel03192223003D

 28 31  0  0  1  0  0  0  0  0999 V2000
   18.6200   62.8490   -9.3190 C   0  0  0  0  0  0  0  0  0  0  0  0
   18.1280   63.0770   -8.1600 O   0  0  0  0  0  0  0  0  0  0  0  0
   19.7490   63.5330   -9.7910 N   0  0  0  0  0  0  0  0  0  0  0  0
   20.3030   63.2840  -11.0840 C   0  0  0  0  0  2  0  0  0  0  0  0
   21.7730   63.5800  -11.1970 C   0  0  0  0  0  2  0  0  0  0  0  0
   22.4150   63.4940   -9.8630 C   0  0  2  0  0  3  0  0  0  0  0  0
   21.7630   63.9520   -8.7330 C   0  0  0  0  0  0  0  0  0  0  0  0
   22.3360   63.8840   -7.5260 N   0  0  0  0  0  0  0  0  0  0  0  0
   23.5690   63.3710   -7.3320 C   0  0  2  0  0  3  0  0  0  0  0  0
   24.2120   62.9200   -8.4360 N   0  0  0  0  0  0  0  0  0  0  0  0
   23.6780   62.9670   -9.6680 C   0  0  0  0  0  0  0  0  0  0  0  0
   20.3800   64.5180   -8.9580 C   0  0  0  0  0  2  0  0  0  0  0  0
   17.9270   61.8110  -10.1470 C   0  0  0  0  0  2  0  0  0  0  0  0
   16.6610   62.3240  -10.6950 C   0  0  0  0  0  0  0  0  0  0  0  0
   15.5250   61.5550  -10.8370 C   0  0  0  0  0  3  0  0  0  0  0  0
   14.3540   62.0640  -11.3550 C   0  0  0  0  0  3  0  0  0  0  0  0
   14.2890   63.3940  -11.7580 C   0  0  0  0  0  0  0  0  0  0  0  0
   12.8090   64.0550  -12.4180 Cl  0  0  0  0  0  0  0  0  0  0  0  0
   15.4350   64.1520  -11.6100 C   0  0  0  0  0  3  0  0  0  0  0  0
   16.6040   63.6420  -11.0910 C   0  0  0  0  0  3  0  0  0  0  0  0
   24.3640   62.4970  -10.7790 O   0  0  0  0  0  0  0  0  0  0  0  0
   23.9150   61.9120  -11.4880 H   0  0  0  0  0  0  0  0  0  0  0  0
   24.1260   63.3210   -6.0420 N   0  0  0  0  0  0  0  0  0  0  0  0
   23.5780   64.1090   -4.9780 C   0  0  0  0  0  2  0  0  0  0  0  0
   23.9930   63.4150   -3.6730 C   0  0  0  0  0  2  0  0  0  0  0  0
   25.3580   63.3960   -3.5330 O   0  0  0  0  0  0  0  0  0  0  0  0
   26.0720   62.9930   -4.6280 C   0  0  0  0  0  2  0  0  0  0  0  0
   25.2530   62.4760   -5.7780 C   0  0  0  0  0  2  0  0  0  0  0  0
  1  2  2  0  0  0  0
  3  1  1  0  0  0  0
  3 12  1  0  0  0  0
  4  3  1  0  0  0  0
  5  4  1  0  0  0  0
  6  5  1  6  0  0  0
  6 11  1  0  0  0  0
  6  7  1  0  0  0  0
  7  8  2  0  0  0  0
  8  9  1  0  0  0  0
  9 23  1  1  0  0  0
 10  9  1  0  0  0  0
 11 10  2  0  0  0  0
 12  7  1  0  0  0  0
 13  1  1  0  0  0  0
 14 13  1  0  0  0  0
 15 14  1  0  0  0  0
 16 15  2  0  0  0  0
 17 19  2  0  0  0  0
 17 16  1  0  0  0  0
 18 17  1  0  0  0  0
 19 20  1  0  0  0  0
 20 14  2  0  0  0  0
 21 11  1  0  0  0  0
 22 21  1  0  0  0  0
 23 28  1  0  0  0  0
 23 24  1  0  0  0  0
 24 25  1  0  0  0  0
 25 26  1  0  0  0  0
 27 26  1  0  0  0  0
 28 27  1  0  0  0  0
M  END
>  <Pose>
1

>  <Score>
-8.719

$$$$
