MODEL 1
REMARK VINA RESULT:    -6.702      0.000      0.000
REMARK INTER + INTRA:          -8.803
REMARK INTER:                  -8.269
REMARK INTRA:                  -0.533
REMARK UNBOUND:                -0.533
REMARK  4 active torsions:
REMARK  status: ('A' for Active; 'I' for Inactive)
REMARK    1  A    between atoms: C_5  and  C_8 
REMARK    2  A    between atoms: C_8  and  C_9 
REMARK       I    between atoms: C_9  and  N_11 
REMARK    3  A    between atoms: N_14  and  C_17 
REMARK    4  A    between atoms: C_21  and  N_23 
ROOT
ATOM      1  C   UNK d   1      13.656  63.273 -12.898  0.00  0.00     0.224 C 
ATOM      2  O   UNK d   1      13.571  62.039 -13.134  0.00  0.00    -0.273 OA
ATOM      3  N   UNK d   1      13.593  64.170 -13.976  0.00  0.00    -0.349 N 
ATOM      4  C   UNK d   1      13.432  63.687 -15.359  0.00  0.00     0.145 C 
ATOM      5  C   UNK d   1      12.515  64.652 -16.093  0.00  0.00     0.143 C 
ATOM      6  N   UNK d   1      11.658  65.254 -15.091  0.00  0.00    -0.376 N 
ATOM      7  C   UNK d   1      12.304  66.221 -14.220  0.00  0.00     0.143 C 
ATOM      8  C   UNK d   1      13.671  65.619 -13.853  0.00  0.00     0.145 C 
ENDROOT
BRANCH   6   9
ATOM      9  C   UNK d   1      10.288  64.908 -14.966  0.00  0.00     0.053 A 
ATOM     10  C   UNK d   1       9.339  65.894 -14.770  0.00  0.00     0.170 A 
ATOM     11  N   UNK d   1       8.029  65.533 -14.639  0.00  0.00    -0.158 NA
ATOM     12  N   UNK d   1       7.622  64.279 -14.690  0.00  0.00    -0.132 NA
ATOM     13  C   UNK d   1       8.507  63.253 -14.882  0.00  0.00     0.150 A 
ATOM     14  C   UNK d   1       9.813  63.618 -15.012  0.00  0.00     0.083 A 
BRANCH  13  15
ATOM     15  N   UNK d   1       8.003  61.934 -14.923  0.00  0.00    -0.360 N 
ATOM     16  C   UNK d   1       7.783  61.180 -13.703  0.00  0.00     0.151 C 
ATOM     17  C   UNK d   1       8.309  59.752 -13.853  0.00  0.00     0.187 C 
ATOM     18  O   UNK d   1       7.900  59.181 -15.042  0.00  0.00    -0.388 OA
ATOM     19  C   UNK d   1       8.444  59.919 -16.082  0.00  0.00     0.187 C 
ATOM     20  C   UNK d   1       7.687  61.258 -16.155  0.00  0.00     0.151 C 
ENDBRANCH  13  15
ENDBRANCH   6   9
BRANCH   1  21
ATOM     21  C   UNK d   1      13.816  63.688 -11.491  0.00  0.00     0.141 C 
BRANCH  21  22
ATOM     22  C   UNK d   1      15.182  63.385 -10.986  0.00  0.00    -0.049 A 
ATOM     23  C   UNK d   1      15.606  62.060 -10.922  0.00  0.00     0.009 A 
ATOM     24  C   UNK d   1      16.868  61.738 -10.460  0.00  0.00     0.024 A 
ATOM     25  C   UNK d   1      17.748  62.740 -10.047  0.00  0.00     0.034 A 
ATOM     26 Cl   UNK d   1      19.336  62.345  -9.465  0.00  0.00    -0.084 Cl
ATOM     27  C   UNK d   1      17.314  64.043 -10.116  0.00  0.00     0.024 A 
ATOM     28  C   UNK d   1      16.041  64.370 -10.583  0.00  0.00     0.009 A 
ENDBRANCH  21  22
ENDBRANCH   1  21
TORSDOF 4
ENDMDL
