/Users/jonathanwahrer/Desktop/Msc/3_Semester/Drug_Design_Praktikum/waehrer_HTS_screening/HTS_experiment/out/docking_results/vina_output/3sx0/1960_docked.pdbqt
 OpenBabel03192223003D

 28 31  0  0  0  0  0  0  0  0999 V2000
   13.6560   63.2730  -12.8980 C   0  0  0  0  0  0  0  0  0  0  0  0
   13.5710   62.0390  -13.1340 O   0  0  0  0  0  0  0  0  0  0  0  0
   13.5930   64.1700  -13.9760 N   0  0  0  0  0  0  0  0  0  0  0  0
   13.4320   63.6870  -15.3590 C   0  0  0  0  0  2  0  0  0  0  0  0
   12.5150   64.6520  -16.0930 C   0  0  0  0  0  2  0  0  0  0  0  0
   11.6580   65.2540  -15.0910 N   0  0  0  0  0  0  0  0  0  0  0  0
   12.3040   66.2210  -14.2200 C   0  0  0  0  0  2  0  0  0  0  0  0
   13.6710   65.6190  -13.8530 C   0  0  0  0  0  2  0  0  0  0  0  0
   10.2880   64.9080  -14.9660 C   0  0  0  0  0  0  0  0  0  0  0  0
    9.3390   65.8940  -14.7700 C   0  0  0  0  0  3  0  0  0  0  0  0
    8.0290   65.5330  -14.6390 N   0  0  0  0  0  0  0  0  0  0  0  0
    7.6220   64.2790  -14.6900 N   0  0  0  0  0  0  0  0  0  0  0  0
    8.5070   63.2530  -14.8820 C   0  0  0  0  0  0  0  0  0  0  0  0
    9.8130   63.6180  -15.0120 C   0  0  0  0  0  3  0  0  0  0  0  0
    8.0030   61.9340  -14.9230 N   0  0  0  0  0  0  0  0  0  0  0  0
    7.7830   61.1800  -13.7030 C   0  0  0  0  0  2  0  0  0  0  0  0
    8.3090   59.7520  -13.8530 C   0  0  0  0  0  2  0  0  0  0  0  0
    7.9000   59.1810  -15.0420 O   0  0  0  0  0  0  0  0  0  0  0  0
    8.4440   59.9190  -16.0820 C   0  0  0  0  0  2  0  0  0  0  0  0
    7.6870   61.2580  -16.1550 C   0  0  0  0  0  2  0  0  0  0  0  0
   13.8160   63.6880  -11.4910 C   0  0  0  0  0  2  0  0  0  0  0  0
   15.1820   63.3850  -10.9860 C   0  0  0  0  0  0  0  0  0  0  0  0
   15.6060   62.0600  -10.9220 C   0  0  0  0  0  3  0  0  0  0  0  0
   16.8680   61.7380  -10.4600 C   0  0  0  0  0  3  0  0  0  0  0  0
   17.7480   62.7400  -10.0470 C   0  0  0  0  0  0  0  0  0  0  0  0
   19.3360   62.3450   -9.4650 Cl  0  0  0  0  0  0  0  0  0  0  0  0
   17.3140   64.0430  -10.1160 C   0  0  0  0  0  3  0  0  0  0  0  0
   16.0410   64.3700  -10.5830 C   0  0  0  0  0  3  0  0  0  0  0  0
  1 21  1  0  0  0  0
  2  1  2  0  0  0  0
  3  8  1  0  0  0  0
  3  1  1  0  0  0  0
  4  3  1  0  0  0  0
  5  4  1  0  0  0  0
  5  6  1  0  0  0  0
  6  9  1  0  0  0  0
  6  7  1  0  0  0  0
  7  8  1  0  0  0  0
  9 10  1  0  0  0  0
 10 11  2  0  0  0  0
 12 11  1  0  0  0  0
 13 12  2  0  0  0  0
 14  9  2  0  0  0  0
 14 13  1  0  0  0  0
 15 13  1  0  0  0  0
 15 16  1  0  0  0  0
 17 16  1  0  0  0  0
 18 17  1  0  0  0  0
 19 18  1  0  0  0  0
 20 19  1  0  0  0  0
 20 15  1  0  0  0  0
 21 22  1  0  0  0  0
 22 23  2  0  0  0  0
 22 28  1  0  0  0  0
 23 24  1  0  0  0  0
 24 25  2  0  0  0  0
 25 26  1  0  0  0  0
 27 25  1  0  0  0  0
 28 27  2  0  0  0  0
M  END
>  <Pose>
1

>  <Score>
-6.702

$$$$
