MODEL 1
REMARK VINA RESULT:    -8.487      0.000      0.000
REMARK INTER + INTRA:          -9.657
REMARK INTER:                  -9.975
REMARK INTRA:                   0.318
REMARK UNBOUND:                 0.318
REMARK  3 active torsions:
REMARK  status: ('A' for Active; 'I' for Inactive)
REMARK    1  A    between atoms: C_6  and  C_7 
REMARK       I    between atoms: C_7  and  N_9 
REMARK    2  A    between atoms: C_10  and  C_11 
REMARK    3  A    between atoms: N_12  and  C_16 
ROOT
ATOM      1  C   UNK d   1      20.709  65.225  -9.181  0.00  0.00     0.275 C 
ATOM      2  O   UNK d   1      20.929  66.480  -9.395  0.00  0.00    -0.266 OA
ATOM      3  N   UNK d   1      19.761  64.486  -9.842  0.00  0.00    -0.348 N 
ATOM      4  C   UNK d   1      18.817  63.751 -10.498  0.00  0.00     0.205 C 
ATOM      5  H   UNK d   1      19.383  65.586 -10.561  0.00  0.00     0.163 HD
ENDROOT
BRANCH   1   6
ATOM      6  C   UNK d   1      21.626  64.712  -8.129  0.00  0.00     0.183 A 
ATOM      7  C   UNK d   1      22.765  63.960  -8.268  0.00  0.00     0.231 A 
ATOM      8  F   UNK d   1      23.312  63.504  -9.421  0.00  0.00    -0.183 F 
ATOM      9  N   UNK d   1      23.323  63.698  -7.046  0.00  0.00    -0.279 N 
ATOM     10  C   UNK d   1      22.518  64.296  -6.154  0.00  0.00     0.137 A 
ATOM     11  C   UNK d   1      24.419  63.016  -6.674  0.00  0.00     0.125 A 
ATOM     12  N   UNK d   1      21.507  64.899  -6.800  0.00  0.00    -0.220 NA
ATOM     13  C   UNK d   1      22.857  64.184  -4.827  0.00  0.00     0.053 A 
ATOM     14  C   UNK d   1      23.987  63.484  -4.399  0.00  0.00     0.029 A 
ATOM     15  C   UNK d   1      24.784  62.888  -5.339  0.00  0.00     0.050 A 
ATOM     16 Cl   UNK d   1      26.230  61.993  -4.869  0.00  0.00    -0.083 Cl
ENDBRANCH   1   6
BRANCH   4  17
ATOM     17  C   UNK d   1      18.720  62.302 -10.093  0.00  0.00     0.171 A 
ATOM     18  N   UNK d   1      17.605  61.568 -10.081  0.00  0.00    -0.197 N 
ATOM     19  N   UNK d   1      17.926  60.352  -9.672  0.00  0.00    -0.039 NA
ATOM     20  N   UNK d   1      19.216  60.288  -9.422  0.00  0.00    -0.023 NA
ATOM     21  N   UNK d   1      19.701  61.502  -9.686  0.00  0.00    -0.112 NA
BRANCH  18  22
ATOM     22  C   UNK d   1      16.332  62.087 -10.473  0.00  0.00     0.062 A 
ATOM     23  C   UNK d   1      16.148  63.465 -10.435  0.00  0.00     0.032 A 
ATOM     24  C   UNK d   1      14.929  64.033 -10.786  0.00  0.00     0.002 A 
ATOM     25  C   UNK d   1      13.864  63.249 -11.181  0.00  0.00     0.000 A 
ATOM     26  C   UNK d   1      14.054  61.884 -11.217  0.00  0.00     0.002 A 
ATOM     27  C   UNK d   1      15.266  61.316 -10.868  0.00  0.00     0.032 A 
ENDBRANCH  18  22
ENDBRANCH   4  17
TORSDOF 3
ENDMDL
