MODEL 1
REMARK VINA RESULT:   -10.258      0.000      0.000
REMARK INTER + INTRA:         -12.279
REMARK INTER:                 -12.058
REMARK INTRA:                  -0.222
REMARK UNBOUND:                -0.222
REMARK  3 active torsions:
REMARK  status: ('A' for Active; 'I' for Inactive)
REMARK    1  A    between atoms: C_4  and  N_8 
REMARK    2  A    between atoms: C_11  and  C_13 
REMARK    3  A    between atoms: N_18  and  C_21 
ROOT
ATOM      1  C   UNK d   1      22.055  63.536  -9.436  0.00  0.00     0.209 C 
ATOM      2  O   UNK d   1      23.341  63.359  -9.937  0.00  0.00    -0.170 OA
ATOM      3  N   UNK d   1      22.066  63.619  -8.084  0.00  0.00    -0.354 N 
ATOM      4  C   UNK d   1      21.030  63.893  -7.133  0.00  0.00     0.145 C 
ATOM      5  C   UNK d   1      21.656  64.490  -5.856  0.00  0.00     0.161 C 
ATOM      6  N   UNK d   1      22.810  65.251  -6.355  0.00  0.00    -0.211 N 
ATOM      7  C   UNK d   1      23.944  64.538  -6.842  0.00  0.00     0.161 C 
ATOM      8  C   UNK d   1      23.383  63.292  -7.449  0.00  0.00     0.145 C 
ENDROOT
BRANCH   1   9
ATOM      9  C   UNK d   1      21.255  63.553 -10.648  0.00  0.00     0.151 A 
ATOM     10  N   UNK d   1      20.587  63.569 -11.662  0.00  0.00    -0.126 NA
ATOM     11  N   UNK d   1      19.468  63.299 -11.946  0.00  0.00    -0.060 NA
ATOM     12  N   UNK d   1      18.908  62.914 -10.819  0.00  0.00    -0.224 N 
ATOM     13  C   UNK d   1      19.844  62.990  -9.911  0.00  0.00     0.158 A 
BRANCH  12  14
ATOM     14  C   UNK d   1      17.521  62.507 -10.780  0.00  0.00     0.061 A 
ATOM     15  C   UNK d   1      16.466  63.340 -10.919  0.00  0.00     0.055 A 
ATOM     16  C   UNK d   1      15.161  62.868 -10.879  0.00  0.00     0.036 A 
ATOM     17 Cl   UNK d   1      13.756  63.875 -11.036  0.00  0.00    -0.084 Cl
ATOM     18  C   UNK d   1      14.916  61.470 -10.683  0.00  0.00     0.024 A 
ATOM     19  C   UNK d   1      15.983  60.650 -10.551  0.00  0.00     0.004 A 
ATOM     20  C   UNK d   1      17.233  61.169 -10.599  0.00  0.00     0.032 A 
ENDBRANCH  12  14
ENDBRANCH   1   9
BRANCH   6  21
ATOM     21  C   UNK d   1      22.728  66.636  -6.451  0.00  0.00     0.724 A 
ATOM     22  N   UNK d   1      21.552  67.259  -6.883  0.00  0.00    -0.075 NA
ATOM     23  C   UNK d   1      21.362  68.528  -6.983  0.00  0.00     0.138 A 
ATOM     24  C   UNK d   1      22.357  69.456  -6.641  0.00  0.00     0.040 A 
ATOM     25  C   UNK d   1      23.531  68.847  -6.216  0.00  0.00     0.138 A 
ATOM     26  N   UNK d   1      23.661  67.575  -6.143  0.00  0.00    -0.075 NA
ENDBRANCH   6  21
TORSDOF 3
ENDMDL
