/Users/jonathanwahrer/Desktop/Msc/3_Semester/Drug_Design_Praktikum/waehrer_HTS_screening/HTS_experiment/out/docking_results/vina_output/3sx0/1971_docked.pdbqt
 OpenBabel03192223003D

 22 25  0  0  1  0  0  0  0  0999 V2000
   19.7780   62.8630   -9.9080 N   0  0  0  0  0  0  0  0  0  0  0  0
   20.7190   63.2270  -10.9360 C   0  0  0  0  0  0  0  0  0  0  0  0
   20.7510   62.7220  -12.0830 O   0  0  0  0  0  0  0  0  0  0  0  0
   21.6180   64.2630  -10.4360 C   0  0  2  0  0  3  0  0  0  0  0  0
   23.0150   63.8160  -10.1580 C   0  0  1  0  0  0  0  0  0  0  0  0
   23.3860   64.7590   -9.1650 O   0  0  0  0  0  0  0  0  0  0  0  0
   22.3950   64.3930   -8.2180 C   0  0  1  0  0  3  0  0  0  0  0  0
   21.1350   64.6080   -9.0180 C   0  0  2  0  0  3  0  0  0  0  0  0
   20.1530   63.5610   -8.7260 C   0  0  0  0  0  0  0  0  0  0  0  0
   19.6880   63.2960   -7.5910 O   0  0  0  0  0  0  0  0  0  0  0  0
   22.6300   62.9360   -8.1290 C   0  0  0  0  0  2  0  0  0  0  0  0
   23.0620   62.5720   -9.3580 C   0  0  0  0  0  2  0  0  0  0  0  0
   18.6690   61.9770  -10.0040 C   0  0  0  0  0  0  0  0  0  0  0  0
   17.4260   62.3940  -10.4540 C   0  0  0  0  0  3  0  0  0  0  0  0
   16.3530   61.5330  -10.5460 C   0  0  0  0  0  0  0  0  0  0  0  0
   14.7900   62.0750  -11.1160 Cl  0  0  0  0  0  0  0  0  0  0  0  0
   16.4770   60.2060  -10.1900 C   0  0  0  0  0  3  0  0  0  0  0  0
   17.7110   59.7810   -9.7420 C   0  0  0  0  0  3  0  0  0  0  0  0
   18.7910   60.6480   -9.6490 C   0  0  0  0  0  3  0  0  0  0  0  0
   23.9370   63.8470  -11.3250 C   0  0  0  0  0  2  0  0  0  0  0  0
   23.7730   62.6880  -12.0730 O   0  0  0  0  0  0  0  0  0  0  0  0
   23.2700   62.0160  -11.5570 H   0  0  0  0  0  0  0  0  0  0  0  0
  1  9  1  0  0  0  0
  2  1  1  0  0  0  0
  3  2  2  0  0  0  0
  4  2  1  1  0  0  0
  4  5  1  0  0  0  0
  4  8  1  0  0  0  0
  5 20  1  6  0  0  0
  5 12  1  0  0  0  0
  5  6  1  0  0  0  0
  6  7  1  0  0  0  0
  7 11  1  6  0  0  0
  8  9  1  1  0  0  0
  8  7  1  0  0  0  0
  9 10  2  0  0  0  0
 12 11  1  0  0  0  0
 13  1  1  0  0  0  0
 13 19  1  0  0  0  0
 14 13  2  0  0  0  0
 15 14  1  0  0  0  0
 15 17  2  0  0  0  0
 16 15  1  0  0  0  0
 17 18  1  0  0  0  0
 18 19  2  0  0  0  0
 21 22  1  0  0  0  0
 21 20  1  0  0  0  0
M  END
>  <Pose>
1

>  <Score>
-6.413

$$$$
