MODEL 1
REMARK VINA RESULT:    -8.924      0.000      0.000
REMARK INTER + INTRA:          -8.424
REMARK INTER:                  -9.446
REMARK INTRA:                   1.022
REMARK UNBOUND:                 1.022
REMARK  1 active torsions:
REMARK  status: ('A' for Active; 'I' for Inactive)
REMARK       I    between atoms: N_10  and  C_13 
REMARK    1  A    between atoms: C_13  and  C_15 
ROOT
ATOM      1 Cl   UNK d   1      24.710  63.226  -1.749  0.00  0.00    -0.083 Cl
ATOM      2  C   UNK d   1      24.632  63.241  -3.510  0.00  0.00     0.050 A 
ATOM      3  C   UNK d   1      23.519  63.693  -4.189  0.00  0.00     0.125 A 
ATOM      4  N   UNK d   1      23.440  63.712  -5.541  0.00  0.00    -0.271 N 
ATOM      5  C   UNK d   1      24.457  63.286  -6.313  0.00  0.00     0.137 A 
ATOM      6  N   UNK d   1      24.397  63.298  -7.671  0.00  0.00    -0.234 NA
ATOM      7  C   UNK d   1      23.315  63.737  -8.341  0.00  0.00     0.051 A 
ATOM      8  C   UNK d   1      22.255  64.181  -7.557  0.00  0.00     0.053 A 
ATOM      9  C   UNK d   1      21.059  64.665  -8.295  0.00  0.00     0.172 C 
ATOM     10  N   UNK d   1      20.821  63.664  -9.341  0.00  0.00    -0.347 N 
ATOM     11  C   UNK d   1      21.849  63.475 -10.326  0.00  0.00     0.132 C 
ATOM     12  C   UNK d   1      23.237  63.757  -9.824  0.00  0.00     0.080 C 
ATOM     13  C   UNK d   1      19.624  62.916  -9.362  0.00  0.00     0.224 C 
ATOM     14  O   UNK d   1      18.780  63.149  -8.432  0.00  0.00    -0.273 OA
ATOM     15  C   UNK d   1      22.345  64.157  -6.183  0.00  0.00     0.263 A 
ATOM     16  O   UNK d   1      21.360  64.569  -5.488  0.00  0.00    -0.267 OA
ATOM     17  C   UNK d   1      25.584  62.828  -5.651  0.00  0.00     0.053 A 
ATOM     18  C   UNK d   1      25.689  62.798  -4.276  0.00  0.00     0.029 A 
ENDROOT
BRANCH  13  19
ATOM     19  C   UNK d   1      19.326  61.902 -10.399  0.00  0.00     0.082 C 
ATOM     20  C   UNK d   1      19.165  62.518 -11.771  0.00  0.00     0.040 C 
ATOM     21  C   UNK d   1      18.353  63.789 -11.562  0.00  0.00     0.168 C 
ATOM     22  O   UNK d   1      17.373  63.579 -10.594  0.00  0.00    -0.391 OA
ATOM     23  C   UNK d   1      16.921  62.252 -10.602  0.00  0.00     0.168 C 
ATOM     24  C   UNK d   1      17.959  61.285 -10.066  0.00  0.00     0.040 C 
ENDBRANCH  13  19
TORSDOF 1
ENDMDL
