MODEL 1
REMARK VINA RESULT:    -7.658      0.000      0.000
REMARK INTER + INTRA:          -9.059
REMARK INTER:                  -9.001
REMARK INTRA:                  -0.058
REMARK UNBOUND:                -0.058
REMARK  3 active torsions:
REMARK  status: ('A' for Active; 'I' for Inactive)
REMARK    1  A    between atoms: N_13  and  C_14 
REMARK    2  A    between atoms: C_14  and  N_15 
REMARK    3  A    between atoms: N_18  and  C_21 
ROOT
ATOM      1  F   UNK d   1      19.248  59.814  -9.240  0.00  0.00    -0.204 F 
ATOM      2  C   UNK d   1      18.121  60.376  -9.739  0.00  0.00     0.144 A 
ATOM      3  C   UNK d   1      18.123  61.738 -10.000  0.00  0.00     0.094 A 
ATOM      4  C   UNK d   1      17.013  62.377 -10.508  0.00  0.00     0.071 A 
ATOM      5  C   UNK d   1      15.886  61.612 -10.751  0.00  0.00     0.051 A 
ATOM      6  C   UNK d   1      15.882  60.261 -10.493  0.00  0.00     0.028 A 
ATOM      7  C   UNK d   1      16.994  59.628  -9.986  0.00  0.00     0.046 A 
ATOM      8 Cl   UNK d   1      14.470  62.422 -11.397  0.00  0.00    -0.083 Cl
ATOM      9  C   UNK d   1      17.261  63.792 -10.693  0.00  0.00     0.254 A 
ATOM     10  O   UNK d   1      16.482  64.669 -11.132  0.00  0.00    -0.281 OA
ATOM     11  C   UNK d   1      18.635  64.006 -10.258  0.00  0.00     0.301 A 
ATOM     12  O   UNK d   1      19.242  65.122 -10.262  0.00  0.00    -0.263 OA
ATOM     13  N   UNK d   1      19.141  62.747  -9.840  0.00  0.00    -0.280 N 
ENDROOT
BRANCH  13  14
ATOM     14  C   UNK d   1      20.467  62.471  -9.325  0.00  0.00     0.405 C 
BRANCH  14  15
ATOM     15  N   UNK d   1      21.130  63.640  -8.789  0.00  0.00     0.109 N 
ATOM     16  C   UNK d   1      20.695  63.913  -7.463  0.00  0.00     0.294 C 
ATOM     17  C   UNK d   1      21.767  64.265  -6.493  0.00  0.00     0.154 C 
ATOM     18  N   UNK d   1      22.978  63.505  -6.667  0.00  0.00    -0.361 N 
ATOM     19  C   UNK d   1      23.182  62.810  -7.917  0.00  0.00     0.154 C 
ATOM     20  C   UNK d   1      22.539  63.655  -8.995  0.00  0.00     0.294 C 
BRANCH  18  21
ATOM     21  C   UNK d   1      23.969  63.417  -5.663  0.00  0.00     0.143 A 
ATOM     22  N   UNK d   1      25.163  62.853  -5.907  0.00  0.00    -0.241 NA
ATOM     23  C   UNK d   1      26.124  62.757  -4.967  0.00  0.00     0.138 A 
ATOM     24  C   UNK d   1      25.907  63.247  -3.693  0.00  0.00     0.135 A 
ATOM     25  N   UNK d   1      24.716  63.814  -3.444  0.00  0.00    -0.268 NA
ATOM     26  C   UNK d   1      23.754  63.910  -4.382  0.00  0.00     0.166 A 
ENDBRANCH  18  21
ENDBRANCH  14  15
ENDBRANCH  13  14
TORSDOF 3
ENDMDL
