/Users/jonathanwahrer/Desktop/Msc/3_Semester/Drug_Design_Praktikum/waehrer_HTS_screening/HTS_experiment/out/docking_results/vina_output/3sx0/1974_docked.pdbqt
 OpenBabel03192223013D

 26 29  0  0  0  0  0  0  0  0999 V2000
   19.2480   59.8140   -9.2400 F   0  0  0  0  0  0  0  0  0  0  0  0
   18.1210   60.3760   -9.7390 C   0  0  0  0  0  0  0  0  0  0  0  0
   18.1230   61.7380  -10.0000 C   0  0  0  0  0  0  0  0  0  0  0  0
   17.0130   62.3770  -10.5080 C   0  0  0  0  0  0  0  0  0  0  0  0
   15.8860   61.6120  -10.7510 C   0  0  0  0  0  0  0  0  0  0  0  0
   15.8820   60.2610  -10.4930 C   0  0  0  0  0  3  0  0  0  0  0  0
   16.9940   59.6280   -9.9860 C   0  0  0  0  0  3  0  0  0  0  0  0
   14.4700   62.4220  -11.3970 Cl  0  0  0  0  0  0  0  0  0  0  0  0
   17.2610   63.7920  -10.6930 C   0  0  0  0  0  0  0  0  0  0  0  0
   16.4820   64.6690  -11.1320 O   0  0  0  0  0  0  0  0  0  0  0  0
   18.6350   64.0060  -10.2580 C   0  0  0  0  0  0  0  0  0  0  0  0
   19.2420   65.1220  -10.2620 O   0  0  0  0  0  0  0  0  0  0  0  0
   19.1410   62.7470   -9.8400 N   0  0  0  0  0  0  0  0  0  0  0  0
   20.4670   62.4710   -9.3250 C   0  0  0  0  0  2  0  0  0  0  0  0
   21.1300   63.6400   -8.7890 N   0  0  0  0  0  0  0  0  0  0  0  0
   20.6950   63.9130   -7.4630 C   0  0  0  0  0  2  0  0  0  0  0  0
   21.7670   64.2650   -6.4930 C   0  0  0  0  0  2  0  0  0  0  0  0
   22.9780   63.5050   -6.6670 N   0  0  0  0  0  0  0  0  0  0  0  0
   23.1820   62.8100   -7.9170 C   0  0  0  0  0  2  0  0  0  0  0  0
   22.5390   63.6550   -8.9950 C   0  0  0  0  0  2  0  0  0  0  0  0
   23.9690   63.4170   -5.6630 C   0  0  0  0  0  0  0  0  0  0  0  0
   25.1630   62.8530   -5.9070 N   0  0  0  0  0  0  0  0  0  0  0  0
   26.1240   62.7570   -4.9670 C   0  0  0  0  0  3  0  0  0  0  0  0
   25.9070   63.2470   -3.6930 C   0  0  0  0  0  3  0  0  0  0  0  0
   24.7160   63.8140   -3.4440 N   0  0  0  0  0  0  0  0  0  0  0  0
   23.7540   63.9100   -4.3820 C   0  0  0  0  0  3  0  0  0  0  0  0
  2  1  1  0  0  0  0
  3 13  1  0  0  0  0
  3  2  2  0  0  0  0
  4  3  1  0  0  0  0
  5  4  2  0  0  0  0
  5  6  1  0  0  0  0
  6  7  2  0  0  0  0
  7  2  1  0  0  0  0
  8  5  1  0  0  0  0
  9  4  1  0  0  0  0
  9 11  1  0  0  0  0
 10  9  2  0  0  0  0
 11 13  1  0  0  0  0
 12 11  2  0  0  0  0
 13 14  1  0  0  0  0
 14 15  1  0  0  0  0
 15 16  1  0  0  0  0
 16 17  1  0  0  0  0
 18 17  1  0  0  0  0
 18 21  1  0  0  0  0
 19 18  1  0  0  0  0
 20 15  1  0  0  0  0
 20 19  1  0  0  0  0
 21 26  1  0  0  0  0
 22 21  2  0  0  0  0
 22 23  1  0  0  0  0
 23 24  2  0  0  0  0
 24 25  1  0  0  0  0
 26 25  2  0  0  0  0
M  END
>  <Pose>
1

>  <Score>
-7.658

$$$$
