MODEL 1
REMARK VINA RESULT:    -9.184      0.000      0.000
REMARK INTER + INTRA:         -10.575
REMARK INTER:                 -10.795
REMARK INTRA:                   0.220
REMARK UNBOUND:                 0.220
REMARK  3 active torsions:
REMARK  status: ('A' for Active; 'I' for Inactive)
REMARK    1  A    between atoms: N_15  and  C_19 
REMARK    2  A    between atoms: C_19  and  C_20 
REMARK    3  A    between atoms: C_20  and  C_21 
REMARK       I    between atoms: C_21  and  N_23 
ROOT
ATOM      1 Cl   UNK d   1      25.727  63.496 -12.742  0.00  0.00    -0.084 Cl
ATOM      2  C   UNK d   1      24.083  63.389 -12.149  0.00  0.00     0.036 A 
ATOM      3  C   UNK d   1      23.751  63.616 -10.829  0.00  0.00     0.055 A 
ATOM      4  C   UNK d   1      22.460  63.534 -10.348  0.00  0.00     0.077 A 
ATOM      5  C   UNK d   1      21.463  63.208 -11.247  0.00  0.00     0.038 A 
ATOM      6  C   UNK d   1      21.782  62.979 -12.570  0.00  0.00     0.019 A 
ATOM      7  C   UNK d   1      23.074  63.060 -13.050  0.00  0.00     0.025 A 
ATOM      8  C   UNK d   1      20.071  63.116 -10.755  0.00  0.00     0.153 A 
ATOM      9  N   UNK d   1      18.992  62.839 -11.358  0.00  0.00    -0.270 NA
ATOM     10  C   UNK d   1      17.828  62.854 -10.497  0.00  0.00     0.172 A 
ATOM     11  C   UNK d   1      18.355  63.209  -9.146  0.00  0.00     0.171 A 
ATOM     12  N   UNK d   1      19.778  63.358  -9.386  0.00  0.00    -0.160 N 
ATOM     13  C   UNK d   1      20.866  63.690  -8.524  0.00  0.00     0.736 A 
ATOM     14  N   UNK d   1      20.890  63.967  -7.208  0.00  0.00     0.024 NA
ATOM     15  N   UNK d   1      22.121  64.224  -6.801  0.00  0.00    -0.203 N 
ATOM     16  C   UNK d   1      22.891  64.101  -7.911  0.00  0.00     0.364 A 
ATOM     17  O   UNK d   1      24.129  64.275  -7.907  0.00  0.00    -0.244 OA
ATOM     18  N   UNK d   1      22.143  63.775  -8.978  0.00  0.00    -0.090 N 
ENDROOT
BRANCH  15  19
ATOM     19  C   UNK d   1      22.552  64.563  -5.458  0.00  0.00     0.166 C 
BRANCH  19  20
ATOM     20  C   UNK d   1      23.760  63.694  -5.081  0.00  0.00     0.124 C 
BRANCH  20  21
ATOM     21  C   UNK d   1      23.831  63.531  -3.608  0.00  0.00     0.216 C 
ATOM     22  O   UNK d   1      24.634  64.148  -2.863  0.00  0.00    -0.274 OA
ATOM     23  N   UNK d   1      22.934  62.617  -2.998  0.00  0.00    -0.370 N 
ATOM     24  H   UNK d   1      22.659  61.713  -3.424  0.00  0.00     0.159 HD
ATOM     25  H   UNK d   1      22.532  62.875  -2.074  0.00  0.00     0.159 HD
ENDBRANCH  20  21
ENDBRANCH  19  20
ENDBRANCH  15  19
TORSDOF 3
ENDMDL
