MODEL 1
REMARK VINA RESULT:    -6.267      0.000      0.000
REMARK INTER + INTRA:          -6.194
REMARK INTER:                  -6.633
REMARK INTRA:                   0.439
REMARK UNBOUND:                 0.439
REMARK  1 active torsions:
REMARK  status: ('A' for Active; 'I' for Inactive)
REMARK    1  A    between atoms: C_11  and  C_12 
ROOT
ATOM      1 Cl   UNK d   1      15.499  65.028 -10.502  0.00  0.00    -0.084 Cl
ATOM      2  C   UNK d   1      14.412  64.162 -11.573  0.00  0.00     0.034 A 
ATOM      3  C   UNK d   1      13.535  64.840 -12.396  0.00  0.00     0.034 A 
ATOM      4  C   UNK d   1      12.666  64.149 -13.250  0.00  0.00    -0.009 A 
ATOM      5  C   UNK d   1      12.736  62.780 -13.224  0.00  0.00     0.085 A 
ATOM      6  C   UNK d   1      13.628  62.095 -12.387  0.00  0.00     0.039 A 
ATOM      7  C   UNK d   1      14.478  62.784 -11.550  0.00  0.00     0.026 A 
ATOM      8  O   UNK d   1      11.884  62.070 -14.066  0.00  0.00    -0.292 OA
ATOM      9  C   UNK d   1      10.978  62.678 -14.918  0.00  0.00     0.166 A 
ATOM     10  C   UNK d   1      10.909  64.062 -14.942  0.00  0.00     0.075 A 
ATOM     11  C   UNK d   1      11.748  64.927 -14.106  0.00  0.00     0.107 A 
ATOM     12  C   UNK d   1       9.992  64.621 -15.810  0.00  0.00     0.262 A 
ATOM     13  O   UNK d   1       9.883  65.887 -15.876  0.00  0.00    -0.267 OA
ATOM     14  N   UNK d   1       9.179  63.915 -16.612  0.00  0.00    -0.270 N 
ATOM     15  C   UNK d   1       9.283  62.565 -16.554  0.00  0.00     0.332 A 
ATOM     16  O   UNK d   1       8.511  61.921 -17.316  0.00  0.00    -0.246 OA
ATOM     17  N   UNK d   1      10.163  61.976 -15.724  0.00  0.00    -0.283 N 
ATOM     18  C   UNK d   1      10.213  60.528 -15.719  0.00  0.00     0.163 C 
ATOM     19  C   UNK d   1       8.225  64.559 -17.515  0.00  0.00     0.164 C 
ENDROOT
BRANCH  11  20
ATOM     20  C   UNK d   1      12.557  65.833 -14.986  0.00  0.00     0.078 A 
ATOM     21  C   UNK d   1      12.391  67.199 -14.934  0.00  0.00     0.197 A 
ATOM     22  N   UNK d   1      13.129  68.011 -15.740  0.00  0.00    -0.281 N 
ATOM     23  O   UNK d   1      11.481  67.733 -14.066  0.00  0.00    -0.171 OA
ATOM     24  C   UNK d   1      14.035  67.485 -16.603  0.00  0.00     0.332 A 
ATOM     25  C   UNK d   1      12.909  69.450 -15.636  0.00  0.00     0.163 C 
ATOM     26  O   UNK d   1      14.701  68.269 -17.335  0.00  0.00    -0.246 OA
ATOM     27  N   UNK d   1      14.217  66.157 -16.676  0.00  0.00    -0.270 N 
ATOM     28  C   UNK d   1      13.490  65.349 -15.881  0.00  0.00     0.262 A 
ATOM     29  C   UNK d   1      15.199  65.625 -17.616  0.00  0.00     0.164 C 
ATOM     30  O   UNK d   1      13.670  64.126 -15.960  0.00  0.00    -0.267 OA
ENDBRANCH  11  20
TORSDOF 1
ENDMDL
