MODEL 1
REMARK VINA RESULT:    -5.311      0.000      0.000
REMARK INTER + INTRA:          -6.616
REMARK INTER:                  -6.242
REMARK INTRA:                  -0.374
REMARK UNBOUND:                -0.374
REMARK  3 active torsions:
REMARK  status: ('A' for Active; 'I' for Inactive)
REMARK       I    between atoms: N_11  and  C_13 
REMARK    1  A    between atoms: C_13  and  C_15 
REMARK    2  A    between atoms: C_15  and  N_16 
REMARK    3  A    between atoms: C_19  and  C_22 
REMARK       I    between atoms: C_22  and  N_24 
ROOT
ATOM      1 Cl   UNK d   1      13.363  69.947 -16.618  0.00  0.00    -0.084 Cl
ATOM      2  C   UNK d   1      13.261  68.204 -16.555  0.00  0.00     0.034 A 
ATOM      3  C   UNK d   1      12.717  67.564 -15.464  0.00  0.00     0.035 A 
ATOM      4  C   UNK d   1      12.646  66.196 -15.431  0.00  0.00    -0.005 A 
ATOM      5  C   UNK d   1      13.129  65.452 -16.515  0.00  0.00     0.078 A 
ATOM      6  C   UNK d   1      13.679  66.087 -17.616  0.00  0.00     0.039 A 
ATOM      7  C   UNK d   1      13.732  67.454 -17.610  0.00  0.00     0.026 A 
ATOM      8  O   UNK d   1      13.131  64.071 -16.635  0.00  0.00    -0.338 OA
ATOM      9  C   UNK d   1      12.292  63.147 -15.983  0.00  0.00     0.088 C 
ATOM     10  C   UNK d   1      12.505  63.128 -14.505  0.00  0.00     0.164 C 
ATOM     11  N   UNK d   1      12.695  64.409 -13.895  0.00  0.00    -0.344 N 
ATOM     12  C   UNK d   1      12.034  65.654 -14.191  0.00  0.00     0.167 C 
ATOM     13  C   UNK d   1      13.669  64.511 -12.844  0.00  0.00     0.248 C 
ATOM     14  O   UNK d   1      13.819  65.642 -12.318  0.00  0.00    -0.271 OA
ATOM     15  C   UNK d   1      10.845  63.419 -16.363  0.00  0.00     0.066 C 
ATOM     16  C   UNK d   1      10.457  62.596 -17.580  0.00  0.00     0.170 C 
ATOM     17  O   UNK d   1      10.438  61.241 -17.317  0.00  0.00    -0.391 OA
ATOM     18  C   UNK d   1      11.330  60.919 -16.300  0.00  0.00     0.170 C 
ATOM     19  C   UNK d   1      12.593  61.736 -16.494  0.00  0.00     0.066 C 
ENDROOT
BRANCH  13  20
ATOM     20  C   UNK d   1      14.450  63.357 -12.405  0.00  0.00     0.374 C 
BRANCH  20  21
ATOM     21  N   UNK d   1      14.154  62.805 -11.134  0.00  0.00     0.097 N 
ATOM     22  C   UNK d   1      14.533  63.708 -10.044  0.00  0.00     0.273 C 
ATOM     23  C   UNK d   1      15.996  63.935 -10.117  0.00  0.00     0.044 C 
ATOM     24  C   UNK d   1      16.852  62.727 -10.301  0.00  0.00     0.081 C 
ATOM     25  C   UNK d   1      16.176  61.472 -10.692  0.00  0.00     0.044 C 
ATOM     26  C   UNK d   1      14.704  61.500 -10.859  0.00  0.00     0.273 C 
BRANCH  24  27
ATOM     27  C   UNK d   1      18.007  63.006 -11.189  0.00  0.00     0.219 C 
ATOM     28  O   UNK d   1      18.951  62.192 -11.239  0.00  0.00    -0.273 OA
ATOM     29  N   UNK d   1      18.033  64.185 -11.965  0.00  0.00    -0.370 N 
ATOM     30  H   UNK d   1      17.851  64.054 -13.004  0.00  0.00     0.159 HD
ATOM     31  H   UNK d   1      18.207  65.138 -11.625  0.00  0.00     0.159 HD
ENDBRANCH  24  27
ENDBRANCH  20  21
ENDBRANCH  13  20
TORSDOF 3
ENDMDL
