MODEL 1
REMARK VINA RESULT:    -9.371      0.000      0.000
REMARK INTER + INTRA:         -11.257
REMARK INTER:                 -11.015
REMARK INTRA:                  -0.242
REMARK UNBOUND:                -0.242
REMARK  3 active torsions:
REMARK  status: ('A' for Active; 'I' for Inactive)
REMARK    1  A    between atoms: S_1  and  N_4 
REMARK    2  A    between atoms: S_1  and  C_23 
REMARK       I    between atoms: N_7  and  C_10 
REMARK    3  A    between atoms: C_10  and  C_12 
ROOT
ATOM      1  N   UNK d   1      22.228  64.723  -7.767  0.00  0.00    -0.303 N 
ATOM      2  C   UNK d   1      21.087  63.917  -7.456  0.00  0.00     0.155 C 
ATOM      3  C   UNK d   1      20.223  63.620  -8.653  0.00  0.00     0.146 C 
ATOM      4  N   UNK d   1      20.998  63.429  -9.857  0.00  0.00    -0.345 N 
ATOM      5  C   UNK d   1      22.436  63.483  -9.894  0.00  0.00     0.146 C 
ATOM      6  C   UNK d   1      23.082  64.215  -8.780  0.00  0.00     0.155 C 
ATOM      7  C   UNK d   1      20.302  63.172 -11.069  0.00  0.00     0.260 C 
ATOM      8  O   UNK d   1      20.930  62.994 -12.166  0.00  0.00    -0.267 OA
ENDROOT
BRANCH   7   9
ATOM      9  C   UNK d   1      18.841  63.104 -11.097  0.00  0.00     0.118 A 
ATOM     10  C   UNK d   1      18.041  64.180 -11.424  0.00  0.00     0.141 A 
ATOM     11  N   UNK d   1      16.701  64.044 -11.430  0.00  0.00    -0.242 NA
ATOM     12  C   UNK d   1      16.073  62.893 -11.130  0.00  0.00     0.136 A 
ATOM     13  N   UNK d   1      16.840  61.834 -10.810  0.00  0.00    -0.273 N 
ATOM     14  C   UNK d   1      14.688  62.790 -11.148  0.00  0.00     0.051 A 
ATOM     15  C   UNK d   1      16.229  60.671 -10.508  0.00  0.00     0.102 A 
ATOM     16  C   UNK d   1      18.183  61.930 -10.793  0.00  0.00     0.270 A 
ATOM     17  C   UNK d   1      14.855  60.538 -10.515  0.00  0.00     0.018 A 
ATOM     18  C   UNK d   1      14.040  61.606 -10.840  0.00  0.00     0.005 A 
ATOM     19  O   UNK d   1      18.898  60.942 -10.494  0.00  0.00    -0.266 OA
ENDBRANCH   7   9
BRANCH   1  20
ATOM     20  S   UNK d   1      23.012  65.385  -6.420  0.00  0.00     0.267 S 
ATOM     21  O   UNK d   1      23.897  66.506  -6.812  0.00  0.00    -0.200 OA
ATOM     22  O   UNK d   1      21.968  65.875  -5.443  0.00  0.00    -0.200 OA
BRANCH  20  23
ATOM     23  C   UNK d   1      23.963  64.113  -5.634  0.00  0.00     0.121 A 
ATOM     24  S   UNK d   1      23.909  63.560  -4.022  0.00  0.00    -0.064 SA
ATOM     25  C   UNK d   1      25.114  62.357  -4.110  0.00  0.00     0.075 A 
ATOM     26  C   UNK d   1      25.526  62.425  -5.412  0.00  0.00     0.033 A 
ATOM     27 Cl   UNK d   1      25.716  61.261  -2.849  0.00  0.00    -0.076 Cl
ATOM     28  C   UNK d   1      24.936  63.329  -6.199  0.00  0.00     0.035 A 
ENDBRANCH  20  23
ENDBRANCH   1  20
TORSDOF 3
ENDMDL
