MODEL 1
REMARK VINA RESULT:    -7.125      0.000      0.000
REMARK INTER + INTRA:          -8.557
REMARK INTER:                  -8.374
REMARK INTRA:                  -0.183
REMARK UNBOUND:                -0.183
REMARK  3 active torsions:
REMARK  status: ('A' for Active; 'I' for Inactive)
REMARK    1  A    between atoms: S_1  and  N_4 
REMARK    2  A    between atoms: S_1  and  C_16 
REMARK       I    between atoms: N_7  and  C_10 
REMARK    3  A    between atoms: C_10  and  C_12 
ROOT
ATOM      1  S   UNK d   1      22.468  63.617  -9.083  0.00  0.00     0.262 S 
ATOM      2  O   UNK d   1      22.941  64.760  -9.969  0.00  0.00    -0.200 OA
ATOM      3  O   UNK d   1      23.195  62.395  -9.640  0.00  0.00    -0.200 OA
ENDROOT
BRANCH   1   4
ATOM      4  N   UNK d   1      20.816  63.380  -9.215  0.00  0.00    -0.304 N 
ATOM      5  C   UNK d   1      20.344  62.075  -9.367  0.00  0.00     0.155 C 
ATOM      6  C   UNK d   1      18.821  61.967  -9.203  0.00  0.00     0.146 C 
ATOM      7  N   UNK d   1      18.148  63.089  -9.787  0.00  0.00    -0.349 N 
ATOM      8  C   UNK d   1      18.685  64.409  -9.537  0.00  0.00     0.146 C 
ATOM      9  C   UNK d   1      17.006  62.902 -10.574  0.00  0.00     0.224 C 
ATOM     10  C   UNK d   1      20.130  64.382  -9.996  0.00  0.00     0.155 C 
ATOM     11  O   UNK d   1      16.559  61.745 -10.777  0.00  0.00    -0.273 OA
BRANCH   9  12
ATOM     12  C   UNK d   1      16.270  64.043 -11.204  0.00  0.00     0.078 C 
ATOM     13  C   UNK d   1      15.553  64.924 -10.208  0.00  0.00     0.014 C 
ATOM     14  C   UNK d   1      14.330  64.031 -10.399  0.00  0.00     0.002 C 
ATOM     15  C   UNK d   1      14.929  63.613 -11.744  0.00  0.00     0.014 C 
ENDBRANCH   9  12
ENDBRANCH   1   4
BRANCH   1  16
ATOM     16  C   UNK d   1      23.097  63.882  -7.472  0.00  0.00     0.104 A 
ATOM     17  C   UNK d   1      24.108  63.024  -6.991  0.00  0.00     0.066 A 
ATOM     18  C   UNK d   1      24.601  63.144  -5.712  0.00  0.00     0.098 A 
ATOM     19  C   UNK d   1      24.145  64.097  -4.829  0.00  0.00     0.070 A 
ATOM     20  O   UNK d   1      25.602  62.283  -5.262  0.00  0.00    -0.335 OA
ATOM     21  C   UNK d   1      23.163  64.935  -5.293  0.00  0.00     0.058 A 
ATOM     22  N   UNK d   1      24.693  64.165  -3.526  0.00  0.00    -0.323 N 
ATOM     23  C   UNK d   1      22.647  64.831  -6.593  0.00  0.00     0.059 A 
ATOM     24 Cl   UNK d   1      21.452  65.985  -7.132  0.00  0.00    -0.083 Cl
ATOM     25  C   UNK d   1      25.711  63.277  -3.080  0.00  0.00     0.251 C 
ATOM     26  H   UNK d   1      24.343  64.892  -2.859  0.00  0.00     0.169 HD
ATOM     27  O   UNK d   1      26.406  63.442  -2.060  0.00  0.00    -0.270 OA
ATOM     28  C   UNK d   1      25.937  62.070  -3.918  0.00  0.00     0.217 C 
ATOM     29  C   UNK d   1      25.125  60.902  -3.406  0.00  0.00     0.050 C 
ENDBRANCH   1  16
TORSDOF 3
ENDMDL
