/Users/jonathanwahrer/Desktop/Msc/3_Semester/Drug_Design_Praktikum/waehrer_HTS_screening/HTS_experiment/out/docking_results/vina_output/3sx0/2012_docked.pdbqt
 OpenBabel03192223023D

 25 28  0  0  1  0  0  0  0  0999 V2000
   19.1020   62.8440  -10.4170 N   0  0  0  0  0  0  0  0  0  0  0  0
   20.0680   63.1860  -11.4050 C   0  0  0  0  0  0  0  0  0  0  0  0
   19.7910   63.6050  -12.5420 O   0  0  0  0  0  0  0  0  0  0  0  0
   21.4180   62.9620  -10.8630 C   0  0  1  0  0  3  0  0  0  0  0  0
   22.4040   63.8220  -11.2250 O   0  0  0  0  0  0  0  0  0  0  0  0
   23.1660   63.9080  -10.0740 N   0  0  0  0  0  0  0  0  0  0  0  0
   22.2770   63.9130   -8.9540 C   0  0  0  0  0  0  0  0  0  0  0  0
   21.1800   63.3330   -9.4280 C   0  0  0  0  0  0  0  0  0  0  0  0
   19.8080   62.9350   -9.1520 C   0  0  0  0  0  0  0  0  0  0  0  0
   19.3650   62.7180   -7.9950 O   0  0  0  0  0  0  0  0  0  0  0  0
   24.1980   63.9500  -10.0690 H   0  0  0  0  0  0  0  0  0  0  0  0
   17.7280   62.4950  -10.5310 C   0  0  0  0  0  0  0  0  0  0  0  0
   16.7460   63.4370  -10.7270 C   0  0  0  0  0  3  0  0  0  0  0  0
   15.4280   63.0020  -10.8290 C   0  0  0  0  0  0  0  0  0  0  0  0
   14.1240   64.1600  -11.0760 Cl  0  0  0  0  0  0  0  0  0  0  0  0
   15.1270   61.6590  -10.7340 C   0  0  0  0  0  3  0  0  0  0  0  0
   16.1180   60.7110  -10.5390 C   0  0  0  0  0  3  0  0  0  0  0  0
   17.4100   61.1310  -10.4380 C   0  0  0  0  0  3  0  0  0  0  0  0
   22.5200   64.3840   -7.6050 C   0  0  0  0  0  0  0  0  0  0  0  0
   23.2680   63.6380   -6.6900 C   0  0  0  0  0  3  0  0  0  0  0  0
   23.3280   64.2900   -5.5190 N   0  0  0  0  0  0  0  0  0  0  0  0
   22.6440   65.4280   -5.6480 N   0  0  0  0  0  0  0  0  0  0  0  0
   23.9940   63.8990   -4.2810 C   0  0  0  0  0  1  0  0  0  0  0  0
   22.1500   65.4960   -6.9050 C   0  0  0  0  0  0  0  0  0  0  0  0
   21.3150   66.5980   -7.4460 C   0  0  0  0  0  1  0  0  0  0  0  0
  1  9  1  0  0  0  0
  2  1  1  0  0  0  0
  3  2  2  0  0  0  0
  4  2  1  6  0  0  0
  4  8  1  0  0  0  0
  5  4  1  0  0  0  0
  5  6  1  0  0  0  0
  6 11  1  0  0  0  0
  6  7  1  0  0  0  0
  7 19  1  0  0  0  0
  8  9  1  0  0  0  0
  8  7  2  0  0  0  0
  9 10  2  0  0  0  0
 12 18  1  0  0  0  0
 12  1  1  0  0  0  0
 13 12  2  0  0  0  0
 14 16  2  0  0  0  0
 14 13  1  0  0  0  0
 15 14  1  0  0  0  0
 16 17  1  0  0  0  0
 17 18  2  0  0  0  0
 19 24  1  0  0  0  0
 19 20  2  0  0  0  0
 20 21  1  0  0  0  0
 21 23  1  0  0  0  0
 22 21  1  0  0  0  0
 24 22  2  0  0  0  0
 25 24  1  0  0  0  0
M  END
>  <Pose>
1

>  <Score>
-8.437

$$$$
