MODEL 1
REMARK VINA RESULT:    -8.437      0.000      0.000
REMARK INTER + INTRA:         -10.152
REMARK INTER:                  -9.423
REMARK INTRA:                  -0.729
REMARK UNBOUND:                -0.729
REMARK  2 active torsions:
REMARK  status: ('A' for Active; 'I' for Inactive)
REMARK    1  A    between atoms: C_4  and  N_8 
REMARK    2  A    between atoms: C_14  and  C_18 
ROOT
ATOM      1  N   UNK d   1      19.102  62.844 -10.417  0.00  0.00    -0.246 N 
ATOM      2  C   UNK d   1      20.068  63.186 -11.405  0.00  0.00     0.268 C 
ATOM      3  O   UNK d   1      19.791  63.605 -12.542  0.00  0.00    -0.269 OA
ATOM      4  C   UNK d   1      21.418  62.962 -10.863  0.00  0.00     0.285 C 
ATOM      5  O   UNK d   1      22.404  63.822 -11.225  0.00  0.00    -0.260 OA
ATOM      6  N   UNK d   1      23.166  63.908 -10.074  0.00  0.00    -0.264 N 
ATOM      7  C   UNK d   1      22.277  63.913  -8.954  0.00  0.00     0.083 C 
ATOM      8  C   UNK d   1      21.180  63.333  -9.428  0.00  0.00     0.080 C 
ATOM      9  C   UNK d   1      19.808  62.935  -9.152  0.00  0.00     0.266 C 
ATOM     10  O   UNK d   1      19.365  62.718  -7.995  0.00  0.00    -0.267 OA
ATOM     11  H   UNK d   1      24.198  63.950 -10.069  0.00  0.00     0.194 HD
ENDROOT
BRANCH   1  12
ATOM     12  C   UNK d   1      17.728  62.495 -10.531  0.00  0.00     0.047 A 
ATOM     13  C   UNK d   1      16.746  63.437 -10.727  0.00  0.00     0.054 A 
ATOM     14  C   UNK d   1      15.428  63.002 -10.829  0.00  0.00     0.036 A 
ATOM     15 Cl   UNK d   1      14.124  64.160 -11.076  0.00  0.00    -0.084 Cl
ATOM     16  C   UNK d   1      15.127  61.659 -10.734  0.00  0.00     0.024 A 
ATOM     17  C   UNK d   1      16.118  60.711 -10.539  0.00  0.00     0.004 A 
ATOM     18  C   UNK d   1      17.410  61.131 -10.438  0.00  0.00     0.030 A 
ENDBRANCH   1  12
BRANCH   7  19
ATOM     19  C   UNK d   1      22.520  64.384  -7.605  0.00  0.00     0.036 A 
ATOM     20  C   UNK d   1      23.268  63.638  -6.690  0.00  0.00     0.127 A 
ATOM     21  N   UNK d   1      23.328  64.290  -5.519  0.00  0.00    -0.284 N 
ATOM     22  N   UNK d   1      22.644  65.428  -5.648  0.00  0.00    -0.177 NA
ATOM     23  C   UNK d   1      23.994  63.899  -4.281  0.00  0.00     0.179 C 
ATOM     24  C   UNK d   1      22.150  65.496  -6.905  0.00  0.00     0.065 A 
ATOM     25  C   UNK d   1      21.315  66.598  -7.446  0.00  0.00     0.073 C 
ENDBRANCH   7  19
TORSDOF 2
ENDMDL
