MODEL 1
REMARK VINA RESULT:    -6.943      0.000      0.000
REMARK INTER + INTRA:          -8.287
REMARK INTER:                  -7.754
REMARK INTRA:                  -0.532
REMARK UNBOUND:                -0.532
REMARK  2 active torsions:
REMARK  status: ('A' for Active; 'I' for Inactive)
REMARK    1  A    between atoms: C_4  and  C_10 
REMARK    2  A    between atoms: C_5  and  O_8 
ROOT
ATOM      1  C   UNK d   1      19.499  62.802 -11.450  0.00  0.00     0.188 A 
ATOM      2  N   UNK d   1      20.559  63.108 -10.709  0.00  0.00    -0.107 N 
ATOM      3  C   UNK d   1      21.681  63.131 -11.487  0.00  0.00     0.735 A 
ATOM      4  N   UNK d   1      21.251  62.829 -12.735  0.00  0.00     0.045 NA
ATOM      5  N   UNK d   1      19.960  62.632 -12.728  0.00  0.00    -0.114 NA
ATOM      6  N   UNK d   1      22.760  63.441 -10.753  0.00  0.00    -0.174 N 
ATOM      7  C   UNK d   1      22.385  63.629  -9.494  0.00  0.00     0.165 A 
ATOM      8  C   UNK d   1      20.996  63.421  -9.462  0.00  0.00     0.170 A 
ATOM      9  N   UNK d   1      20.334  63.558  -8.306  0.00  0.00    -0.286 N 
ATOM     10  C   UNK d   1      21.047  63.893  -7.198  0.00  0.00     0.332 A 
ATOM     11  O   UNK d   1      20.393  64.014  -6.115  0.00  0.00    -0.246 OA
ATOM     12  N   UNK d   1      22.361  64.099  -7.173  0.00  0.00    -0.269 N 
ATOM     13  C   UNK d   1      23.024  63.966  -8.324  0.00  0.00     0.282 A 
ATOM     14  O   UNK d   1      24.268  64.149  -8.357  0.00  0.00    -0.265 OA
ATOM     15  C   UNK d   1      23.060  64.459  -5.927  0.00  0.00     0.164 C 
ATOM     16  C   UNK d   1      18.912  63.397  -8.210  0.00  0.00     0.163 C 
ATOM     17  C   UNK d   1      24.123  63.557 -11.231  0.00  0.00     0.176 C 
ENDROOT
BRANCH   1  18
ATOM     18  C   UNK d   1      18.080  62.649 -11.147  0.00  0.00     0.047 A 
ATOM     19  C   UNK d   1      17.167  63.639 -11.502  0.00  0.00     0.037 A 
ATOM     20  C   UNK d   1      15.831  63.450 -11.280  0.00  0.00     0.012 A 
ATOM     21 Br   UNK d   1      14.560  64.804 -11.763  0.00  0.00    -0.051 Br
ATOM     22  C   UNK d   1      15.313  62.302 -10.707  0.00  0.00     0.022 A 
ATOM     23  C   UNK d   1      16.232  61.325 -10.359  0.00  0.00     0.039 A 
ATOM     24  C   UNK d   1      17.566  61.504 -10.576  0.00  0.00     0.082 A 
BRANCH  24  25
ATOM     25  O   UNK d   1      18.513  60.516 -10.226  0.00  0.00    -0.355 OA
ATOM     26  C   UNK d   1      18.200  59.515  -9.275  0.00  0.00     0.210 C 
ENDBRANCH  24  25
ENDBRANCH   1  18
TORSDOF 2
ENDMDL
