MODEL 1
REMARK VINA RESULT:    -5.063      0.000      0.000
REMARK INTER + INTRA:          -7.264
REMARK INTER:                  -6.395
REMARK INTRA:                  -0.868
REMARK UNBOUND:                -0.868
REMARK  5 active torsions:
REMARK  status: ('A' for Active; 'I' for Inactive)
REMARK    1  A    between atoms: C_11  and  C_23 
REMARK    2  A    between atoms: N_16  and  C_19 
REMARK    3  A    between atoms: C_19  and  C_20 
REMARK    4  A    between atoms: C_20  and  O_21 
REMARK    5  A    between atoms: C_23  and  O_24 
ROOT
ATOM      1 Cl   UNK d   1      14.006  60.750 -10.492  0.00  0.00    -0.082 Cl
ATOM      2  C   UNK d   1      14.236  62.371 -11.143  0.00  0.00     0.061 A 
ATOM      3  C   UNK d   1      13.606  62.691 -12.360  0.00  0.00     0.066 A 
ATOM      4  C   UNK d   1      13.782  63.948 -12.857  0.00  0.00     0.020 A 
ATOM      5  C   UNK d   1      14.559  64.894 -12.203  0.00  0.00     0.019 A 
ATOM      6  C   UNK d   1      15.164  64.551 -11.015  0.00  0.00    -0.060 A 
ATOM      7  C   UNK d   1      15.009  63.294 -10.474  0.00  0.00     0.033 A 
ATOM      8  C   UNK d   1      16.001  65.596 -10.327  0.00  0.00     0.048 C 
ATOM      9  C   UNK d   1      12.916  64.065 -14.071  0.00  0.00     0.279 C 
ATOM     10  N   UNK d   1      13.464  64.819 -15.127  0.00  0.00     0.116 N 
ATOM     11  C   UNK d   1      13.078  66.184 -14.907  0.00  0.00     0.264 C 
ATOM     12  C   UNK d   1      12.071  66.236 -13.831  0.00  0.00     0.130 C 
ATOM     13  C   UNK d   1      11.637  64.771 -13.747  0.00  0.00     0.147 C 
ATOM     14  C   UNK d   1      10.650  64.715 -14.810  0.00  0.00     0.235 C 
ATOM     15  O   UNK d   1      10.351  63.850 -15.662  0.00  0.00    -0.272 OA
ATOM     16  N   UNK d   1       9.957  65.988 -14.737  0.00  0.00    -0.286 N 
ATOM     17  C   UNK d   1      10.817  66.926 -14.108  0.00  0.00     0.233 C 
ATOM     18  O   UNK d   1      10.528  68.104 -13.855  0.00  0.00    -0.272 OA
ATOM     19  C   UNK d   1      12.603  62.676 -14.397  0.00  0.00     0.267 C 
ATOM     20  O   UNK d   1      12.160  62.146 -15.464  0.00  0.00    -0.270 OA
ATOM     21  N   UNK d   1      12.878  61.876 -13.271  0.00  0.00    -0.323 N 
ATOM     22  H   UNK d   1      14.505  64.720 -15.207  0.00  0.00     0.318 HD
ATOM     23  H   UNK d   1      12.625  60.874 -13.080  0.00  0.00     0.169 HD
ENDROOT
BRANCH  11  24
ATOM     24  C   UNK d   1      12.700  66.888 -16.196  0.00  0.00     0.148 C 
ATOM     25  C   UNK d   1      12.958  65.976 -17.350  0.00  0.00     0.041 C 
BRANCH  24  26
ATOM     26  O   UNK d   1      13.162  68.164 -16.318  0.00  0.00    -0.394 OA
ATOM     27  H   UNK d   1      12.457  68.860 -16.330  0.00  0.00     0.210 HD
ENDBRANCH  24  26
ENDBRANCH  11  24
BRANCH  16  28
ATOM     28  C   UNK d   1       8.628  66.301 -15.193  0.00  0.00     0.161 C 
BRANCH  28  29
ATOM     29  C   UNK d   1       8.537  66.916 -16.540  0.00  0.00     0.187 C 
BRANCH  29  30
ATOM     30  O   UNK d   1       8.561  68.275 -16.623  0.00  0.00    -0.394 OA
ATOM     31  C   UNK d   1       9.655  68.807 -17.273  0.00  0.00     0.201 C 
ENDBRANCH  29  30
ENDBRANCH  28  29
ENDBRANCH  16  28
TORSDOF 5
ENDMDL
