MODEL 1
REMARK VINA RESULT:    -6.919      0.000      0.000
REMARK INTER + INTRA:          -7.548
REMARK INTER:                  -8.942
REMARK INTRA:                   1.394
REMARK UNBOUND:                 1.394
REMARK  5 active torsions:
REMARK  status: ('A' for Active; 'I' for Inactive)
REMARK    1  A    between atoms: C_4  and  C_10 
REMARK    2  A    between atoms: C_5  and  O_8 
REMARK    3  A    between atoms: C_18  and  C_19 
REMARK    4  A    between atoms: C_19  and  N_20 
REMARK    5  A    between atoms: N_23  and  C_26 
ROOT
ATOM      1  C   UNK d   1      24.028  63.800  -8.317  0.00  0.00     0.055 C 
ATOM      2  C   UNK d   1      23.145  63.538  -9.226  0.00  0.00     0.128 A 
ATOM      3  O   UNK d   1      21.833  63.214  -9.022  0.00  0.00    -0.305 OA
ATOM      4  C   UNK d   1      21.217  63.016 -10.256  0.00  0.00     0.101 A 
ATOM      5  C   UNK d   1      22.077  63.190 -11.293  0.00  0.00     0.051 A 
ATOM      6  C   UNK d   1      21.650  63.054 -12.618  0.00  0.00     0.021 A 
ATOM      7  C   UNK d   1      20.356  62.736 -12.940  0.00  0.00     0.041 A 
ATOM      8  C   UNK d   1      19.506  62.560 -11.833  0.00  0.00     0.118 A 
ATOM      9  C   UNK d   1      19.886  62.690 -10.541  0.00  0.00     0.039 A 
ATOM     10  O   UNK d   1      18.192  62.218 -12.216  0.00  0.00    -0.191 OA
ATOM     11  C   UNK d   1      23.361  63.534 -10.674  0.00  0.00     0.218 A 
ATOM     12  O   UNK d   1      24.443  63.782 -11.281  0.00  0.00    -0.284 OA
ENDROOT
BRANCH   1  13
ATOM     13  C   UNK d   1      23.826  63.809  -6.875  0.00  0.00     0.001 A 
ATOM     14  C   UNK d   1      24.602  63.024  -6.063  0.00  0.00     0.033 A 
ATOM     15  C   UNK d   1      24.387  62.998  -4.673  0.00  0.00     0.011 A 
ATOM     16 Br   UNK d   1      25.444  61.930  -3.514  0.00  0.00    -0.051 Br
ATOM     17  C   UNK d   1      23.384  63.770  -4.132  0.00  0.00     0.022 A 
ATOM     18  C   UNK d   1      22.613  64.546  -4.935  0.00  0.00     0.039 A 
ATOM     19  C   UNK d   1      22.825  64.575  -6.321  0.00  0.00     0.078 A 
BRANCH  19  20
ATOM     20  O   UNK d   1      22.091  65.326  -7.173  0.00  0.00    -0.355 OA
ATOM     21  C   UNK d   1      21.758  66.665  -7.048  0.00  0.00     0.210 C 
ENDBRANCH  19  20
ENDBRANCH   1  13
BRANCH   9  22
ATOM     22  C   UNK d   1      19.009  62.456  -9.378  0.00  0.00     0.279 C 
BRANCH  22  23
ATOM     23  N   UNK d   1      17.745  63.139  -9.521  0.00  0.00    -0.064 N 
ATOM     24  C   UNK d   1      16.717  62.176  -9.871  0.00  0.00     0.254 C 
ATOM     25  C   UNK d   1      15.734  62.646 -10.857  0.00  0.00     0.144 C 
ATOM     26  N   UNK d   1      15.449  64.045 -10.848  0.00  0.00    -0.410 N 
ATOM     27  C   UNK d   1      16.247  64.874 -10.065  0.00  0.00     0.144 C 
ATOM     28  C   UNK d   1      17.719  64.385 -10.118  0.00  0.00     0.254 C 
ATOM     29  H   UNK d   1      17.508  63.349  -8.445  0.00  0.00     0.280 HD
BRANCH  26  30
ATOM     30  C   UNK d   1      14.871  64.586 -12.019  0.00  0.00     0.112 C 
ATOM     31  C   UNK d   1      13.610  63.938 -12.472  0.00  0.00     0.026 C 
ENDBRANCH  26  30
ENDBRANCH  22  23
ENDBRANCH   9  22
TORSDOF 5
ENDMDL
