MODEL 1
REMARK VINA RESULT:    -9.875      0.000      0.000
REMARK INTER + INTRA:         -12.402
REMARK INTER:                 -11.607
REMARK INTRA:                  -0.794
REMARK UNBOUND:                -0.794
REMARK  3 active torsions:
REMARK  status: ('A' for Active; 'I' for Inactive)
REMARK    1  A    between atoms: S_1  and  N_4 
REMARK    2  A    between atoms: S_1  and  C_24 
REMARK    3  A    between atoms: C_10  and  C_12 
ROOT
ATOM      1  N   UNK d   1      20.356  63.785  -9.022  0.00  0.00    -0.304 N 
ATOM      2  C   UNK d   1      20.723  64.945  -9.797  0.00  0.00     0.155 C 
ATOM      3  C   UNK d   1      22.235  65.122  -9.684  0.00  0.00     0.145 C 
ATOM      4  N   UNK d   1      22.868  63.861  -9.773  0.00  0.00    -0.356 N 
ATOM      5  C   UNK d   1      22.676  63.083  -8.469  0.00  0.00     0.145 C 
ATOM      6  C   UNK d   1      21.287  63.383  -8.034  0.00  0.00     0.155 C 
ATOM      7  C   UNK d   1      23.536  63.234 -10.784  0.00  0.00     0.179 C 
ATOM      8  O   UNK d   1      24.117  62.079 -10.308  0.00  0.00    -0.172 OA
ENDROOT
BRANCH   7   9
ATOM      9  C   UNK d   1      23.834  63.370 -12.156  0.00  0.00     0.090 C 
ATOM     10  C   UNK d   1      24.836  63.391 -12.972  0.00  0.00     0.063 A 
ATOM     11  N   UNK d   1      26.174  63.261 -12.573  0.00  0.00    -0.297 N 
ATOM     12  C   UNK d   1      24.587  63.497 -14.442  0.00  0.00     0.008 A 
ATOM     13  N   UNK d   1      27.278  63.222 -13.454  0.00  0.00    -0.265 N 
ATOM     14  H   UNK d   1      26.425  63.227 -11.582  0.00  0.00     0.187 HD
ATOM     15  C   UNK d   1      27.048  63.319 -14.830  0.00  0.00     0.271 A 
ATOM     16  H   UNK d   1      28.248  63.119 -13.032  0.00  0.00     0.190 HD
ATOM     17  O   UNK d   1      28.022  63.286 -15.627  0.00  0.00    -0.266 OA
ATOM     18  C   UNK d   1      25.662  63.460 -15.310  0.00  0.00     0.046 A 
ATOM     19  C   UNK d   1      25.500  63.552 -16.681  0.00  0.00     0.018 A 
ATOM     20  C   UNK d   1      24.239  63.685 -17.220  0.00  0.00     0.001 A 
ATOM     21  C   UNK d   1      23.176  63.720 -16.354  0.00  0.00     0.001 A 
ATOM     22  C   UNK d   1      23.342  63.628 -14.968  0.00  0.00     0.015 A 
ENDBRANCH   7   9
BRANCH   1  23
ATOM     23  S   UNK d   1      19.552  62.576  -9.867  0.00  0.00     0.260 S 
ATOM     24  O   UNK d   1      20.335  62.304 -11.145  0.00  0.00    -0.200 OA
ATOM     25  O   UNK d   1      19.664  61.283  -9.067  0.00  0.00    -0.200 OA
BRANCH  23  26
ATOM     26  C   UNK d   1      17.886  62.861 -10.181  0.00  0.00     0.079 A 
ATOM     27  C   UNK d   1      17.342  64.116 -10.072  0.00  0.00     0.027 A 
ATOM     28  C   UNK d   1      15.998  64.321 -10.331  0.00  0.00     0.025 A 
ATOM     29  C   UNK d   1      15.162  63.291 -10.700  0.00  0.00     0.034 A 
ATOM     30  C   UNK d   1      15.706  62.022 -10.812  0.00  0.00     0.025 A 
ATOM     31 Cl   UNK d   1      13.467  63.604 -11.015  0.00  0.00    -0.084 Cl
ATOM     32  C   UNK d   1      17.061  61.830 -10.549  0.00  0.00     0.027 A 
ENDBRANCH  23  26
ENDBRANCH   1  23
TORSDOF 3
ENDMDL
