/Users/jonathanwahrer/Desktop/Msc/3_Semester/Drug_Design_Praktikum/waehrer_HTS_screening/HTS_experiment/out/docking_results/vina_output/3sx0/2043_docked.pdbqt
 OpenBabel03192223043D

 32 35  0  0  0  0  0  0  0  0999 V2000
   20.3560   63.7850   -9.0220 N   0  0  0  0  0  0  0  0  0  0  0  0
   20.7230   64.9450   -9.7970 C   0  0  0  0  0  2  0  0  0  0  0  0
   22.2350   65.1220   -9.6840 C   0  0  0  0  0  2  0  0  0  0  0  0
   22.8680   63.8610   -9.7730 N   0  0  0  0  0  0  0  0  0  0  0  0
   22.6760   63.0830   -8.4690 C   0  0  0  0  0  2  0  0  0  0  0  0
   21.2870   63.3830   -8.0340 C   0  0  0  0  0  2  0  0  0  0  0  0
   23.5360   63.2340  -10.7840 C   0  0  0  0  0  0  0  0  0  0  0  0
   24.1170   62.0790  -10.3080 O   0  0  0  0  0  0  0  0  0  0  0  0
   23.8340   63.3700  -12.1560 C   0  0  0  0  0  3  0  0  0  0  0  0
   24.8360   63.3910  -12.9720 C   0  0  0  0  0  0  0  0  0  0  0  0
   26.1740   63.2610  -12.5730 N   0  0  0  0  0  0  0  0  0  0  0  0
   24.5870   63.4970  -14.4420 C   0  0  0  0  0  0  0  0  0  0  0  0
   27.2780   63.2220  -13.4540 N   0  0  0  0  0  0  0  0  0  0  0  0
   26.4250   63.2270  -11.5820 H   0  0  0  0  0  0  0  0  0  0  0  0
   27.0480   63.3190  -14.8300 C   0  0  0  0  0  0  0  0  0  0  0  0
   28.2480   63.1190  -13.0320 H   0  0  0  0  0  0  0  0  0  0  0  0
   28.0220   63.2860  -15.6270 O   0  0  0  0  0  0  0  0  0  0  0  0
   25.6620   63.4600  -15.3100 C   0  0  0  0  0  0  0  0  0  0  0  0
   25.5000   63.5520  -16.6810 C   0  0  0  0  0  3  0  0  0  0  0  0
   24.2390   63.6850  -17.2200 C   0  0  0  0  0  3  0  0  0  0  0  0
   23.1760   63.7200  -16.3540 C   0  0  0  0  0  3  0  0  0  0  0  0
   23.3420   63.6280  -14.9680 C   0  0  0  0  0  3  0  0  0  0  0  0
   19.5520   62.5760   -9.8670 S   0  0  0  0  0  0  0  0  0  0  0  0
   20.3350   62.3040  -11.1450 O   0  0  0  0  0  0  0  0  0  0  0  0
   19.6640   61.2830   -9.0670 O   0  0  0  0  0  0  0  0  0  0  0  0
   17.8860   62.8610  -10.1810 C   0  0  0  0  0  0  0  0  0  0  0  0
   17.3420   64.1160  -10.0720 C   0  0  0  0  0  3  0  0  0  0  0  0
   15.9980   64.3210  -10.3310 C   0  0  0  0  0  3  0  0  0  0  0  0
   15.1620   63.2910  -10.7000 C   0  0  0  0  0  0  0  0  0  0  0  0
   15.7060   62.0220  -10.8120 C   0  0  0  0  0  3  0  0  0  0  0  0
   13.4670   63.6040  -11.0150 Cl  0  0  0  0  0  0  0  0  0  0  0  0
   17.0610   61.8300  -10.5490 C   0  0  0  0  0  3  0  0  0  0  0  0
  1  6  1  0  0  0  0
  2  3  1  0  0  0  0
  2  1  1  0  0  0  0
  4  3  1  0  0  0  0
  4  5  1  0  0  0  0
  5  6  1  0  0  0  0
  7  8  2  0  0  0  0
  7  4  1  0  0  0  0
  9  7  1  0  0  0  0
 10 11  1  0  0  0  0
 10  9  2  0  0  0  0
 11 14  1  0  0  0  0
 12 10  1  0  0  0  0
 13 16  1  0  0  0  0
 13 11  1  0  0  0  0
 15 13  1  0  0  0  0
 17 15  2  0  0  0  0
 18 15  1  0  0  0  0
 18 12  2  0  0  0  0
 19 18  1  0  0  0  0
 20 19  2  0  0  0  0
 20 21  1  0  0  0  0
 21 22  2  0  0  0  0
 22 12  1  0  0  0  0
 23 25  2  0  0  0  0
 23  1  1  0  0  0  0
 24 23  2  0  0  0  0
 26 27  1  0  0  0  0
 26 23  1  0  0  0  0
 28 27  2  0  0  0  0
 29 28  1  0  0  0  0
 30 29  2  0  0  0  0
 30 32  1  0  0  0  0
 31 29  1  0  0  0  0
 32 26  2  0  0  0  0
M  END
>  <Pose>
1

>  <Score>
-9.875

$$$$
