/Users/jonathanwahrer/Desktop/Msc/3_Semester/Drug_Design_Praktikum/waehrer_HTS_screening/HTS_experiment/out/docking_results/vina_output/3sx0/2046_docked.pdbqt
 OpenBabel03192223043D

 26 29  0  0  0  0  0  0  0  0999 V2000
   20.4180   62.3440  -12.6600 Cl  0  0  0  0  0  0  0  0  0  0  0  0
   20.7690   63.0050  -11.0940 C   0  0  0  0  0  0  0  0  0  0  0  0
   19.9200   62.8110  -10.0340 C   0  0  0  0  0  0  0  0  0  0  0  0
   20.2540   63.3610   -8.8170 C   0  0  0  0  0  3  0  0  0  0  0  0
   21.3990   64.0980   -8.6070 C   0  0  0  0  0  0  0  0  0  0  0  0
   22.2400   64.2830   -9.6810 C   0  0  0  0  0  3  0  0  0  0  0  0
   21.9140   63.7360  -10.9040 C   0  0  0  0  0  3  0  0  0  0  0  0
   21.7250   64.6650   -7.3140 N   0  0  0  0  0  0  0  0  0  0  0  0
   21.0270   65.1740   -6.7640 H   0  0  0  0  0  0  0  0  0  0  0  0
   23.0580   64.4750   -6.8570 C   0  0  0  0  0  2  0  0  0  0  0  0
   23.2660   64.0740   -5.4680 C   0  0  0  0  0  0  0  0  0  0  0  0
   22.3920   64.6160   -4.6560 O   0  0  0  0  0  0  0  0  0  0  0  0
   24.1900   63.2520   -4.8730 N   0  0  0  0  0  0  0  0  0  0  0  0
   25.1790   62.4670   -5.5400 C   0  0  0  0  0  2  0  0  0  0  0  0
   24.2430   63.1520   -3.3980 C   0  0  0  0  0  2  0  0  0  0  0  0
   26.5540   62.8950   -5.0330 C   0  0  0  0  0  2  0  0  0  0  0  0
   26.5510   62.5560   -3.6620 O   0  0  0  0  0  0  0  0  0  0  0  0
   25.7000   63.4180   -3.0060 C   0  0  0  0  0  2  0  0  0  0  0  0
   18.7230   62.0820  -10.1480 N   0  0  0  0  0  0  0  0  0  0  0  0
   18.5920   60.8060   -9.8480 N   0  0  0  0  0  0  0  0  0  0  0  0
   17.3470   60.4170  -10.0510 N   0  0  0  0  0  0  0  0  0  0  0  0
   16.6940   61.4750  -10.4880 N   0  0  0  0  0  0  0  0  0  0  0  0
   17.5470   62.5410  -10.5560 C   0  0  0  0  0  0  0  0  0  0  0  0
   17.1200   63.8610  -11.0160 C   0  0  0  0  0  3  0  0  0  0  0  0
   15.7600   64.2340  -11.3860 C   0  0  0  0  0  2  0  0  0  0  0  0
   16.2570   64.6580   -9.9940 C   0  0  0  0  0  2  0  0  0  0  0  0
  1  2  1  0  0  0  0
  2  7  2  0  0  0  0
  2  3  1  0  0  0  0
  3  4  2  0  0  0  0
  4  5  1  0  0  0  0
  5  8  1  0  0  0  0
  6  5  2  0  0  0  0
  7  6  1  0  0  0  0
  8 10  1  0  0  0  0
  8  9  1  0  0  0  0
 10 11  1  0  0  0  0
 11 13  1  0  0  0  0
 11 12  2  0  0  0  0
 13 15  1  0  0  0  0
 14 16  1  0  0  0  0
 14 13  1  0  0  0  0
 15 18  1  0  0  0  0
 16 17  1  0  0  0  0
 17 18  1  0  0  0  0
 19  3  1  0  0  0  0
 19 20  1  0  0  0  0
 21 20  2  0  0  0  0
 22 21  1  0  0  0  0
 23 22  2  0  0  0  0
 23 19  1  0  0  0  0
 24 23  1  0  0  0  0
 24 26  1  0  0  0  0
 25 24  1  0  0  0  0
 25 26  1  0  0  0  0
M  END
>  <Pose>
1

>  <Score>
-9.442

$$$$
