MODEL 1
REMARK VINA RESULT:    -9.442      0.000      0.000
REMARK INTER + INTRA:         -12.866
REMARK INTER:                 -12.202
REMARK INTRA:                  -0.663
REMARK UNBOUND:                -0.663
REMARK  5 active torsions:
REMARK  status: ('A' for Active; 'I' for Inactive)
REMARK    1  A    between atoms: C_3  and  N_18 
REMARK    2  A    between atoms: C_5  and  N_8 
REMARK    3  A    between atoms: N_8  and  C_9 
REMARK    4  A    between atoms: C_9  and  C_10 
REMARK       I    between atoms: C_10  and  N_12 
REMARK    5  A    between atoms: C_22  and  C_23 
ROOT
ATOM      1 Cl   UNK d   1      20.418  62.344 -12.660  0.00  0.00    -0.082 Cl
ATOM      2  C   UNK d   1      20.769  63.005 -11.094  0.00  0.00     0.063 A 
ATOM      3  C   UNK d   1      19.920  62.811 -10.034  0.00  0.00     0.086 A 
ATOM      4  C   UNK d   1      20.254  63.361  -8.817  0.00  0.00     0.062 A 
ATOM      5  C   UNK d   1      21.399  64.098  -8.607  0.00  0.00     0.030 A 
ATOM      6  C   UNK d   1      22.240  64.283  -9.681  0.00  0.00     0.031 A 
ATOM      7  C   UNK d   1      21.914  63.736 -10.904  0.00  0.00     0.028 A 
ENDROOT
BRANCH   5   8
ATOM      8  N   UNK d   1      21.725  64.665  -7.314  0.00  0.00    -0.382 N 
ATOM      9  H   UNK d   1      21.027  65.174  -6.764  0.00  0.00     0.160 HD
BRANCH   8  10
ATOM     10  C   UNK d   1      23.058  64.475  -6.857  0.00  0.00     0.207 C 
BRANCH  10  11
ATOM     11  C   UNK d   1      23.266  64.074  -5.468  0.00  0.00     0.171 C 
ATOM     12  O   UNK d   1      22.392  64.616  -4.656  0.00  0.00    -0.175 OA
ATOM     13  N   UNK d   1      24.190  63.252  -4.873  0.00  0.00    -0.358 N 
ATOM     14  C   UNK d   1      25.179  62.467  -5.540  0.00  0.00     0.151 C 
ATOM     15  C   UNK d   1      24.243  63.152  -3.398  0.00  0.00     0.151 C 
ATOM     16  C   UNK d   1      26.554  62.895  -5.033  0.00  0.00     0.187 C 
ATOM     17  O   UNK d   1      26.551  62.556  -3.662  0.00  0.00    -0.388 OA
ATOM     18  C   UNK d   1      25.700  63.418  -3.006  0.00  0.00     0.187 C 
ENDBRANCH  10  11
ENDBRANCH   8  10
ENDBRANCH   5   8
BRANCH   3  19
ATOM     19  N   UNK d   1      18.723  62.082 -10.148  0.00  0.00    -0.196 N 
ATOM     20  N   UNK d   1      18.592  60.806  -9.848  0.00  0.00    -0.039 NA
ATOM     21  N   UNK d   1      17.347  60.417 -10.051  0.00  0.00    -0.023 NA
ATOM     22  N   UNK d   1      16.694  61.475 -10.488  0.00  0.00    -0.113 NA
ATOM     23  C   UNK d   1      17.547  62.541 -10.556  0.00  0.00     0.158 A 
BRANCH  23  24
ATOM     24  C   UNK d   1      17.120  63.861 -11.016  0.00  0.00     0.059 A 
ATOM     25  C   UNK d   1      15.760  64.234 -11.386  0.00  0.00     0.013 A 
ATOM     26  C   UNK d   1      16.257  64.658  -9.994  0.00  0.00     0.013 A 
ENDBRANCH  23  24
ENDBRANCH   3  19
TORSDOF 5
ENDMDL
