MODEL 1
REMARK VINA RESULT:    -7.809      0.000      0.000
REMARK INTER + INTRA:          -9.819
REMARK INTER:                 -10.320
REMARK INTRA:                   0.501
REMARK UNBOUND:                 0.501
REMARK  6 active torsions:
REMARK  status: ('A' for Active; 'I' for Inactive)
REMARK    1  A    between atoms: C_5  and  C_8 
REMARK    2  A    between atoms: C_12  and  C_17 
REMARK    3  A    between atoms: C_17  and  N_18 
REMARK    4  A    between atoms: N_21  and  C_24 
REMARK    5  A    between atoms: C_24  and  C_25 
REMARK    6  A    between atoms: C_25  and  O_26 
ROOT
ATOM      1  C   UNK d   1      23.834  63.553 -11.866  0.00  0.00     0.051 A 
ATOM      2  C   UNK d   1      24.126  63.934 -10.576  0.00  0.00     0.032 A 
ATOM      3  C   UNK d   1      23.108  63.889  -9.613  0.00  0.00    -0.000 A 
ATOM      4  C   UNK d   1      21.833  63.478  -9.935  0.00  0.00     0.100 A 
ATOM      5  C   UNK d   1      20.759  63.397  -9.048  0.00  0.00     0.039 A 
ATOM      6  C   UNK d   1      21.094  63.777  -7.724  0.00  0.00     0.118 A 
ATOM      7  C   UNK d   1      22.370  64.193  -7.358  0.00  0.00     0.041 A 
ATOM      8  C   UNK d   1      23.372  64.242  -8.314  0.00  0.00     0.017 A 
ATOM      9  O   UNK d   1      20.180  63.766  -6.689  0.00  0.00    -0.191 OA
ATOM     10  O   UNK d   1      21.608  63.136 -11.139  0.00  0.00    -0.273 OA
ATOM     11  C   UNK d   1      22.510  63.142 -12.124  0.00  0.00     0.299 A 
ATOM     12  O   UNK d   1      22.218  62.801 -13.277  0.00  0.00    -0.259 OA
ENDROOT
BRANCH   5  13
ATOM     13  C   UNK d   1      19.472  62.836  -9.267  0.00  0.00     0.279 C 
BRANCH  13  14
ATOM     14  N   UNK d   1      19.209  61.676 -10.080  0.00  0.00    -0.064 N 
ATOM     15  C   UNK d   1      17.804  61.207  -9.927  0.00  0.00     0.265 C 
ATOM     16  C   UNK d   1      16.885  62.374  -9.862  0.00  0.00     0.300 C 
ATOM     17  N   UNK d   1      16.889  63.230 -11.026  0.00  0.00     0.093 N 
ATOM     18  C   UNK d   1      18.136  63.231 -11.713  0.00  0.00     0.300 C 
ATOM     19  C   UNK d   1      19.102  62.165 -11.493  0.00  0.00     0.265 C 
ATOM     20  H   UNK d   1      19.860  60.926 -10.118  0.00  0.00     0.280 HD
BRANCH  17  21
ATOM     21  C   UNK d   1      16.512  64.601 -10.651  0.00  0.00     0.298 C 
BRANCH  21  22
ATOM     22  C   UNK d   1      15.189  65.014 -11.255  0.00  0.00     0.194 C 
BRANCH  22  23
ATOM     23  O   UNK d   1      15.065  64.633 -12.582  0.00  0.00    -0.399 OA
ATOM     24  H   UNK d   1      14.848  65.456 -13.125  0.00  0.00     0.209 HD
ENDBRANCH  22  23
ENDBRANCH  21  22
ENDBRANCH  17  21
ENDBRANCH  13  14
ENDBRANCH   5  13
BRANCH   1  25
ATOM     25  C   UNK d   1      24.881  63.462 -12.903  0.00  0.00    -0.020 A 
ATOM     26  C   UNK d   1      24.455  63.557 -14.242  0.00  0.00     0.014 A 
ATOM     27  C   UNK d   1      25.385  63.532 -15.266  0.00  0.00     0.024 A 
ATOM     28  C   UNK d   1      26.748  63.413 -15.022  0.00  0.00     0.034 A 
ATOM     29 Cl   UNK d   1      27.966  63.472 -16.319  0.00  0.00    -0.084 Cl
ATOM     30  C   UNK d   1      27.157  63.315 -13.704  0.00  0.00     0.024 A 
ATOM     31  C   UNK d   1      26.208  63.340 -12.697  0.00  0.00     0.014 A 
ENDBRANCH   1  25
TORSDOF 6
ENDMDL
