/Users/jonathanwahrer/Desktop/Msc/3_Semester/Drug_Design_Praktikum/waehrer_HTS_screening/HTS_experiment/out/docking_results/vina_output/3sx0/2091_docked.pdbqt
 OpenBabel03192223053D

 28 31  0  0  0  0  0  0  0  0999 V2000
   21.5700   63.6860   -9.5630 N   0  0  0  0  0  0  0  0  0  0  0  0
   21.9560   63.5340  -10.8390 C   0  0  0  0  0  0  0  0  0  0  0  0
   23.3180   63.3340  -10.8720 C   0  0  0  0  0  0  0  0  0  0  0  0
   23.7200   63.3700   -9.6120 N   0  0  0  0  0  0  0  0  0  0  0  0
   22.6810   63.5810   -8.7920 C   0  0  0  0  0  0  0  0  0  0  0  0
   24.0200   63.1370  -12.0160 N   0  0  0  0  0  0  0  0  0  0  0  0
   23.3230   63.1390  -13.1640 C   0  0  0  0  0  0  0  0  0  0  0  0
   23.9890   62.9560  -14.2140 O   0  0  0  0  0  0  0  0  0  0  0  0
   21.9920   63.3250  -13.1970 N   0  0  0  0  0  0  0  0  0  0  0  0
   21.2860   63.5230  -12.0680 C   0  0  0  0  0  0  0  0  0  0  0  0
   20.0600   63.6950  -12.0630 O   0  0  0  0  0  0  0  0  0  0  0  0
   25.4530   62.9380  -11.9530 C   0  0  0  0  0  1  0  0  0  0  0  0
   21.4590   63.3220  -14.0930 H   0  0  0  0  0  0  0  0  0  0  0  0
   20.2280   63.9260   -9.0910 C   0  0  0  0  0  2  0  0  0  0  0  0
   19.1850   63.0120   -9.5120 C   0  0  0  0  0  0  0  0  0  0  0  0
   19.2530   61.6540   -9.5190 C   0  0  0  0  0  3  0  0  0  0  0  0
   18.1930   60.8330   -9.9000 C   0  0  0  0  0  3  0  0  0  0  0  0
   16.9950   61.4160  -10.2980 C   0  0  0  0  0  0  0  0  0  0  0  0
   15.4910   60.3680  -10.8220 Br  0  0  0  0  0  0  0  0  0  0  0  0
   16.8800   62.7860  -10.3070 C   0  0  0  0  0  3  0  0  0  0  0  0
   17.9530   63.5570   -9.9230 C   0  0  0  0  0  3  0  0  0  0  0  0
   22.7180   63.6840   -7.3630 N   0  0  0  0  0  0  0  0  0  0  0  0
   21.4600   63.8290   -6.6640 C   0  0  0  0  0  2  0  0  0  0  0  0
   21.4530   65.1980   -6.0000 C   0  0  0  0  0  2  0  0  0  0  0  0
   22.7630   65.7100   -5.7680 N   0  0  0  0  0  0  0  0  0  0  0  0
   23.7790   64.7420   -5.5170 C   0  0  0  0  0  2  0  0  0  0  0  0
   23.1430   66.8780   -6.4680 C   0  0  0  0  0  1  0  0  0  0  0  0
   23.9160   63.6680   -6.5660 C   0  0  0  0  0  2  0  0  0  0  0  0
  1 14  1  0  0  0  0
  1  5  1  0  0  0  0
  2  1  1  0  0  0  0
  3  2  2  0  0  0  0
  3  4  1  0  0  0  0
  4  5  2  0  0  0  0
  5 22  1  0  0  0  0
  6 12  1  0  0  0  0
  6  3  1  0  0  0  0
  7  6  1  0  0  0  0
  8  7  2  0  0  0  0
  9  7  1  0  0  0  0
  9 10  1  0  0  0  0
 10 11  2  0  0  0  0
 10  2  1  0  0  0  0
 13  9  1  0  0  0  0
 15 14  1  0  0  0  0
 16 15  1  0  0  0  0
 17 16  2  0  0  0  0
 18 17  1  0  0  0  0
 19 18  1  0  0  0  0
 20 18  2  0  0  0  0
 20 21  1  0  0  0  0
 21 15  2  0  0  0  0
 22 23  1  0  0  0  0
 22 28  1  0  0  0  0
 23 24  1  0  0  0  0
 24 25  1  0  0  0  0
 25 26  1  0  0  0  0
 27 25  1  0  0  0  0
 28 26  1  0  0  0  0
M  END
>  <Pose>
1

>  <Score>
-6.878

$$$$
