/Users/jonathanwahrer/Desktop/Msc/3_Semester/Drug_Design_Praktikum/waehrer_HTS_screening/HTS_experiment/out/docking_results/vina_output/3sx0/2103_docked.pdbqt
 OpenBabel03192223053D

 29 32  0  0  0  0  0  0  0  0999 V2000
   19.7230   63.1450   -9.3790 C   0  0  0  0  0  0  0  0  0  0  0  0
   20.0880   63.0330  -10.7670 C   0  0  0  0  0  0  0  0  0  0  0  0
   21.3400   63.3360  -11.1590 C   0  0  0  0  0  0  0  0  0  0  0  0
   22.3080   63.7640  -10.2320 C   0  0  0  0  0  0  0  0  0  0  0  0
   21.9760   63.8800   -8.9040 C   0  0  0  0  0  0  0  0  0  0  0  0
   20.6730   63.5680   -8.4850 C   0  0  0  0  0  0  0  0  0  0  0  0
   20.2710   63.7780   -7.0700 C   0  0  0  0  0  2  0  0  0  0  0  0
   21.2070   64.7030   -6.2990 C   0  0  0  0  0  2  0  0  0  0  0  0
   22.5930   64.3680   -6.5230 N   0  0  0  0  0  0  0  0  0  0  0  0
   22.9610   64.2880   -7.9070 C   0  0  0  0  0  0  0  0  0  0  0  0
   24.1420   64.5820   -8.1870 O   0  0  0  0  0  0  0  0  0  0  0  0
   23.5280   64.1330   -5.4440 C   0  0  0  0  0  1  0  0  0  0  0  0
   21.4000   63.1350  -12.5470 O   0  0  0  0  0  0  0  0  0  0  0  0
   20.2400   62.4580  -12.9840 C   0  0  0  0  0  2  0  0  0  0  0  0
   19.3580   62.6410  -11.8940 O   0  0  0  0  0  0  0  0  0  0  0  0
   18.3440   62.7620   -9.1640 C   0  0  0  0  0  2  0  0  0  0  0  0
   17.3850   62.5720  -10.1620 N   0  0  0  0  0  0  0  0  0  0  0  0
   16.3430   63.6140  -10.2530 C   0  0  0  0  0  0  0  0  0  0  0  0
   16.3890   64.5680   -9.4570 O   0  0  0  0  0  0  0  0  0  0  0  0
   17.2640   61.8580  -10.8960 H   0  0  0  0  0  0  0  0  0  0  0  0
   15.2950   63.5270  -11.2420 C   0  0  0  0  0  0  0  0  0  0  0  0
   14.6380   62.3100  -11.3870 C   0  0  0  0  0  3  0  0  0  0  0  0
   13.6580   62.1450  -12.2870 N   0  0  0  0  0  0  0  0  0  0  0  0
   13.2990   63.1640  -13.0660 C   0  0  0  0  0  3  0  0  0  0  0  0
   13.9070   64.3750  -12.9670 C   0  0  0  0  0  0  0  0  0  0  0  0
   13.3770   65.8230  -14.0940 Br  0  0  0  0  0  0  0  0  0  0  0  0
   14.9300   64.5850  -12.0440 C   0  0  0  0  0  3  0  0  0  0  0  0
   23.5360   64.0470  -10.7020 O   0  0  0  0  0  0  0  0  0  0  0  0
   24.3850   64.1420  -10.2590 H   0  0  0  0  0  0  0  0  0  0  0  0
  1 16  1  0  0  0  0
  1  6  1  0  0  0  0
  2  1  2  0  0  0  0
  3  2  1  0  0  0  0
  3  4  2  0  0  0  0
  4  5  1  0  0  0  0
  5  6  2  0  0  0  0
  5 10  1  0  0  0  0
  6  7  1  0  0  0  0
  7  8  1  0  0  0  0
  9  8  1  0  0  0  0
  9 12  1  0  0  0  0
 10  9  1  0  0  0  0
 11 10  2  0  0  0  0
 13  3  1  0  0  0  0
 14 13  1  0  0  0  0
 14 15  1  0  0  0  0
 15  2  1  0  0  0  0
 17 16  1  0  0  0  0
 18 17  1  0  0  0  0
 18 19  2  0  0  0  0
 20 17  1  0  0  0  0
 21 18  1  0  0  0  0
 22 21  1  0  0  0  0
 23 22  2  0  0  0  0
 24 25  2  0  0  0  0
 24 23  1  0  0  0  0
 25 27  1  0  0  0  0
 26 25  1  0  0  0  0
 27 21  2  0  0  0  0
 28 29  1  0  0  0  0
 28  4  1  0  0  0  0
M  END
>  <Pose>
1

>  <Score>
-8.696

$$$$
