MODEL 1
REMARK VINA RESULT:    -8.696      0.000      0.000
REMARK INTER + INTRA:         -11.017
REMARK INTER:                 -10.475
REMARK INTRA:                  -0.541
REMARK UNBOUND:                -0.541
REMARK  4 active torsions:
REMARK  status: ('A' for Active; 'I' for Inactive)
REMARK    1  A    between atoms: C_6  and  C_8 
REMARK       I    between atoms: C_8  and  N_10 
REMARK    2  A    between atoms: N_10  and  C_11 
REMARK    3  A    between atoms: C_11  and  C_12 
REMARK    4  A    between atoms: C_15  and  O_24 
ROOT
ATOM      1  C   UNK d   1      19.723  63.145  -9.379  0.00  0.00     0.003 A 
ATOM      2  C   UNK d   1      20.088  63.033 -10.767  0.00  0.00     0.116 A 
ATOM      3  C   UNK d   1      21.340  63.336 -11.159  0.00  0.00     0.139 A 
ATOM      4  C   UNK d   1      22.308  63.764 -10.232  0.00  0.00     0.118 A 
ATOM      5  C   UNK d   1      21.976  63.880  -8.904  0.00  0.00     0.075 A 
ATOM      6  C   UNK d   1      20.673  63.568  -8.485  0.00  0.00    -0.027 A 
ATOM      7  C   UNK d   1      20.271  63.778  -7.070  0.00  0.00     0.060 C 
ATOM      8  C   UNK d   1      21.207  64.703  -6.299  0.00  0.00     0.130 C 
ATOM      9  N   UNK d   1      22.593  64.368  -6.523  0.00  0.00    -0.352 N 
ATOM     10  C   UNK d   1      22.961  64.288  -7.907  0.00  0.00     0.256 C 
ATOM     11  O   UNK d   1      24.142  64.582  -8.187  0.00  0.00    -0.267 OA
ATOM     12  C   UNK d   1      23.528  64.133  -5.444  0.00  0.00     0.152 C 
ATOM     13  O   UNK d   1      21.400  63.135 -12.547  0.00  0.00    -0.320 OA
ATOM     14  C   UNK d   1      20.240  62.458 -12.984  0.00  0.00     0.352 C 
ATOM     15  O   UNK d   1      19.358  62.641 -11.894  0.00  0.00    -0.322 OA
ENDROOT
BRANCH   1  16
ATOM     16  C   UNK d   1      18.344  62.762  -9.164  0.00  0.00     0.165 C 
BRANCH  16  17
ATOM     17  N   UNK d   1      17.385  62.572 -10.162  0.00  0.00    -0.352 N 
ATOM     18  C   UNK d   1      16.343  63.614 -10.253  0.00  0.00     0.253 C 
ATOM     19  O   UNK d   1      16.389  64.568  -9.457  0.00  0.00    -0.268 OA
ATOM     20  H   UNK d   1      17.264  61.858 -10.896  0.00  0.00     0.163 HD
BRANCH  18  21
ATOM     21  C   UNK d   1      15.295  63.527 -11.242  0.00  0.00     0.050 A 
ATOM     22  C   UNK d   1      14.638  62.310 -11.387  0.00  0.00     0.133 A 
ATOM     23  N   UNK d   1      13.658  62.145 -12.287  0.00  0.00    -0.271 NA
ATOM     24  C   UNK d   1      13.299  63.164 -13.066  0.00  0.00     0.135 A 
ATOM     25  C   UNK d   1      13.907  64.375 -12.967  0.00  0.00     0.029 A 
ATOM     26 Br   UNK d   1      13.377  65.823 -14.094  0.00  0.00    -0.050 Br
ATOM     27  C   UNK d   1      14.930  64.585 -12.044  0.00  0.00     0.039 A 
ENDBRANCH  18  21
ENDBRANCH  16  17
ENDBRANCH   1  16
BRANCH   4  28
ATOM     28  O   UNK d   1      23.536  64.047 -10.702  0.00  0.00    -0.357 OA
ATOM     29  H   UNK d   1      24.385  64.142 -10.259  0.00  0.00     0.217 HD
ENDBRANCH   4  28
TORSDOF 4
ENDMDL
