MODEL 1
REMARK VINA RESULT:    -4.811      0.000      0.000
REMARK INTER + INTRA:          -4.952
REMARK INTER:                  -4.952
REMARK INTRA:                   0.000
REMARK UNBOUND:                 0.000
REMARK  1 active torsions:
REMARK  status: ('A' for Active; 'I' for Inactive)
REMARK    1  A    between atoms: C_12  and  N_16 
ROOT
ATOM      1 Cl   UNK d   1      13.001  69.305 -16.115  0.00  0.00    -0.082 Cl
ATOM      2  C   UNK d   1      12.131  68.072 -15.224  0.00  0.00     0.061 A 
ATOM      3  C   UNK d   1      12.424  66.721 -15.412  0.00  0.00     0.065 A 
ATOM      4  C   UNK d   1      11.770  65.732 -14.739  0.00  0.00    -0.002 A 
ATOM      5  C   UNK d   1      10.788  66.135 -13.845  0.00  0.00     0.011 A 
ATOM      6  C   UNK d   1      10.485  67.465 -13.645  0.00  0.00     0.002 A 
ATOM      7  C   UNK d   1      11.156  68.449 -14.335  0.00  0.00     0.026 A 
ATOM      8  C   UNK d   1      12.311  64.424 -15.163  0.00  0.00     0.146 A 
ATOM      9  C   UNK d   1      11.234  63.606 -15.830  0.00  0.00     0.071 A 
ATOM     10  C   UNK d   1      10.893  62.410 -15.438  0.00  0.00     0.060 A 
ATOM     11  N   UNK d   1      11.523  61.775 -14.327  0.00  0.00    -0.342 N 
ATOM     12  C   UNK d   1      12.546  62.475 -13.642  0.00  0.00     0.118 A 
ATOM     13  C   UNK d   1      12.899  63.679 -14.028  0.00  0.00     0.093 A 
ATOM     14  C   UNK d   1      13.955  64.363 -13.295  0.00  0.00     0.101 C 
ATOM     15  N   UNK d   1      14.790  64.921 -12.721  0.00  0.00    -0.191 NA
ATOM     16  C   UNK d   1       9.814  61.910 -16.314  0.00  0.00     0.106 A 
ATOM     17  O   UNK d   1       9.576  62.911 -17.225  0.00  0.00    -0.301 OA
ATOM     18  C   UNK d   1      10.415  63.973 -16.978  0.00  0.00     0.294 A 
ATOM     19  O   UNK d   1      10.488  65.082 -17.614  0.00  0.00    -0.259 OA
ATOM     20  C   UNK d   1       8.618  61.545 -15.464  0.00  0.00     0.053 C 
ATOM     21  C   UNK d   1      10.233  60.662 -17.070  0.00  0.00     0.053 C 
ATOM     22  C   UNK d   1      13.354  64.762 -16.159  0.00  0.00     0.246 A 
ATOM     23  O   UNK d   1      14.095  63.934 -16.801  0.00  0.00    -0.271 OA
ATOM     24  N   UNK d   1      13.393  66.166 -16.285  0.00  0.00    -0.324 N 
ATOM     25  H   UNK d   1      11.254  60.820 -14.009  0.00  0.00     0.167 HD
ATOM     26  H   UNK d   1      14.057  66.683 -16.937  0.00  0.00     0.169 HD
ENDROOT
BRANCH  12  27
ATOM     27  N   UNK d   1      13.225  61.903 -12.519  0.00  0.00    -0.384 N 
ATOM     28  H   UNK d   1      13.696  60.992 -12.597  0.00  0.00     0.157 HD
ATOM     29  H   UNK d   1      13.229  62.424 -11.634  0.00  0.00     0.157 HD
ENDBRANCH  12  27
TORSDOF 1
ENDMDL
