/Users/jonathanwahrer/Desktop/Msc/3_Semester/Drug_Design_Praktikum/waehrer_HTS_screening/HTS_experiment/out/docking_results/vina_output/3sx0/2105_docked.pdbqt
 OpenBabel03192223053D

 29 32  0  0  1  0  0  0  0  0999 V2000
   13.0010   69.3050  -16.1150 Cl  0  0  0  0  0  0  0  0  0  0  0  0
   12.1310   68.0720  -15.2240 C   0  0  0  0  0  0  0  0  0  0  0  0
   12.4240   66.7210  -15.4120 C   0  0  0  0  0  0  0  0  0  0  0  0
   11.7700   65.7320  -14.7390 C   0  0  0  0  0  0  0  0  0  0  0  0
   10.7880   66.1350  -13.8450 C   0  0  0  0  0  3  0  0  0  0  0  0
   10.4850   67.4650  -13.6450 C   0  0  0  0  0  3  0  0  0  0  0  0
   11.1560   68.4490  -14.3350 C   0  0  0  0  0  3  0  0  0  0  0  0
   12.3110   64.4240  -15.1630 C   0  0  2  0  0  0  0  0  0  0  0  0
   11.2340   63.6060  -15.8300 C   0  0  0  0  0  0  0  0  0  0  0  0
   10.8930   62.4100  -15.4380 C   0  0  0  0  0  0  0  0  0  0  0  0
   11.5230   61.7750  -14.3270 N   0  0  0  0  0  0  0  0  0  0  0  0
   12.5460   62.4750  -13.6420 C   0  0  0  0  0  0  0  0  0  0  0  0
   12.8990   63.6790  -14.0280 C   0  0  0  0  0  0  0  0  0  0  0  0
   13.9550   64.3630  -13.2950 C   0  0  0  0  0  0  0  0  0  0  0  0
   14.7900   64.9210  -12.7210 N   0  0  0  0  0  0  0  0  0  0  0  0
    9.8140   61.9100  -16.3140 C   0  0  0  0  0  0  0  0  0  0  0  0
    9.5760   62.9110  -17.2250 O   0  0  0  0  0  0  0  0  0  0  0  0
   10.4150   63.9730  -16.9780 C   0  0  0  0  0  0  0  0  0  0  0  0
   10.4880   65.0820  -17.6140 O   0  0  0  0  0  0  0  0  0  0  0  0
    8.6180   61.5450  -15.4640 C   0  0  0  0  0  1  0  0  0  0  0  0
   10.2330   60.6620  -17.0700 C   0  0  0  0  0  1  0  0  0  0  0  0
   13.3540   64.7620  -16.1590 C   0  0  0  0  0  0  0  0  0  0  0  0
   14.0950   63.9340  -16.8010 O   0  0  0  0  0  0  0  0  0  0  0  0
   13.3930   66.1660  -16.2850 N   0  0  0  0  0  0  0  0  0  0  0  0
   11.2540   60.8200  -14.0090 H   0  0  0  0  0  0  0  0  0  0  0  0
   14.0570   66.6830  -16.9370 H   0  0  0  0  0  0  0  0  0  0  0  0
   13.2250   61.9030  -12.5190 N   0  0  0  0  0  0  0  0  0  0  0  0
   13.6960   60.9920  -12.5970 H   0  0  0  0  0  0  0  0  0  0  0  0
   13.2290   62.4240  -11.6340 H   0  0  0  0  0  0  0  0  0  0  0  0
  1  2  1  0  0  0  0
  2  7  1  0  0  0  0
  3  2  2  0  0  0  0
  3  4  1  0  0  0  0
  4  5  2  0  0  0  0
  5  6  1  0  0  0  0
  7  6  2  0  0  0  0
  8 22  1  6  0  0  0
  8  4  1  0  0  0  0
  8 13  1  0  0  0  0
  9 10  2  0  0  0  0
  9  8  1  0  0  0  0
 10 11  1  0  0  0  0
 11 25  1  0  0  0  0
 11 12  1  0  0  0  0
 12 27  1  0  0  0  0
 13 12  2  0  0  0  0
 13 14  1  0  0  0  0
 14 15  3  0  0  0  0
 16 20  1  0  0  0  0
 16 10  1  0  0  0  0
 17 18  1  0  0  0  0
 17 16  1  0  0  0  0
 18  9  1  0  0  0  0
 19 18  2  0  0  0  0
 21 16  1  0  0  0  0
 23 22  2  0  0  0  0
 24 22  1  0  0  0  0
 24  3  1  0  0  0  0
 26 24  1  0  0  0  0
 27 29  1  0  0  0  0
 28 27  1  0  0  0  0
M  END
>  <Pose>
1

>  <Score>
-4.811

$$$$
