MODEL 1
REMARK VINA RESULT:    -8.033      0.000      0.000
REMARK INTER + INTRA:          -8.118
REMARK INTER:                  -8.503
REMARK INTRA:                   0.385
REMARK UNBOUND:                 0.385
REMARK  1 active torsions:
REMARK  status: ('A' for Active; 'I' for Inactive)
REMARK    1  A    between atoms: C_5  and  N_8 
ROOT
ATOM      1  N   UNK d   1      22.551  64.256  -8.101  0.00  0.00    -0.250 N 
ATOM      2  C   UNK d   1      22.823  63.792  -9.432  0.00  0.00     0.263 C 
ATOM      3  O   UNK d   1      23.745  63.009  -9.771  0.00  0.00    -0.270 OA
ATOM      4  C   UNK d   1      21.845  64.376 -10.379  0.00  0.00     0.259 C 
ATOM      5  O   UNK d   1      21.237  63.416 -11.180  0.00  0.00    -0.266 OA
ATOM      6  N   UNK d   1      20.490  62.648 -10.404  0.00  0.00    -0.288 N 
ATOM      7  C   UNK d   1      20.116  63.317  -9.237  0.00  0.00     0.125 C 
ATOM      8  C   UNK d   1      20.701  64.717  -9.430  0.00  0.00     0.144 C 
ATOM      9  C   UNK d   1      21.451  65.156  -8.230  0.00  0.00     0.240 C 
ATOM     10  O   UNK d   1      21.220  66.119  -7.438  0.00  0.00    -0.272 OA
ATOM     11  C   UNK d   1      18.702  63.338  -8.838  0.00  0.00     0.028 C 
ATOM     12  C   UNK d   1      17.734  62.586  -9.663  0.00  0.00     0.004 C 
ATOM     13  C   UNK d   1      18.417  61.351 -10.211  0.00  0.00     0.022 C 
ATOM     14  C   UNK d   1      19.555  61.839 -11.069  0.00  0.00     0.150 C 
ENDROOT
BRANCH   1  15
ATOM     15  C   UNK d   1      23.226  63.905  -6.892  0.00  0.00     0.045 A 
ATOM     16  C   UNK d   1      24.324  63.074  -6.852  0.00  0.00     0.032 A 
ATOM     17  C   UNK d   1      24.972  62.740  -5.675  0.00  0.00     0.026 A 
ATOM     18  C   UNK d   1      24.526  63.242  -4.470  0.00  0.00     0.034 A 
ATOM     19 Cl   UNK d   1      25.338  62.826  -2.971  0.00  0.00    -0.084 Cl
ATOM     20  C   UNK d   1      23.427  64.075  -4.497  0.00  0.00     0.026 A 
ATOM     21  C   UNK d   1      22.785  64.406  -5.675  0.00  0.00     0.032 A 
ENDBRANCH   1  15
TORSDOF 1
ENDMDL
