MODEL 1
REMARK VINA RESULT:    -9.721      0.000      0.000
REMARK INTER + INTRA:         -14.070
REMARK INTER:                 -13.131
REMARK INTRA:                  -0.939
REMARK UNBOUND:                -0.939
REMARK  7 active torsions:
REMARK  status: ('A' for Active; 'I' for Inactive)
REMARK    1  A    between atoms: C_3  and  O_30 
REMARK    2  A    between atoms: C_5  and  O_29 
REMARK    3  A    between atoms: C_6  and  C_8 
REMARK    4  A    between atoms: N_9  and  N_10 
REMARK    5  A    between atoms: N_10  and  C_11 
REMARK    6  A    between atoms: C_13  and  N_23 
REMARK    7  A    between atoms: C_15  and  N_17 
ROOT
ATOM      1  C   UNK d   1      23.045  63.651  -8.358  0.00  0.00     0.774 A 
ATOM      2  N   UNK d   1      22.666  64.881  -8.052  0.00  0.00     0.133 NA
ATOM      3  C   UNK d   1      22.935  65.488  -6.883  0.00  0.00     0.756 A 
ATOM      4  N   UNK d   1      23.639  64.774  -5.978  0.00  0.00     0.131 NA
ATOM      5  C   UNK d   1      24.056  63.505  -6.234  0.00  0.00     0.756 A 
ATOM      6  N   UNK d   1      23.748  62.959  -7.437  0.00  0.00     0.133 NA
ENDROOT
BRANCH   1   7
ATOM      7  N   UNK d   1      22.686  63.079  -9.610  0.00  0.00    -0.105 N 
ATOM      8  H   UNK d   1      23.423  62.737 -10.238  0.00  0.00     0.208 HD
BRANCH   7   9
ATOM      9  N   UNK d   1      21.356  62.985  -9.985  0.00  0.00    -0.171 NA
ATOM     10  C   UNK d   1      20.386  62.773  -9.164  0.00  0.00     0.153 C 
BRANCH  10  11
ATOM     11  C   UNK d   1      19.010  62.679  -9.605  0.00  0.00     0.018 A 
ATOM     12  C   UNK d   1      18.484  61.445  -9.987  0.00  0.00     0.080 A 
ATOM     13  C   UNK d   1      17.196  61.294 -10.433  0.00  0.00     0.075 A 
ATOM     14  C   UNK d   1      16.340  62.374 -10.526  0.00  0.00     0.085 A 
ATOM     15  C   UNK d   1      16.840  63.611 -10.150  0.00  0.00     0.045 A 
ATOM     16 Br   UNK d   1      15.686  65.117 -10.259  0.00  0.00    -0.048 Br
ATOM     17  C   UNK d   1      18.142  63.744  -9.704  0.00  0.00     0.037 A 
BRANCH  12  18
ATOM     18  O   UNK d   1      19.345  60.346  -9.893  0.00  0.00    -0.360 OA
ATOM     19  H   UNK d   1      19.256  59.733  -9.089  0.00  0.00     0.217 HD
ENDBRANCH  12  18
BRANCH  14  20
ATOM     20  O   UNK d   1      15.033  62.209 -10.980  0.00  0.00    -0.359 OA
ATOM     21  H   UNK d   1      14.741  62.399 -11.927  0.00  0.00     0.217 HD
ENDBRANCH  14  20
ENDBRANCH  10  11
ENDBRANCH   7   9
ENDBRANCH   1   7
BRANCH   3  22
ATOM     22  N   UNK d   1      22.499  66.827  -6.594  0.00  0.00    -0.209 N 
ATOM     23  C   UNK d   1      23.410  67.820  -6.103  0.00  0.00     0.167 C 
ATOM     24  C   UNK d   1      22.923  69.217  -6.081  0.00  0.00     0.188 C 
ATOM     25  O   UNK d   1      21.546  69.350  -6.188  0.00  0.00    -0.388 OA
ATOM     26  C   UNK d   1      21.027  68.596  -7.232  0.00  0.00     0.188 C 
ATOM     27  C   UNK d   1      21.119  67.150  -6.812  0.00  0.00     0.167 C 
ENDBRANCH   3  22
BRANCH   5  28
ATOM     28  N   UNK d   1      24.776  62.766  -5.274  0.00  0.00    -0.209 N 
ATOM     29  C   UNK d   1      26.100  62.270  -5.549  0.00  0.00     0.167 C 
ATOM     30  C   UNK d   1      26.970  62.771  -4.387  0.00  0.00     0.188 C 
ATOM     31  O   UNK d   1      26.383  62.399  -3.195  0.00  0.00    -0.388 OA
ATOM     32  C   UNK d   1      25.210  63.121  -2.981  0.00  0.00     0.188 C 
ATOM     33  C   UNK d   1      24.201  62.512  -3.978  0.00  0.00     0.167 C 
ENDBRANCH   5  28
TORSDOF 7
ENDMDL
