MODEL 1
REMARK VINA RESULT:    -5.449      0.000      0.000
REMARK INTER + INTRA:          -5.885
REMARK INTER:                  -6.245
REMARK INTRA:                   0.360
REMARK UNBOUND:                 0.360
REMARK  3 active torsions:
REMARK  status: ('A' for Active; 'I' for Inactive)
REMARK    1  A    between atoms: C_7  and  C_9 
REMARK       I    between atoms: C_9  and  N_11 
REMARK    2  A    between atoms: C_14  and  N_19 
REMARK    3  A    between atoms: C_15  and  O_18 
REMARK       I    between atoms: N_22  and  C_25 
ROOT
ATOM      1  C   UNK d   1      12.813  63.771 -12.546  0.00  0.00     0.203 C 
ATOM      2  O   UNK d   1      12.418  64.971 -12.100  0.00  0.00    -0.170 OA
ATOM      3  N   UNK d   1      11.979  63.249 -13.512  0.00  0.00    -0.358 N 
ATOM      4  C   UNK d   1      10.870  64.189 -13.838  0.00  0.00     0.127 C 
ATOM      5  C   UNK d   1      11.313  65.101 -14.967  0.00  0.00     0.058 C 
ATOM      6  C   UNK d   1      12.420  64.429 -15.686  0.00  0.00     0.253 C 
ATOM      7  C   UNK d   1      11.986  63.110 -16.237  0.00  0.00     0.153 C 
ATOM      8  C   UNK d   1      12.814  62.047 -15.493  0.00  0.00     0.054 C 
ATOM      9  C   UNK d   1      12.146  61.968 -14.108  0.00  0.00     0.127 C 
ENDROOT
BRANCH   1  10
ATOM     10  C   UNK d   1      14.017  63.305 -11.914  0.00  0.00     0.088 A 
ATOM     11  N   UNK d   1      14.424  62.065 -11.629  0.00  0.00    -0.352 N 
ATOM     12  C   UNK d   1      15.631  62.085 -10.987  0.00  0.00     0.043 A 
ATOM     13  H   UNK d   1      13.960  61.174 -11.843  0.00  0.00     0.166 HD
ATOM     14  C   UNK d   1      15.996  63.381 -10.866  0.00  0.00    -0.005 A 
ATOM     15  C   UNK d   1      16.444  61.101 -10.492  0.00  0.00     0.032 A 
ATOM     16  C   UNK d   1      17.189  63.769 -10.246  0.00  0.00     0.037 A 
ATOM     17  C   UNK d   1      15.008  64.159 -11.435  0.00  0.00     0.048 A 
ATOM     18  C   UNK d   1      17.984  62.781  -9.761  0.00  0.00     0.035 A 
ATOM     19 Cl   UNK d   1      19.496  63.231  -8.969  0.00  0.00    -0.084 Cl
ATOM     20  C   UNK d   1      17.633  61.450  -9.872  0.00  0.00     0.026 A 
ENDBRANCH   1  10
BRANCH   6  21
ATOM     21  N   UNK d   1      13.129  65.173 -16.677  0.00  0.00     0.098 N 
ATOM     22  C   UNK d   1      14.147  66.055 -16.164  0.00  0.00     0.293 C 
ATOM     23  C   UNK d   1      13.574  67.133 -15.324  0.00  0.00     0.156 C 
ATOM     24  N   UNK d   1      12.577  67.821 -16.151  0.00  0.00    -0.349 N 
ATOM     25  C   UNK d   1      12.434  67.333 -17.498  0.00  0.00     0.156 C 
ATOM     26  C   UNK d   1      11.835  68.915 -15.611  0.00  0.00     0.215 C 
ATOM     27  C   UNK d   1      12.273  65.846 -17.616  0.00  0.00     0.293 C 
ATOM     28  O   UNK d   1      10.985  69.481 -16.313  0.00  0.00    -0.274 OA
ATOM     29  C   UNK d   1      12.116  69.342 -14.204  0.00  0.00     0.117 C 
ENDBRANCH   6  21
BRANCH   7  30
ATOM     30  O   UNK d   1      12.140  62.993 -17.616  0.00  0.00    -0.393 OA
ATOM     31  H   UNK d   1      12.054  63.934 -17.978  0.00  0.00     0.210 HD
ENDBRANCH   7  30
TORSDOF 3
ENDMDL
