/Users/jonathanwahrer/Desktop/Msc/3_Semester/Drug_Design_Praktikum/waehrer_HTS_screening/HTS_experiment/out/docking_results/vina_output/3sx0/2122_docked.pdbqt
 OpenBabel03192223063D

 29 32  0  0  0  0  0  0  0  0999 V2000
   19.2310   62.7640  -10.7000 C   0  0  0  0  0  0  0  0  0  0  0  0
   19.6030   61.6110  -10.1190 N   0  0  0  0  0  0  0  0  0  0  0  0
   18.5830   60.8100   -9.9990 O   0  0  0  0  0  0  0  0  0  0  0  0
   17.5370   61.4370  -10.4990 C   0  0  0  0  0  0  0  0  0  0  0  0
   17.9180   62.6410  -10.9350 N   0  0  0  0  0  0  0  0  0  0  0  0
   20.1390   63.8980  -11.0250 C   0  0  0  0  0  2  0  0  0  0  0  0
   21.4290   63.6930  -10.4310 N   0  0  0  0  0  0  0  0  0  0  0  0
   21.8190   63.7980   -9.1580 C   0  0  0  0  0  0  0  0  0  0  0  0
   21.1380   64.1300   -7.9950 C   0  0  0  0  0  3  0  0  0  0  0  0
   23.1800   63.4980   -9.0650 C   0  0  0  0  0  0  0  0  0  0  0  0
   21.8450   64.1480   -6.7960 C   0  0  0  0  0  0  0  0  0  0  0  0
   20.9890   64.5690   -5.3220 Cl  0  0  0  0  0  0  0  0  0  0  0  0
   23.1940   63.8450   -6.7390 C   0  0  0  0  0  3  0  0  0  0  0  0
   23.8590   63.5190   -7.8810 C   0  0  0  0  0  3  0  0  0  0  0  0
   23.5320   63.2300  -10.2850 O   0  0  0  0  0  0  0  0  0  0  0  0
   22.5280   63.3330  -11.1180 C   0  0  0  0  0  0  0  0  0  0  0  0
   22.6220   63.1220  -12.3560 O   0  0  0  0  0  0  0  0  0  0  0  0
   16.1790   60.7960  -10.5250 C   0  0  0  0  0  0  0  0  0  0  0  0
   16.2530   59.5720  -10.1610 O   0  0  0  0  0  0  0  0  0  0  0  0
   15.0980   61.5060  -10.8950 N   0  0  0  0  0  0  0  0  0  0  0  0
   14.3050   60.4190  -10.6310 H   0  0  0  0  0  0  0  0  0  0  0  0
   13.9770   62.2210  -11.2710 C   0  0  0  0  0  2  0  0  0  0  0  0
   14.2830   63.6680  -11.6750 C   0  0  0  0  0  2  0  0  0  0  0  0
   13.4920   64.1730  -12.7260 N   0  0  0  0  0  0  0  0  0  0  0  0
   12.7910   63.1410  -13.3830 C   0  0  0  0  0  2  0  0  0  0  0  0
   12.4620   63.4610  -14.8020 C   0  0  0  0  0  2  0  0  0  0  0  0
   12.0610   64.7690  -14.8830 O   0  0  0  0  0  0  0  0  0  0  0  0
   13.0610   65.6820  -14.6100 C   0  0  0  0  0  2  0  0  0  0  0  0
   13.9440   65.2790  -13.4660 C   0  0  0  0  0  2  0  0  0  0  0  0
  1  2  2  0  0  0  0
  2  3  1  0  0  0  0
  4  3  1  0  0  0  0
  5  1  1  0  0  0  0
  5  4  2  0  0  0  0
  6  1  1  0  0  0  0
  6  7  1  0  0  0  0
  7  8  1  0  0  0  0
  8 10  2  0  0  0  0
  8  9  1  0  0  0  0
  9 11  2  0  0  0  0
 10 14  1  0  0  0  0
 11 13  1  0  0  0  0
 11 12  1  0  0  0  0
 14 13  2  0  0  0  0
 15 10  1  0  0  0  0
 16  7  1  0  0  0  0
 16 15  1  0  0  0  0
 17 16  2  0  0  0  0
 18  4  1  0  0  0  0
 18 19  2  0  0  0  0
 20 21  1  0  0  0  0
 20 18  1  0  0  0  0
 22 20  1  0  0  0  0
 23 22  1  0  0  0  0
 24 23  1  0  0  0  0
 25 24  1  0  0  0  0
 26 25  1  0  0  0  0
 27 26  1  0  0  0  0
 27 28  1  0  0  0  0
 28 29  1  0  0  0  0
 29 24  1  0  0  0  0
M  END
>  <Pose>
1

>  <Score>
-8.127

$$$$
