MODEL 1
REMARK VINA RESULT:    -8.127      0.000      0.000
REMARK INTER + INTRA:         -11.610
REMARK INTER:                 -10.977
REMARK INTRA:                  -0.633
REMARK UNBOUND:                -0.633
REMARK  6 active torsions:
REMARK  status: ('A' for Active; 'I' for Inactive)
REMARK    1  A    between atoms: N_11  and  C_12 
REMARK    2  A    between atoms: C_12  and  C_13 
REMARK    3  A    between atoms: C_16  and  C_18 
REMARK       I    between atoms: C_18  and  N_20 
REMARK    4  A    between atoms: N_20  and  C_21 
REMARK    5  A    between atoms: C_21  and  C_22 
REMARK    6  A    between atoms: C_22  and  N_23 
ROOT
ATOM      1  C   UNK d   1      19.231  62.764 -10.700  0.00  0.00     0.174 A 
ATOM      2  N   UNK d   1      19.603  61.611 -10.119  0.00  0.00    -0.109 NA
ATOM      3  O   UNK d   1      18.583  60.810  -9.999  0.00  0.00    -0.186 OA
ATOM      4  C   UNK d   1      17.537  61.437 -10.499  0.00  0.00     0.264 A 
ATOM      5  N   UNK d   1      17.918  62.641 -10.935  0.00  0.00    -0.198 NA
ENDROOT
BRANCH   1   6
ATOM      6  C   UNK d   1      20.139  63.898 -11.025  0.00  0.00     0.217 C 
BRANCH   6   7
ATOM      7  N   UNK d   1      21.429  63.693 -10.431  0.00  0.00    -0.283 N 
ATOM      8  C   UNK d   1      21.819  63.798  -9.158  0.00  0.00     0.075 A 
ATOM      9  C   UNK d   1      21.138  64.130  -7.995  0.00  0.00     0.056 A 
ATOM     10  C   UNK d   1      23.180  63.498  -9.065  0.00  0.00     0.108 A 
ATOM     11  C   UNK d   1      21.845  64.148  -6.796  0.00  0.00     0.036 A 
ATOM     12 Cl   UNK d   1      20.989  64.569  -5.322  0.00  0.00    -0.084 Cl
ATOM     13  C   UNK d   1      23.194  63.845  -6.739  0.00  0.00     0.026 A 
ATOM     14  C   UNK d   1      23.859  63.519  -7.881  0.00  0.00     0.041 A 
ATOM     15  O   UNK d   1      23.532  63.230 -10.285  0.00  0.00    -0.259 OA
ATOM     16  C   UNK d   1      22.528  63.333 -11.118  0.00  0.00     0.373 A 
ATOM     17  O   UNK d   1      22.622  63.122 -12.356  0.00  0.00    -0.237 OA
ENDBRANCH   6   7
ENDBRANCH   1   6
BRANCH   4  18
ATOM     18  C   UNK d   1      16.179  60.796 -10.525  0.00  0.00     0.297 C 
ATOM     19  O   UNK d   1      16.253  59.572 -10.161  0.00  0.00    -0.264 OA
ATOM     20  N   UNK d   1      15.098  61.506 -10.895  0.00  0.00    -0.352 N 
ATOM     21  H   UNK d   1      14.305  60.419 -10.631  0.00  0.00     0.162 HD
BRANCH  20  22
ATOM     22  C   UNK d   1      13.977  62.221 -11.271  0.00  0.00     0.142 C 
BRANCH  22  23
ATOM     23  C   UNK d   1      14.283  63.668 -11.675  0.00  0.00     0.136 C 
BRANCH  23  24
ATOM     24  N   UNK d   1      13.492  64.173 -12.726  0.00  0.00    -0.407 N 
ATOM     25  C   UNK d   1      12.791  63.141 -13.383  0.00  0.00     0.143 C 
ATOM     26  C   UNK d   1      12.462  63.461 -14.802  0.00  0.00     0.187 C 
ATOM     27  O   UNK d   1      12.061  64.769 -14.883  0.00  0.00    -0.388 OA
ATOM     28  C   UNK d   1      13.061  65.682 -14.610  0.00  0.00     0.187 C 
ATOM     29  C   UNK d   1      13.944  65.279 -13.466  0.00  0.00     0.143 C 
ENDBRANCH  23  24
ENDBRANCH  22  23
ENDBRANCH  20  22
ENDBRANCH   4  18
TORSDOF 6
ENDMDL
