MODEL 1
REMARK VINA RESULT:    -7.264      0.000      0.000
REMARK INTER + INTRA:          -7.320
REMARK INTER:                  -8.114
REMARK INTRA:                   0.794
REMARK UNBOUND:                 0.794
REMARK  2 active torsions:
REMARK  status: ('A' for Active; 'I' for Inactive)
REMARK    1  A    between atoms: C_5  and  N_8 
REMARK    2  A    between atoms: C_12  and  C_21 
ROOT
ATOM      1  N   UNK d   1      20.167  63.454  -9.738  0.00  0.00    -0.252 N 
ATOM      2  C   UNK d   1      20.680  64.024  -8.543  0.00  0.00     0.239 C 
ATOM      3  O   UNK d   1      20.203  63.847  -7.391  0.00  0.00    -0.272 OA
ATOM      4  C   UNK d   1      21.879  64.876  -8.840  0.00  0.00     0.138 C 
ATOM      5  C   UNK d   1      23.069  64.420  -8.064  0.00  0.00     0.142 C 
ATOM      6  O   UNK d   1      24.096  64.286  -9.031  0.00  0.00    -0.355 OA
ATOM      7  C   UNK d   1      23.371  63.443  -9.912  0.00  0.00     0.089 C 
ATOM      8  C   UNK d   1      22.243  64.410 -10.257  0.00  0.00     0.133 C 
ATOM      9  C   UNK d   1      21.058  63.763 -10.802  0.00  0.00     0.239 C 
ATOM     10  O   UNK d   1      20.878  63.527 -12.025  0.00  0.00    -0.272 OA
ATOM     11  C   UNK d   1      22.933  62.385  -8.972  0.00  0.00     0.010 C 
ATOM     12  C   UNK d   1      22.858  62.969  -7.758  0.00  0.00     0.016 C 
ATOM     13  C   UNK d   1      24.145  62.971 -11.071  0.00  0.00     0.051 C 
ENDROOT
BRANCH   1  14
ATOM     14  C   UNK d   1      18.977  62.689  -9.947  0.00  0.00     0.045 A 
ATOM     15  C   UNK d   1      18.926  61.323  -9.812  0.00  0.00     0.032 A 
ATOM     16  C   UNK d   1      17.769  60.593 -10.019  0.00  0.00     0.026 A 
ATOM     17  C   UNK d   1      16.607  61.233 -10.376  0.00  0.00     0.034 A 
ATOM     18 Cl   UNK d   1      15.108  60.341 -10.655  0.00  0.00    -0.084 Cl
ATOM     19  C   UNK d   1      16.643  62.602 -10.516  0.00  0.00     0.026 A 
ATOM     20  C   UNK d   1      17.809  63.336 -10.307  0.00  0.00     0.032 A 
ENDBRANCH   1  14
BRANCH   5  21
ATOM     21  C   UNK d   1      23.466  65.232  -6.907  0.00  0.00     0.298 C 
ATOM     22  O   UNK d   1      22.322  65.537  -6.166  0.00  0.00    -0.356 OA
ATOM     23  C   UNK d   1      22.111  64.524  -5.265  0.00  0.00     0.197 C 
ATOM     24  C   UNK d   1      23.499  63.982  -5.044  0.00  0.00     0.197 C 
ATOM     25  O   UNK d   1      24.281  64.477  -6.063  0.00  0.00    -0.356 OA
ENDBRANCH   5  21
TORSDOF 2
ENDMDL
