/Users/jonathanwahrer/Desktop/Msc/3_Semester/Drug_Design_Praktikum/waehrer_HTS_screening/HTS_experiment/out/docking_results/vina_output/3sx0/2134_docked.pdbqt
 OpenBabel03192223073D

 36 39  0  0  0  0  0  0  0  0999 V2000
   20.7490   63.1520  -10.6340 C   0  0  0  0  0  0  0  0  0  0  0  0
   21.5140   63.0430  -11.6920 N   0  0  0  0  0  0  0  0  0  0  0  0
   22.8230   63.3590  -11.4310 N   0  0  0  0  0  0  0  0  0  0  0  0
   22.8700   63.7010  -10.0450 C   0  0  0  0  0  0  0  0  0  0  0  0
   23.8370   64.0740   -9.2590 N   0  0  0  0  0  0  0  0  0  0  0  0
   23.6180   64.3640   -7.8870 N   0  0  0  0  0  0  0  0  0  0  0  0
   22.3440   64.2650   -7.2990 C   0  0  0  0  0  0  0  0  0  0  0  0
   22.1230   64.5410   -6.0210 C   0  0  0  0  0  2  0  0  0  0  0  0
   21.2460   63.8450   -8.1620 C   0  0  0  0  0  0  0  0  0  0  0  0
   20.1190   63.7510   -7.6660 O   0  0  0  0  0  0  0  0  0  0  0  0
   21.5460   63.5700   -9.5310 N   0  0  0  0  0  0  0  0  0  0  0  0
   24.4630   64.6550   -7.3460 H   0  0  0  0  0  0  0  0  0  0  0  0
   19.3240   62.8820  -10.6160 C   0  0  0  0  0  0  0  0  0  0  0  0
   18.4350   63.8750  -10.1410 N   0  0  0  0  0  0  0  0  0  0  0  0
   18.7510   64.8050   -9.8270 H   0  0  0  0  0  0  0  0  0  0  0  0
   18.8570   61.7670  -11.0120 O   0  0  0  0  0  0  0  0  0  0  0  0
   17.0750   63.5870  -10.1060 N   0  0  0  0  0  0  0  0  0  0  0  0
   16.1590   63.7040  -11.1690 C   0  0  0  0  0  0  0  0  0  0  0  0
   14.7920   63.3930  -11.0650 N   0  0  0  0  0  0  0  0  0  0  0  0
   16.5840   64.1070  -12.2850 O   0  0  0  0  0  0  0  0  0  0  0  0
   14.4060   63.0620  -10.1460 H   0  0  0  0  0  0  0  0  0  0  0  0
   16.7300   63.2530   -9.1470 H   0  0  0  0  0  0  0  0  0  0  0  0
   13.8410   63.4810  -12.1210 C   0  0  0  0  0  0  0  0  0  0  0  0
   13.3470   62.3310  -12.7330 C   0  0  0  0  0  3  0  0  0  0  0  0
   12.4260   62.3870  -13.7560 C   0  0  0  0  0  3  0  0  0  0  0  0
   12.0110   63.6310  -14.1540 C   0  0  0  0  0  0  0  0  0  0  0  0
   10.8270   63.8100  -15.4550 Cl  0  0  0  0  0  0  0  0  0  0  0  0
   12.4700   64.7870  -13.5800 C   0  0  0  0  0  3  0  0  0  0  0  0
   13.3900   64.7180  -12.5590 C   0  0  0  0  0  3  0  0  0  0  0  0
   23.8900   63.3870  -12.3740 C   0  0  0  0  0  0  0  0  0  0  0  0
   23.6600   63.6010  -13.7110 C   0  0  0  0  0  3  0  0  0  0  0  0
   24.6650   63.6800  -14.6650 C   0  0  0  0  0  3  0  0  0  0  0  0
   25.9850   63.5390  -14.2850 C   0  0  0  0  0  0  0  0  0  0  0  0
   26.2420   63.3200  -12.9480 C   0  0  0  0  0  3  0  0  0  0  0  0
   27.1010   63.6540  -15.2730 C   0  0  0  0  0  1  0  0  0  0  0  0
   25.2110   63.2460  -12.0120 C   0  0  0  0  0  3  0  0  0  0  0  0
  1 13  1  0  0  0  0
  1 11  1  0  0  0  0
  2  3  1  0  0  0  0
  2  1  2  0  0  0  0
  3  4  1  0  0  0  0
  4 11  1  0  0  0  0
  4  5  2  0  0  0  0
  5  6  1  0  0  0  0
  6 12  1  0  0  0  0
  6  7  1  0  0  0  0
  7  8  2  0  0  0  0
  9 10  2  0  0  0  0
  9  7  1  0  0  0  0
 11  9  1  0  0  0  0
 13 14  1  0  0  0  0
 14 17  1  0  0  0  0
 14 15  1  0  0  0  0
 16 13  2  0  0  0  0
 17 22  1  0  0  0  0
 18 19  1  0  0  0  0
 18 17  1  0  0  0  0
 19 21  1  0  0  0  0
 20 18  2  0  0  0  0
 23 19  1  0  0  0  0
 24 23  2  0  0  0  0
 25 24  1  0  0  0  0
 26 25  2  0  0  0  0
 26 28  1  0  0  0  0
 27 26  1  0  0  0  0
 28 29  2  0  0  0  0
 29 23  1  0  0  0  0
 30 36  1  0  0  0  0
 30  3  1  0  0  0  0
 31 30  2  0  0  0  0
 32 33  2  0  0  0  0
 32 31  1  0  0  0  0
 33 34  1  0  0  0  0
 34 36  2  0  0  0  0
 35 33  1  0  0  0  0
M  END
>  <Pose>
1

>  <Score>
-9.896

$$$$
