MODEL 1
REMARK VINA RESULT:    -9.896      0.000      0.000
REMARK INTER + INTRA:         -12.823
REMARK INTER:                 -12.210
REMARK INTRA:                  -0.613
REMARK UNBOUND:                -0.613
REMARK  4 active torsions:
REMARK  status: ('A' for Active; 'I' for Inactive)
REMARK    1  A    between atoms: C_5  and  N_8 
REMARK       I    between atoms: N_8  and  C_9 
REMARK       I    between atoms: C_9  and  N_11 
REMARK    2  A    between atoms: N_11  and  N_12 
REMARK       I    between atoms: N_12  and  C_13 
REMARK    3  A    between atoms: C_13  and  C_15 
REMARK    4  A    between atoms: N_17  and  C_26 
ROOT
ATOM      1  C   UNK d   1      20.749  63.152 -10.634  0.00  0.00     0.244 A 
ATOM      2  N   UNK d   1      21.514  63.043 -11.692  0.00  0.00    -0.127 NA
ATOM      3  N   UNK d   1      22.823  63.359 -11.431  0.00  0.00    -0.058 N 
ATOM      4  C   UNK d   1      22.870  63.701 -10.045  0.00  0.00     0.756 A 
ATOM      5  N   UNK d   1      23.837  64.074  -9.259  0.00  0.00     0.020 NA
ATOM      6  N   UNK d   1      23.618  64.364  -7.887  0.00  0.00    -0.258 N 
ATOM      7  C   UNK d   1      22.344  64.265  -7.299  0.00  0.00     0.110 A 
ATOM      8  C   UNK d   1      22.123  64.541  -6.021  0.00  0.00     0.050 C 
ATOM      9  C   UNK d   1      21.246  63.845  -8.162  0.00  0.00     0.295 A 
ATOM     10  O   UNK d   1      20.119  63.751  -7.666  0.00  0.00    -0.265 OA
ATOM     11  N   UNK d   1      21.546  63.570  -9.531  0.00  0.00    -0.080 N 
ATOM     12  H   UNK d   1      24.463  64.655  -7.346  0.00  0.00     0.190 HD
ENDROOT
BRANCH   1  13
ATOM     13  C   UNK d   1      19.324  62.882 -10.616  0.00  0.00     0.308 C 
ATOM     14  N   UNK d   1      18.435  63.875 -10.141  0.00  0.00    -0.259 N 
ATOM     15  H   UNK d   1      18.751  64.805  -9.827  0.00  0.00     0.190 HD
ATOM     16  O   UNK d   1      18.857  61.767 -11.012  0.00  0.00    -0.262 OA
BRANCH  14  17
ATOM     17  N   UNK d   1      17.075  63.587 -10.106  0.00  0.00    -0.248 N 
ATOM     18  C   UNK d   1      16.159  63.704 -11.169  0.00  0.00     0.339 C 
ATOM     19  N   UNK d   1      14.792  63.393 -11.065  0.00  0.00    -0.308 N 
ATOM     20  O   UNK d   1      16.584  64.107 -12.285  0.00  0.00    -0.245 OA
ATOM     21  H   UNK d   1      14.406  63.062 -10.146  0.00  0.00     0.170 HD
ATOM     22  H   UNK d   1      16.730  63.253  -9.147  0.00  0.00     0.192 HD
BRANCH  19  23
ATOM     23  C   UNK d   1      13.841  63.481 -12.121  0.00  0.00     0.036 A 
ATOM     24  C   UNK d   1      13.347  62.331 -12.733  0.00  0.00     0.031 A 
ATOM     25  C   UNK d   1      12.426  62.387 -13.756  0.00  0.00     0.026 A 
ATOM     26  C   UNK d   1      12.011  63.631 -14.154  0.00  0.00     0.034 A 
ATOM     27 Cl   UNK d   1      10.827  63.810 -15.455  0.00  0.00    -0.084 Cl
ATOM     28  C   UNK d   1      12.470  64.787 -13.580  0.00  0.00     0.026 A 
ATOM     29  C   UNK d   1      13.390  64.718 -12.559  0.00  0.00     0.031 A 
ENDBRANCH  19  23
ENDBRANCH  14  17
ENDBRANCH   1  13
BRANCH   3  30
ATOM     30  C   UNK d   1      23.890  63.387 -12.374  0.00  0.00     0.077 A 
ATOM     31  C   UNK d   1      23.660  63.601 -13.711  0.00  0.00     0.033 A 
ATOM     32  C   UNK d   1      24.665  63.680 -14.665  0.00  0.00     0.009 A 
ATOM     33  C   UNK d   1      25.985  63.539 -14.285  0.00  0.00    -0.062 A 
ATOM     34  C   UNK d   1      26.242  63.320 -12.948  0.00  0.00     0.009 A 
ATOM     35  C   UNK d   1      27.101  63.654 -15.273  0.00  0.00     0.048 C 
ATOM     36  C   UNK d   1      25.211  63.246 -12.012  0.00  0.00     0.033 A 
ENDBRANCH   3  30
TORSDOF 4
ENDMDL
