MODEL 1
REMARK VINA RESULT:    -8.373      0.000      0.000
REMARK INTER + INTRA:         -10.979
REMARK INTER:                 -10.820
REMARK INTRA:                  -0.159
REMARK UNBOUND:                -0.159
REMARK  5 active torsions:
REMARK  status: ('A' for Active; 'I' for Inactive)
REMARK    1  A    between atoms: C_10  and  C_22 
REMARK    2  A    between atoms: N_15  and  C_18 
REMARK    3  A    between atoms: C_18  and  C_19 
REMARK    4  A    between atoms: C_19  and  O_20 
REMARK    5  A    between atoms: C_22  and  C_23 
ROOT
ATOM      1 Cl   UNK d   1      16.047  64.543 -10.507  0.00  0.00    -0.082 Cl
ATOM      2  C   UNK d   1      17.291  63.330 -10.289  0.00  0.00     0.061 A 
ATOM      3  C   UNK d   1      18.621  63.651 -10.109  0.00  0.00     0.066 A 
ATOM      4  C   UNK d   1      19.584  62.663  -9.939  0.00  0.00     0.019 A 
ATOM      5  C   UNK d   1      19.145  61.368  -9.959  0.00  0.00     0.013 A 
ATOM      6  C   UNK d   1      17.825  61.029 -10.136  0.00  0.00     0.002 A 
ATOM      7  C   UNK d   1      16.884  62.000 -10.302  0.00  0.00     0.026 A 
ATOM      8  C   UNK d   1      20.886  63.320  -9.773  0.00  0.00     0.279 A 
ATOM      9  N   UNK d   1      21.849  62.908 -10.779  0.00  0.00     0.114 N 
ATOM     10  C   UNK d   1      23.111  63.371 -10.198  0.00  0.00     0.240 C 
ATOM     11  C   UNK d   1      22.999  63.190  -8.732  0.00  0.00     0.128 C 
ATOM     12  C   UNK d   1      21.555  62.882  -8.497  0.00  0.00     0.147 C 
ATOM     13  C   UNK d   1      21.102  63.633  -7.323  0.00  0.00     0.235 C 
ATOM     14  O   UNK d   1      20.030  63.399  -6.711  0.00  0.00    -0.272 OA
ATOM     15  N   UNK d   1      22.094  64.618  -7.058  0.00  0.00    -0.286 N 
ATOM     16  C   UNK d   1      23.160  64.496  -7.991  0.00  0.00     0.233 C 
ATOM     17  O   UNK d   1      24.109  65.296  -8.216  0.00  0.00    -0.272 OA
ATOM     18  C   UNK d   1      20.641  64.768  -9.860  0.00  0.00     0.267 A 
ATOM     19  O   UNK d   1      21.454  65.700  -9.778  0.00  0.00    -0.270 OA
ATOM     20  N   UNK d   1      19.244  64.926 -10.064  0.00  0.00    -0.323 N 
ATOM     21  H   UNK d   1      21.669  63.373 -11.710  0.00  0.00     0.318 HD
ATOM     22  H   UNK d   1      18.722  65.837 -10.169  0.00  0.00     0.169 HD
ENDROOT
BRANCH  10  23
ATOM     23  C   UNK d   1      24.277  62.612 -10.757  0.00  0.00     0.075 C 
BRANCH  23  24
ATOM     24  C   UNK d   1      24.720  63.060 -12.087  0.00  0.00    -0.056 A 
ATOM     25  C   UNK d   1      26.091  63.119 -12.326  0.00  0.00     0.007 A 
ATOM     26  C   UNK d   1      26.535  63.512 -13.562  0.00  0.00     0.001 A 
ATOM     27  C   UNK d   1      25.684  63.854 -14.586  0.00  0.00     0.000 A 
ATOM     28  C   UNK d   1      24.336  63.784 -14.311  0.00  0.00     0.001 A 
ATOM     29  C   UNK d   1      23.836  63.394 -13.086  0.00  0.00     0.007 A 
ENDBRANCH  23  24
ENDBRANCH  10  23
BRANCH  15  30
ATOM     30  C   UNK d   1      22.015  65.603  -5.983  0.00  0.00     0.161 C 
BRANCH  30  31
ATOM     31  C   UNK d   1      22.197  66.982  -6.599  0.00  0.00     0.187 C 
BRANCH  31  32
ATOM     32  O   UNK d   1      23.341  67.595  -6.112  0.00  0.00    -0.394 OA
ATOM     33  C   UNK d   1      23.278  68.952  -6.362  0.00  0.00     0.201 C 
ENDBRANCH  31  32
ENDBRANCH  30  31
ENDBRANCH  15  30
TORSDOF 5
ENDMDL
