/Users/jonathanwahrer/Desktop/Msc/3_Semester/Drug_Design_Praktikum/waehrer_HTS_screening/HTS_experiment/out/docking_results/vina_output/3sx0/2149_docked.pdbqt
 OpenBabel03192223073D

 24 27  0  0  0  0  0  0  0  0999 V2000
   22.0570   64.5370   -7.1590 N   0  0  0  0  0  0  0  0  0  0  0  0
   20.8190   64.1530   -6.9160 N   0  0  0  0  0  0  0  0  0  0  0  0
   20.2800   63.5810   -7.9780 N   0  0  0  0  0  0  0  0  0  0  0  0
   21.1800   63.5800   -8.9610 C   0  0  0  0  0  0  0  0  0  0  0  0
   22.3060   64.1850   -8.4450 C   0  0  0  0  0  0  0  0  0  0  0  0
   23.3720   64.3100   -9.2480 N   0  0  0  0  0  0  0  0  0  0  0  0
   23.3420   63.8590  -10.5140 C   0  0  0  0  0  3  0  0  0  0  0  0
   22.2320   63.2720  -10.9950 N   0  0  0  0  0  0  0  0  0  0  0  0
   21.1010   63.0990  -10.2620 C   0  0  0  0  0  0  0  0  0  0  0  0
   22.9990   65.2050   -6.2620 C   0  0  0  0  0  2  0  0  0  0  0  0
   23.7060   64.1540   -5.4860 C   0  0  0  0  0  0  0  0  0  0  0  0
   23.2920   63.9240   -4.2030 C   0  0  0  0  0  3  0  0  0  0  0  0
   23.8950   62.9620   -3.4090 C   0  0  0  0  0  3  0  0  0  0  0  0
   24.9300   62.2230   -3.9230 C   0  0  0  0  0  0  0  0  0  0  0  0
   25.7110   60.9950   -2.9310 Cl  0  0  0  0  0  0  0  0  0  0  0  0
   25.3410   62.4620   -5.2180 C   0  0  0  0  0  3  0  0  0  0  0  0
   24.7430   63.4150   -6.0040 C   0  0  0  0  0  3  0  0  0  0  0  0
   19.9380   62.4850  -10.7610 N   0  0  0  0  0  0  0  0  0  0  0  0
   19.1800   61.4370  -10.1320 C   0  0  0  0  0  2  0  0  0  0  0  0
   17.7960   61.9270   -9.9140 C   0  0  0  0  0  2  0  0  0  0  0  0
   17.3690   63.0500  -10.6370 N   0  0  0  0  0  0  0  0  0  0  0  0
   18.0370   63.4430  -11.8030 C   0  0  0  0  0  2  0  0  0  0  0  0
   17.2590   64.1850   -9.7380 C   0  0  0  0  0  1  0  0  0  0  0  0
   19.4010   62.9070  -12.0310 C   0  0  0  0  0  2  0  0  0  0  0  0
  1  2  1  0  0  0  0
  1 10  1  0  0  0  0
  3  2  2  0  0  0  0
  4  5  1  0  0  0  0
  4  3  1  0  0  0  0
  5  1  1  0  0  0  0
  6  5  2  0  0  0  0
  7  6  1  0  0  0  0
  8  7  2  0  0  0  0
  8  9  1  0  0  0  0
  9  4  2  0  0  0  0
 10 11  1  0  0  0  0
 11 12  1  0  0  0  0
 12 13  2  0  0  0  0
 14 13  1  0  0  0  0
 14 15  1  0  0  0  0
 16 14  2  0  0  0  0
 17 11  2  0  0  0  0
 17 16  1  0  0  0  0
 18  9  1  0  0  0  0
 18 19  1  0  0  0  0
 19 20  1  0  0  0  0
 21 20  1  0  0  0  0
 21 23  1  0  0  0  0
 22 21  1  0  0  0  0
 24 22  1  0  0  0  0
 24 18  1  0  0  0  0
M  END
>  <Pose>
1

>  <Score>
-8.156

$$$$
