MODEL 1
REMARK VINA RESULT:    -8.038      0.000      0.000
REMARK INTER + INTRA:          -8.748
REMARK INTER:                  -8.978
REMARK INTRA:                   0.230
REMARK UNBOUND:                 0.230
REMARK  2 active torsions:
REMARK  status: ('A' for Active; 'I' for Inactive)
REMARK    1  A    between atoms: C_10  and  N_11 
REMARK    2  A    between atoms: N_14  and  C_17 
ROOT
ATOM      1  N   UNK d   1      16.876  63.322 -10.771  0.00  0.00    -0.384 N 
ATOM      2  C   UNK d   1      16.147  62.086 -10.927  0.00  0.00     0.142 C 
ATOM      3  C   UNK d   1      14.677  62.411 -10.983  0.00  0.00     0.144 C 
ATOM      4  N   UNK d   1      14.372  63.540 -11.839  0.00  0.00    -0.362 N 
ATOM      5  C   UNK d   1      15.143  64.758 -11.690  0.00  0.00     0.144 C 
ATOM      6  C   UNK d   1      16.606  64.399 -11.697  0.00  0.00     0.142 C 
ENDROOT
BRANCH   1   7
ATOM      7  C   UNK d   1      17.826  63.406  -9.717  0.00  0.00     0.134 C 
ATOM      8  C   UNK d   1      19.129  63.375  -9.871  0.00  0.00     0.124 A 
ATOM      9  N   UNK d   1      19.750  63.253 -11.147  0.00  0.00    -0.340 N 
ATOM     10  N   UNK d   1      19.974  63.467  -8.735  0.00  0.00    -0.308 N 
ATOM     11  C   UNK d   1      21.154  63.217 -11.351  0.00  0.00     0.049 A 
ATOM     12  H   UNK d   1      19.116  63.187 -11.971  0.00  0.00     0.167 HD
ATOM     13  C   UNK d   1      21.984  63.305 -10.251  0.00  0.00     0.060 A 
ATOM     14  C   UNK d   1      21.760  63.099 -12.584  0.00  0.00     0.032 A 
ATOM     15  C   UNK d   1      23.351  63.276 -10.387  0.00  0.00     0.043 A 
ATOM     16  C   UNK d   1      21.370  63.434  -8.914  0.00  0.00     0.259 A 
ATOM     17  C   UNK d   1      23.938  63.157 -11.627  0.00  0.00     0.035 A 
ATOM     18 Cl   UNK d   1      25.700  63.124 -11.758  0.00  0.00    -0.084 Cl
ATOM     19  C   UNK d   1      23.127  63.068 -12.736  0.00  0.00     0.026 A 
ATOM     20  O   UNK d   1      22.190  63.510  -7.942  0.00  0.00    -0.267 OA
ATOM     21  H   UNK d   1      19.594  63.559  -7.766  0.00  0.00     0.170 HD
ENDBRANCH   1   7
BRANCH   4  22
ATOM     22  C   UNK d   1      13.325  63.438 -12.807  0.00  0.00     0.142 A 
ATOM     23  N   UNK d   1      12.751  62.237 -13.019  0.00  0.00    -0.224 NA
ATOM     24  C   UNK d   1      11.750  62.095 -13.933  0.00  0.00     0.237 A 
ATOM     25  N   UNK d   1      11.313  63.155 -14.647  0.00  0.00    -0.222 NA
ATOM     26  C   UNK d   1      11.843  64.371 -14.482  0.00  0.00     0.162 A 
ATOM     27  N   UNK d   1      11.604  65.569 -15.045  0.00  0.00    -0.256 N 
ATOM     28  C   UNK d   1      12.867  64.500 -13.542  0.00  0.00     0.076 A 
ATOM     29  N   UNK d   1      12.435  66.437 -14.495  0.00  0.00    -0.182 NA
ATOM     30  C   UNK d   1      10.613  65.887 -16.078  0.00  0.00     0.182 C 
ATOM     31  C   UNK d   1      13.220  65.812 -13.572  0.00  0.00     0.158 A 
ENDBRANCH   4  22
TORSDOF 2
ENDMDL
