/Users/jonathanwahrer/Desktop/Msc/3_Semester/Drug_Design_Praktikum/waehrer_HTS_screening/HTS_experiment/out/docking_results/vina_output/3sx0/2177_docked.pdbqt
 OpenBabel03192223083D

 31 35  0  0  0  0  0  0  0  0999 V2000
   16.8760   63.3220  -10.7710 N   0  0  0  0  0  0  0  0  0  0  0  0
   16.1470   62.0860  -10.9270 C   0  0  0  0  0  2  0  0  0  0  0  0
   14.6770   62.4110  -10.9830 C   0  0  0  0  0  2  0  0  0  0  0  0
   14.3720   63.5400  -11.8390 N   0  0  0  0  0  0  0  0  0  0  0  0
   15.1430   64.7580  -11.6900 C   0  0  0  0  0  2  0  0  0  0  0  0
   16.6060   64.3990  -11.6970 C   0  0  0  0  0  2  0  0  0  0  0  0
   17.8260   63.4060   -9.7170 C   0  0  0  0  0  3  0  0  0  0  0  0
   19.1290   63.3750   -9.8710 C   0  0  0  0  0  0  0  0  0  0  0  0
   19.7500   63.2530  -11.1470 N   0  0  0  0  0  0  0  0  0  0  0  0
   19.9740   63.4670   -8.7350 N   0  0  0  0  0  0  0  0  0  0  0  0
   21.1540   63.2170  -11.3510 C   0  0  0  0  0  0  0  0  0  0  0  0
   19.1160   63.1870  -11.9710 H   0  0  0  0  0  0  0  0  0  0  0  0
   21.9840   63.3050  -10.2510 C   0  0  0  0  0  0  0  0  0  0  0  0
   21.7600   63.0990  -12.5840 C   0  0  0  0  0  3  0  0  0  0  0  0
   23.3510   63.2760  -10.3870 C   0  0  0  0  0  3  0  0  0  0  0  0
   21.3700   63.4340   -8.9140 C   0  0  0  0  0  0  0  0  0  0  0  0
   23.9380   63.1570  -11.6270 C   0  0  0  0  0  0  0  0  0  0  0  0
   25.7000   63.1240  -11.7580 Cl  0  0  0  0  0  0  0  0  0  0  0  0
   23.1270   63.0680  -12.7360 C   0  0  0  0  0  3  0  0  0  0  0  0
   22.1900   63.5100   -7.9420 O   0  0  0  0  0  0  0  0  0  0  0  0
   19.5940   63.5590   -7.7660 H   0  0  0  0  0  0  0  0  0  0  0  0
   13.3250   63.4380  -12.8070 C   0  0  0  0  0  0  0  0  0  0  0  0
   12.7510   62.2370  -13.0190 N   0  0  0  0  0  0  0  0  0  0  0  0
   11.7500   62.0950  -13.9330 C   0  0  0  0  0  3  0  0  0  0  0  0
   11.3130   63.1550  -14.6470 N   0  0  0  0  0  0  0  0  0  0  0  0
   11.8430   64.3710  -14.4820 C   0  0  0  0  0  0  0  0  0  0  0  0
   11.6040   65.5690  -15.0450 N   0  0  0  0  0  0  0  0  0  0  0  0
   12.8670   64.5000  -13.5420 C   0  0  0  0  0  0  0  0  0  0  0  0
   12.4350   66.4370  -14.4950 N   0  0  0  0  0  0  0  0  0  0  0  0
   10.6130   65.8870  -16.0780 C   0  0  0  0  0  1  0  0  0  0  0  0
   13.2200   65.8120  -13.5720 C   0  0  0  0  0  3  0  0  0  0  0  0
  1  7  1  0  0  0  0
  2  1  1  0  0  0  0
  3  2  1  0  0  0  0
  4  5  1  0  0  0  0
  4  3  1  0  0  0  0
  6  5  1  0  0  0  0
  6  1  1  0  0  0  0
  8  7  2  0  0  0  0
  8 10  1  0  0  0  0
  9  8  1  0  0  0  0
 10 21  1  0  0  0  0
 11  9  1  0  0  0  0
 11 13  1  0  0  0  0
 12  9  1  0  0  0  0
 13 16  1  0  0  0  0
 14 11  2  0  0  0  0
 15 13  2  0  0  0  0
 16 10  1  0  0  0  0
 16 20  2  0  0  0  0
 17 15  1  0  0  0  0
 18 17  1  0  0  0  0
 19 14  1  0  0  0  0
 19 17  2  0  0  0  0
 22  4  1  0  0  0  0
 23 22  1  0  0  0  0
 24 23  2  0  0  0  0
 25 26  2  0  0  0  0
 25 24  1  0  0  0  0
 26 28  1  0  0  0  0
 27 29  1  0  0  0  0
 27 26  1  0  0  0  0
 28 22  2  0  0  0  0
 29 31  2  0  0  0  0
 30 27  1  0  0  0  0
 31 28  1  0  0  0  0
M  END
>  <Pose>
1

>  <Score>
-8.038

$$$$
