/Users/jonathanwahrer/Desktop/Msc/3_Semester/Drug_Design_Praktikum/waehrer_HTS_screening/HTS_experiment/out/docking_results/vina_output/3sx0/2184_docked.pdbqt
 OpenBabel03192223083D

 29 32  0  0  0  0  0  0  0  0999 V2000
   20.2660   63.3030  -10.0450 N   0  0  0  0  0  4  0  0  0  0  0  0
   21.3330   62.6440   -9.4640 C   0  0  0  0  0  2  0  0  0  0  0  0
   22.5970   63.5700   -9.4270 C   0  0  0  0  0  2  0  0  0  0  0  0
   22.1110   64.5460   -8.3380 N   0  0  0  0  0  0  0  0  0  0  0  0
   21.0680   65.3320   -8.7840 C   0  0  0  0  0  2  0  0  0  0  0  0
   20.6300   64.7470  -10.1450 C   0  0  0  0  0  2  0  0  0  0  0  0
   20.2450   63.0260  -11.0790 H   0  0  0  0  0  0  0  0  0  0  0  0
   18.9390   63.2460   -9.6100 C   0  0  0  0  0  2  0  0  0  0  0  0
   18.1280   62.0210   -9.7040 C   0  0  0  0  0  0  0  0  0  0  0  0
   16.8790   62.2340  -10.3680 C   0  0  0  0  0  0  0  0  0  0  0  0
   16.5160   63.4860  -10.7240 C   0  0  0  0  0  3  0  0  0  0  0  0
   16.0590   61.1660  -10.6070 C   0  0  0  0  0  0  0  0  0  0  0  0
   15.3160   63.7270  -11.3370 C   0  0  0  0  0  0  0  0  0  0  0  0
   14.7450   65.3420  -11.7730 Cl  0  0  0  0  0  0  0  0  0  0  0  0
   14.4410   62.6720  -11.6130 C   0  0  0  0  0  0  0  0  0  0  0  0
   14.8180   61.4110  -11.2440 C   0  0  0  0  0  3  0  0  0  0  0  0
   13.2060   62.8790  -12.2690 O   0  0  0  0  0  1  0  0  0  0  0  0
   16.3630   59.9490  -10.2560 O   0  0  0  0  0  0  0  0  0  0  0  0
   17.5110   59.7020   -9.6350 C   0  0  0  0  0  0  0  0  0  0  0  0
   17.7790   58.5390   -9.3100 O   0  0  0  0  0  0  0  0  0  0  0  0
   18.4120   60.7480   -9.3490 C   0  0  0  0  0  3  0  0  0  0  0  0
   22.7900   64.3680   -7.1130 C   0  0  0  0  0  0  0  0  0  0  0  0
   22.3260   64.6750   -5.8820 C   0  0  0  0  0  3  0  0  0  0  0  0
   22.9820   64.2290   -4.6990 C   0  0  0  0  0  3  0  0  0  0  0  0
   24.1190   63.4670   -4.7540 C   0  0  0  0  0  0  0  0  0  0  0  0
   24.6100   63.1530   -6.0170 C   0  0  0  0  0  3  0  0  0  0  0  0
   23.9660   63.5950   -7.1630 C   0  0  0  0  0  3  0  0  0  0  0  0
   24.7240   63.0580   -3.5730 O   0  0  0  0  0  0  0  0  0  0  0  0
   25.6700   61.9770   -3.5640 C   0  0  0  0  0  1  0  0  0  0  0  0
  1  8  1  0  0  0  0
  1  2  1  0  0  0  0
  2  3  1  0  0  0  0
  3  4  1  0  0  0  0
  4 22  1  0  0  0  0
  5  4  1  0  0  0  0
  6  1  1  0  0  0  0
  6  5  1  0  0  0  0
  7  1  1  0  0  0  0
  9  8  1  0  0  0  0
  9 21  2  0  0  0  0
 10  9  1  0  0  0  0
 11 10  2  0  0  0  0
 12 10  1  0  0  0  0
 12 18  1  0  0  0  0
 13 11  1  0  0  0  0
 14 13  1  0  0  0  0
 15 13  2  0  0  0  0
 15 16  1  0  0  0  0
 16 12  2  0  0  0  0
 17 15  1  0  0  0  0
 18 19  1  0  0  0  0
 19 21  1  0  0  0  0
 19 20  2  0  0  0  0
 22 23  1  0  0  0  0
 23 24  2  0  0  0  0
 25 24  1  0  0  0  0
 25 28  1  0  0  0  0
 26 25  2  0  0  0  0
 27 22  2  0  0  0  0
 27 26  1  0  0  0  0
 28 29  1  0  0  0  0
M  END
>  <Pose>
1

>  <Score>
-8.560

$$$$
