/Users/jonathanwahrer/Desktop/Msc/3_Semester/Drug_Design_Praktikum/waehrer_HTS_screening/HTS_experiment/out/docking_results/vina_output/3sx0/2195_docked.pdbqt
 OpenBabel03192223093D

 29 32  0  0  1  0  0  0  0  0999 V2000
   21.1380   64.1270   -7.9490 C   0  0  0  0  0  0  0  0  0  0  0  0
   20.1310   63.4270   -8.4670 N   0  0  0  0  0  0  0  0  0  0  0  0
   20.1260   63.0350   -9.7530 C   0  0  0  0  0  0  0  0  0  0  0  0
   19.2490   62.3290  -10.5180 N   0  0  0  0  0  0  0  0  0  0  0  0
   19.7820   62.2530  -11.7190 N   0  0  0  0  0  0  0  0  0  0  0  0
   20.9490   62.8680  -11.7700 N   0  0  0  0  0  0  0  0  0  0  0  0
   21.2050   63.3740  -10.5580 C   0  0  0  0  0  0  0  0  0  0  0  0
   22.2590   64.1010  -10.0330 C   0  0  0  0  0  0  0  0  0  0  0  0
   22.1670   64.4440   -8.7420 N   0  0  0  0  0  0  0  0  0  0  0  0
   21.1820   64.5720   -6.5290 C   0  0  1  0  0  3  0  0  0  0  0  0
   22.0340   63.7690   -5.6500 C   0  0  0  0  0  2  0  0  0  0  0  0
   23.2440   64.2660   -5.1720 N   0  0  0  0  0  0  0  0  0  0  0  0
   23.8070   65.4250   -5.6880 C   0  0  0  0  0  2  0  0  0  0  0  0
   23.0360   66.1250   -6.7690 C   0  0  0  0  0  2  0  0  0  0  0  0
   21.5780   66.0250   -6.4950 C   0  0  0  0  0  2  0  0  0  0  0  0
   24.2920   63.0920   -4.5410 S   0  0  0  0  0  0  0  0  0  0  0  0
   25.0710   62.3750   -5.5870 O   0  0  0  0  0  0  0  0  0  0  0  0
   23.4670   62.1150   -3.7280 O   0  0  0  0  0  0  0  0  0  0  0  0
   25.4480   63.8230   -3.3720 C   0  0  0  0  0  1  0  0  0  0  0  0
   23.3460   64.4500  -10.8230 O   0  0  0  0  0  0  0  0  0  0  0  0
   23.2350   65.1180  -11.5710 H   0  0  0  0  0  0  0  0  0  0  0  0
   17.9990   61.7830  -10.0910 C   0  0  0  0  0  2  0  0  0  0  0  0
   16.8430   62.6780  -10.3400 C   0  0  0  0  0  0  0  0  0  0  0  0
   15.6420   62.1130  -10.6870 C   0  0  0  0  0  0  0  0  0  0  0  0
   14.5060   62.8800  -10.9390 C   0  0  0  0  0  3  0  0  0  0  0  0
   15.4930   60.3740  -10.8270 Cl  0  0  0  0  0  0  0  0  0  0  0  0
   14.5690   64.2540  -10.8420 C   0  0  0  0  0  3  0  0  0  0  0  0
   15.7720   64.8270  -10.4940 C   0  0  0  0  0  3  0  0  0  0  0  0
   16.9010   64.0500  -10.2450 C   0  0  0  0  0  3  0  0  0  0  0  0
  2  1  2  0  0  0  0
  3  2  1  0  0  0  0
  4 22  1  0  0  0  0
  4  3  1  0  0  0  0
  5  4  1  0  0  0  0
  6  5  2  0  0  0  0
  6  7  1  0  0  0  0
  7  8  1  0  0  0  0
  7  3  2  0  0  0  0
  8  9  2  0  0  0  0
  9  1  1  0  0  0  0
 10  1  1  6  0  0  0
 10 15  1  0  0  0  0
 10 11  1  0  0  0  0
 11 12  1  0  0  0  0
 12 16  1  0  0  0  0
 13 12  1  0  0  0  0
 14 15  1  0  0  0  0
 14 13  1  0  0  0  0
 16 18  2  0  0  0  0
 16 19  1  0  0  0  0
 17 16  2  0  0  0  0
 20  8  1  0  0  0  0
 21 20  1  0  0  0  0
 23 29  1  0  0  0  0
 23 22  1  0  0  0  0
 24 23  2  0  0  0  0
 25 27  2  0  0  0  0
 25 24  1  0  0  0  0
 26 24  1  0  0  0  0
 27 28  1  0  0  0  0
 28 29  2  0  0  0  0
M  END
>  <Pose>
1

>  <Score>
-9.454

$$$$
