MODEL 1
REMARK VINA RESULT:    43.961      0.000      0.000
REMARK INTER + INTRA:          60.282
REMARK INTER:                  60.666
REMARK INTRA:                  -0.383
REMARK UNBOUND:                -0.383
REMARK  7 active torsions:
REMARK  status: ('A' for Active; 'I' for Inactive)
REMARK    1  A    between atoms: C_4  and  C_10 
REMARK    2  A    between atoms: C_5  and  O_8 
REMARK    3  A    between atoms: C_18  and  C_19 
REMARK    4  A    between atoms: C_19  and  N_20 
REMARK    5  A    between atoms: N_23  and  C_26 
REMARK    6  A    between atoms: C_26  and  C_27 
REMARK    7  A    between atoms: C_27  and  O_28 
ROOT
ATOM      1  C   UNK d   1      14.684  66.063 -15.882  0.00  0.00     0.055 C 
ATOM      2  C   UNK d   1      14.045  67.221 -16.096  0.00  0.00     0.128 A 
ATOM      3  O   UNK d   1      12.806  67.538 -15.550  0.00  0.00    -0.305 OA
ATOM      4  C   UNK d   1      12.454  68.832 -15.956  0.00  0.00     0.101 A 
ATOM      5  C   UNK d   1      13.397  69.400 -16.756  0.00  0.00     0.051 A 
ATOM      6  C   UNK d   1      13.262  70.677 -17.248  0.00  0.00     0.021 A 
ATOM      7  C   UNK d   1      12.134  71.425 -16.929  0.00  0.00     0.041 A 
ATOM      8  C   UNK d   1      11.169  70.836 -16.109  0.00  0.00     0.118 A 
ATOM      9  C   UNK d   1      11.306  69.574 -15.629  0.00  0.00     0.039 A 
ATOM     10  O   UNK d   1      10.070  71.649 -15.837  0.00  0.00    -0.191 OA
ATOM     11  C   UNK d   1      14.465  68.364 -16.878  0.00  0.00     0.218 A 
ATOM     12  O   UNK d   1      15.513  68.458 -17.530  0.00  0.00    -0.284 OA
ENDROOT
BRANCH   9  13
ATOM     13  C   UNK d   1      10.248  68.822 -14.921  0.00  0.00     0.279 C 
BRANCH  13  14
ATOM     14  N   UNK d   1       9.421  68.091 -15.761  0.00  0.00    -0.064 N 
ATOM     15  C   UNK d   1      10.099  67.728 -17.045  0.00  0.00     0.254 C 
ATOM     16  C   UNK d   1       9.817  66.213 -17.202  0.00  0.00     0.144 C 
ATOM     17  N   UNK d   1       8.761  65.835 -16.317  0.00  0.00    -0.407 N 
ATOM     18  C   UNK d   1       7.623  66.669 -16.332  0.00  0.00     0.144 C 
ATOM     19  C   UNK d   1       8.058  68.164 -16.005  0.00  0.00     0.254 C 
ATOM     20  H   UNK d   1       9.553  67.072 -15.249  0.00  0.00     0.280 HD
BRANCH  17  21
ATOM     21  C   UNK d   1       8.917  64.726 -15.516  0.00  0.00     0.143 C 
BRANCH  21  22
ATOM     22  C   UNK d   1       9.737  64.800 -14.268  0.00  0.00     0.183 C 
BRANCH  22  23
ATOM     23  O   UNK d   1       9.633  66.067 -13.671  0.00  0.00    -0.399 OA
ATOM     24  H   UNK d   1       9.275  65.954 -12.730  0.00  0.00     0.209 HD
ENDBRANCH  22  23
ENDBRANCH  21  22
ENDBRANCH  17  21
ENDBRANCH  13  14
ENDBRANCH   9  13
BRANCH   1  25
ATOM     25  C   UNK d   1      13.983  65.119 -14.996  0.00  0.00     0.001 A 
ATOM     26  C   UNK d   1      14.259  65.121 -13.675  0.00  0.00     0.033 A 
ATOM     27  C   UNK d   1      13.654  64.153 -12.857  0.00  0.00     0.011 A 
ATOM     28 Br   UNK d   1      14.023  64.132 -10.988  0.00  0.00    -0.051 Br
ATOM     29  C   UNK d   1      12.796  63.209 -13.366  0.00  0.00     0.022 A 
ATOM     30  C   UNK d   1      12.541  63.233 -14.723  0.00  0.00     0.039 A 
ATOM     31  C   UNK d   1      13.132  64.193 -15.557  0.00  0.00     0.078 A 
BRANCH  31  32
ATOM     32  O   UNK d   1      12.878  64.219 -16.921  0.00  0.00    -0.355 OA
ATOM     33  C   UNK d   1      12.030  63.373 -17.616  0.00  0.00     0.210 C 
ENDBRANCH  31  32
ENDBRANCH   1  25
TORSDOF 7
ENDMDL
