/Users/jonathanwahrer/Desktop/Msc/3_Semester/Drug_Design_Praktikum/waehrer_HTS_screening/HTS_experiment/out/docking_results/vina_output/3sx0/2210_docked.pdbqt
 OpenBabel03192223093D

 33 36  0  0  0  0  0  0  0  0999 V2000
   14.6840   66.0630  -15.8820 C   0  0  0  0  0  3  0  0  0  0  0  0
   14.0450   67.2210  -16.0960 C   0  0  0  0  0  0  0  0  0  0  0  0
   12.8060   67.5380  -15.5500 O   0  0  0  0  0  0  0  0  0  0  0  0
   12.4540   68.8320  -15.9560 C   0  0  0  0  0  0  0  0  0  0  0  0
   13.3970   69.4000  -16.7560 C   0  0  0  0  0  0  0  0  0  0  0  0
   13.2620   70.6770  -17.2480 C   0  0  0  0  0  3  0  0  0  0  0  0
   12.1340   71.4250  -16.9290 C   0  0  0  0  0  3  0  0  0  0  0  0
   11.1690   70.8360  -16.1090 C   0  0  0  0  0  0  0  0  0  0  0  0
   11.3060   69.5740  -15.6290 C   0  0  0  0  0  0  0  0  0  0  0  0
   10.0700   71.6490  -15.8370 O   0  0  0  0  0  1  0  0  0  0  0  0
   14.4650   68.3640  -16.8780 C   0  0  0  0  0  0  0  0  0  0  0  0
   15.5130   68.4580  -17.5300 O   0  0  0  0  0  0  0  0  0  0  0  0
   10.2480   68.8220  -14.9210 C   0  0  0  0  0  2  0  0  0  0  0  0
    9.4210   68.0910  -15.7610 N   0  0  0  0  0  4  0  0  0  0  0  0
   10.0990   67.7280  -17.0450 C   0  0  0  0  0  2  0  0  0  0  0  0
    9.8170   66.2130  -17.2020 C   0  0  0  0  0  2  0  0  0  0  0  0
    8.7610   65.8350  -16.3170 N   0  0  0  0  0  0  0  0  0  0  0  0
    7.6230   66.6690  -16.3320 C   0  0  0  0  0  2  0  0  0  0  0  0
    8.0580   68.1640  -16.0050 C   0  0  0  0  0  2  0  0  0  0  0  0
    9.5530   67.0720  -15.2490 H   0  0  0  0  0  0  0  0  0  0  0  0
    8.9170   64.7260  -15.5160 C   0  0  0  0  0  2  0  0  0  0  0  0
    9.7370   64.8000  -14.2680 C   0  0  0  0  0  2  0  0  0  0  0  0
    9.6330   66.0670  -13.6710 O   0  0  0  0  0  0  0  0  0  0  0  0
    9.2750   65.9540  -12.7300 H   0  0  0  0  0  0  0  0  0  0  0  0
   13.9830   65.1190  -14.9960 C   0  0  0  0  0  0  0  0  0  0  0  0
   14.2590   65.1210  -13.6750 C   0  0  0  0  0  3  0  0  0  0  0  0
   13.6540   64.1530  -12.8570 C   0  0  0  0  0  0  0  0  0  0  0  0
   14.0230   64.1320  -10.9880 Br  0  0  0  0  0  0  0  0  0  0  0  0
   12.7960   63.2090  -13.3660 C   0  0  0  0  0  3  0  0  0  0  0  0
   12.5410   63.2330  -14.7230 C   0  0  0  0  0  3  0  0  0  0  0  0
   13.1320   64.1930  -15.5570 C   0  0  0  0  0  0  0  0  0  0  0  0
   12.8780   64.2190  -16.9210 O   0  0  0  0  0  0  0  0  0  0  0  0
   12.0300   63.3730  -17.6160 C   0  0  0  0  0  1  0  0  0  0  0  0
  1 25  1  0  0  0  0
  2  1  2  0  0  0  0
  2  3  1  0  0  0  0
  4  9  1  0  0  0  0
  4  3  1  0  0  0  0
  5  4  2  0  0  0  0
  6  7  2  0  0  0  0
  6  5  1  0  0  0  0
  7  8  1  0  0  0  0
  8 10  1  0  0  0  0
  8  9  2  0  0  0  0
  9 13  1  0  0  0  0
 11  5  1  0  0  0  0
 11  2  1  0  0  0  0
 12 11  2  0  0  0  0
 14 20  1  0  0  0  0
 14 13  1  0  0  0  0
 15 14  1  0  0  0  0
 16 15  1  0  0  0  0
 16 17  1  0  0  0  0
 17 21  1  0  0  0  0
 18 17  1  0  0  0  0
 18 19  1  0  0  0  0
 19 14  1  0  0  0  0
 21 22  1  0  0  0  0
 22 23  1  0  0  0  0
 23 24  1  0  0  0  0
 25 26  1  0  0  0  0
 26 27  2  0  0  0  0
 27 28  1  0  0  0  0
 29 27  1  0  0  0  0
 30 29  2  0  0  0  0
 31 25  2  0  0  0  0
 31 30  1  0  0  0  0
 32 31  1  0  0  0  0
 33 32  1  0  0  0  0
M  END
>  <Pose>
1

>  <Score>
43.961

$$$$
