MODEL 1
REMARK VINA RESULT:    -3.774      0.000      0.000
REMARK INTER + INTRA:          -3.622
REMARK INTER:                  -3.994
REMARK INTRA:                   0.373
REMARK UNBOUND:                 0.373
REMARK  1 active torsions:
REMARK  status: ('A' for Active; 'I' for Inactive)
REMARK    1  A    between atoms: C_9  and  C_21 
ROOT
ATOM      1 Cl   UNK d   1      14.066  60.848 -11.841  0.00  0.00    -0.081 Cl
ATOM      2  C   UNK d   1      13.997  62.590 -11.991  0.00  0.00     0.070 A 
ATOM      3  C   UNK d   1      13.059  63.141 -12.876  0.00  0.00     0.107 A 
ATOM      4  C   UNK d   1      12.981  64.502 -13.016  0.00  0.00    -0.007 A 
ATOM      5  C   UNK d   1      13.860  65.275 -12.250  0.00  0.00     0.035 A 
ATOM      6  C   UNK d   1      14.777  64.722 -11.384  0.00  0.00     0.036 A 
ATOM      7  C   UNK d   1      14.860  63.350 -11.239  0.00  0.00     0.050 A 
ATOM      8 Cl   UNK d   1      15.873  65.716 -10.431  0.00  0.00    -0.084 Cl
ATOM      9  C   UNK d   1      12.029  65.165 -13.920  0.00  0.00     0.107 A 
ATOM     10  C   UNK d   1      11.197  64.178 -14.630  0.00  0.00     0.075 A 
ATOM     11  C   UNK d   1      11.291  62.831 -14.477  0.00  0.00     0.167 A 
ATOM     12  N   UNK d   1      10.494  61.958 -15.161  0.00  0.00    -0.283 N 
ATOM     13  C   UNK d   1       9.601  62.472 -16.003  0.00  0.00     0.332 A 
ATOM     14  O   UNK d   1       8.837  61.699 -16.663  0.00  0.00    -0.246 OA
ATOM     15  N   UNK d   1       9.474  63.802 -16.186  0.00  0.00    -0.270 N 
ATOM     16  C   UNK d   1      10.249  64.666 -15.521  0.00  0.00     0.262 A 
ATOM     17  O   UNK d   1      10.130  65.906 -15.690  0.00  0.00    -0.267 OA
ATOM     18  C   UNK d   1       8.476  64.301 -17.121  0.00  0.00     0.164 C 
ATOM     19  C   UNK d   1      10.621  60.529 -14.974  0.00  0.00     0.163 C 
ATOM     20  O   UNK d   1      12.216  62.323 -13.606  0.00  0.00    -0.290 OA
ENDROOT
BRANCH   9  21
ATOM     21  C   UNK d   1      12.732  66.082 -14.877  0.00  0.00     0.078 A 
ATOM     22  C   UNK d   1      12.498  67.436 -14.892  0.00  0.00     0.197 A 
ATOM     23  N   UNK d   1      13.103  68.280 -15.742  0.00  0.00    -0.281 N 
ATOM     24  O   UNK d   1      11.597  67.959 -13.987  0.00  0.00    -0.171 OA
ATOM     25  C   UNK d   1      13.982  67.768 -16.625  0.00  0.00     0.332 A 
ATOM     26  C   UNK d   1      12.839  69.706 -15.730  0.00  0.00     0.163 C 
ATOM     27  O   UNK d   1      14.546  68.573 -17.424  0.00  0.00    -0.246 OA
ATOM     28  N   UNK d   1      14.241  66.449 -16.647  0.00  0.00    -0.270 N 
ATOM     29  C   UNK d   1      13.648  65.590 -15.805  0.00  0.00     0.262 A 
ATOM     30  C   UNK d   1      15.190  65.949 -17.614  0.00  0.00     0.164 C 
ATOM     31  O   UNK d   1      13.869  64.356 -15.802  0.00  0.00    -0.267 OA
ENDBRANCH   9  21
TORSDOF 1
ENDMDL
