MODEL 1
REMARK VINA RESULT:    -6.814      0.000      0.000
REMARK INTER + INTRA:          -8.882
REMARK INTER:                  -8.407
REMARK INTRA:                  -0.475
REMARK UNBOUND:                -0.475
REMARK  4 active torsions:
REMARK  status: ('A' for Active; 'I' for Inactive)
REMARK    1  A    between atoms: C_13  and  C_27 
REMARK    2  A    between atoms: N_18  and  C_21 
REMARK    3  A    between atoms: C_21  and  C_22 
REMARK    4  A    between atoms: C_27  and  C_28 
REMARK       I    between atoms: C_28  and  N_30 
ROOT
ATOM      1 Cl   UNK d   1      25.747  62.643  -5.739  0.00  0.00    -0.084 Cl
ATOM      2  C   UNK d   1      24.301  63.500  -6.227  0.00  0.00     0.034 A 
ATOM      3  C   UNK d   1      23.731  63.331  -7.459  0.00  0.00     0.036 A 
ATOM      4  C   UNK d   1      22.576  64.036  -7.807  0.00  0.00     0.019 A 
ATOM      5  C   UNK d   1      22.044  64.888  -6.886  0.00  0.00     0.044 A 
ATOM      6  C   UNK d   1      22.627  65.064  -5.620  0.00  0.00     0.032 A 
ATOM      7  C   UNK d   1      23.757  64.375  -5.280  0.00  0.00     0.026 A 
ATOM      8  N   UNK d   1      20.885  65.498  -7.444  0.00  0.00    -0.324 N 
ATOM      9  C   UNK d   1      20.682  65.015  -8.750  0.00  0.00     0.267 A 
ATOM     10  O   UNK d   1      19.724  65.380  -9.503  0.00  0.00    -0.270 OA
ATOM     11  C   UNK d   1      21.756  64.057  -9.031  0.00  0.00     0.279 A 
ATOM     12  N   UNK d   1      22.622  64.495 -10.103  0.00  0.00     0.114 N 
ATOM     13  C   UNK d   1      22.523  63.597 -11.210  0.00  0.00     0.245 C 
ATOM     14  C   UNK d   1      21.392  62.700 -10.892  0.00  0.00     0.128 C 
ATOM     15  C   UNK d   1      21.236  62.688  -9.397  0.00  0.00     0.147 C 
ATOM     16  C   UNK d   1      19.771  62.569  -9.227  0.00  0.00     0.235 C 
ATOM     17  O   UNK d   1      19.130  62.192  -8.214  0.00  0.00    -0.272 OA
ATOM     18  N   UNK d   1      19.105  62.963 -10.446  0.00  0.00    -0.285 N 
ATOM     19  C   UNK d   1      20.123  63.361 -11.357  0.00  0.00     0.233 C 
ATOM     20  O   UNK d   1      19.950  64.115 -12.342  0.00  0.00    -0.272 OA
ATOM     21  H   UNK d   1      20.253  66.209  -6.966  0.00  0.00     0.169 HD
ATOM     22  H   UNK d   1      23.626  64.545  -9.823  0.00  0.00     0.318 HD
ENDROOT
BRANCH  13  23
ATOM     23  C   UNK d   1      23.818  62.889 -11.506  0.00  0.00     0.139 C 
BRANCH  23  24
ATOM     24  C   UNK d   1      24.513  63.356 -12.691  0.00  0.00     0.217 C 
ATOM     25  O   UNK d   1      25.761  63.374 -12.721  0.00  0.00    -0.274 OA
ATOM     26  N   UNK d   1      23.799  63.796 -13.828  0.00  0.00    -0.370 N 
ATOM     27  H   UNK d   1      24.023  63.386 -14.764  0.00  0.00     0.159 HD
ATOM     28  H   UNK d   1      23.051  64.513 -13.806  0.00  0.00     0.159 HD
ENDBRANCH  23  24
ENDBRANCH  13  23
BRANCH  18  29
ATOM     29  C   UNK d   1      17.675  62.951 -10.672  0.00  0.00     0.166 C 
BRANCH  29  30
ATOM     30  C   UNK d   1      17.070  64.328 -10.714  0.00  0.00     0.140 C 
ATOM     31  O   UNK d   1      16.507  64.552 -11.968  0.00  0.00    -0.384 OA
ATOM     32  C   UNK d   1      15.189  64.164 -11.897  0.00  0.00     0.168 C 
ATOM     33  C   UNK d   1      14.726  64.329 -10.465  0.00  0.00     0.029 C 
ATOM     34  C   UNK d   1      16.011  64.572  -9.698  0.00  0.00     0.035 C 
ENDBRANCH  29  30
ENDBRANCH  18  29
TORSDOF 4
ENDMDL
