/Users/jonathanwahrer/Desktop/Msc/3_Semester/Drug_Design_Praktikum/waehrer_HTS_screening/HTS_experiment/out/docking_results/vina_output/3sx0/2214_docked.pdbqt
 OpenBabel03192223103D

 34 38  0  0  1  0  0  0  0  0999 V2000
   25.7470   62.6430   -5.7390 Cl  0  0  0  0  0  0  0  0  0  0  0  0
   24.3010   63.5000   -6.2270 C   0  0  0  0  0  0  0  0  0  0  0  0
   23.7310   63.3310   -7.4590 C   0  0  0  0  0  3  0  0  0  0  0  0
   22.5760   64.0360   -7.8070 C   0  0  0  0  0  0  0  0  0  0  0  0
   22.0440   64.8880   -6.8860 C   0  0  0  0  0  0  0  0  0  0  0  0
   22.6270   65.0640   -5.6200 C   0  0  0  0  0  3  0  0  0  0  0  0
   23.7570   64.3750   -5.2800 C   0  0  0  0  0  3  0  0  0  0  0  0
   20.8850   65.4980   -7.4440 N   0  0  0  0  0  0  0  0  0  0  0  0
   20.6820   65.0150   -8.7500 C   0  0  0  0  0  0  0  0  0  0  0  0
   19.7240   65.3800   -9.5030 O   0  0  0  0  0  0  0  0  0  0  0  0
   21.7560   64.0570   -9.0310 C   0  0  1  0  0  0  0  0  0  0  0  0
   22.6220   64.4950  -10.1030 N   0  0  0  0  0  0  0  0  0  0  0  0
   22.5230   63.5970  -11.2100 C   0  0  2  0  0  3  0  0  0  0  0  0
   21.3920   62.7000  -10.8920 C   0  0  1  0  0  3  0  0  0  0  0  0
   21.2360   62.6880   -9.3970 C   0  0  2  0  0  3  0  0  0  0  0  0
   19.7710   62.5690   -9.2270 C   0  0  0  0  0  0  0  0  0  0  0  0
   19.1300   62.1920   -8.2140 O   0  0  0  0  0  0  0  0  0  0  0  0
   19.1050   62.9630  -10.4460 N   0  0  0  0  0  0  0  0  0  0  0  0
   20.1230   63.3610  -11.3570 C   0  0  0  0  0  0  0  0  0  0  0  0
   19.9500   64.1150  -12.3420 O   0  0  0  0  0  0  0  0  0  0  0  0
   20.2530   66.2090   -6.9660 H   0  0  0  0  0  0  0  0  0  0  0  0
   23.6260   64.5450   -9.8230 H   0  0  0  0  0  0  0  0  0  0  0  0
   23.8180   62.8890  -11.5060 C   0  0  0  0  0  2  0  0  0  0  0  0
   24.5130   63.3560  -12.6910 C   0  0  0  0  0  0  0  0  0  0  0  0
   25.7610   63.3740  -12.7210 O   0  0  0  0  0  0  0  0  0  0  0  0
   23.7990   63.7960  -13.8280 N   0  0  0  0  0  0  0  0  0  0  0  0
   24.0230   63.3860  -14.7640 H   0  0  0  0  0  0  0  0  0  0  0  0
   23.0510   64.5130  -13.8060 H   0  0  0  0  0  0  0  0  0  0  0  0
   17.6750   62.9510  -10.6720 C   0  0  0  0  0  2  0  0  0  0  0  0
   17.0700   64.3280  -10.7140 C   0  0  1  0  0  3  0  0  0  0  0  0
   16.5070   64.5520  -11.9680 O   0  0  0  0  0  0  0  0  0  0  0  0
   15.1890   64.1640  -11.8970 C   0  0  0  0  0  2  0  0  0  0  0  0
   14.7260   64.3290  -10.4650 C   0  0  0  0  0  2  0  0  0  0  0  0
   16.0110   64.5720   -9.6980 C   0  0  0  0  0  2  0  0  0  0  0  0
  2  1  1  0  0  0  0
  2  7  1  0  0  0  0
  3  2  2  0  0  0  0
  4  3  1  0  0  0  0
  4  5  2  0  0  0  0
  5  6  1  0  0  0  0
  6  7  2  0  0  0  0
  8 21  1  0  0  0  0
  8  5  1  0  0  0  0
  9  8  1  0  0  0  0
 10  9  2  0  0  0  0
 11  9  1  1  0  0  0
 11  4  1  0  0  0  0
 12 22  1  0  0  0  0
 12 11  1  0  0  0  0
 13 23  1  1  0  0  0
 13 14  1  0  0  0  0
 13 12  1  0  0  0  0
 14 19  1  6  0  0  0
 14 15  1  0  0  0  0
 15 16  1  6  0  0  0
 15 11  1  0  0  0  0
 16 17  2  0  0  0  0
 18 16  1  0  0  0  0
 19 18  1  0  0  0  0
 20 19  2  0  0  0  0
 24 23  1  0  0  0  0
 25 24  2  0  0  0  0
 26 28  1  0  0  0  0
 26 24  1  0  0  0  0
 27 26  1  0  0  0  0
 29 18  1  0  0  0  0
 30 29  1  6  0  0  0
 30 34  1  0  0  0  0
 31 32  1  0  0  0  0
 31 30  1  0  0  0  0
 32 33  1  0  0  0  0
 33 34  1  0  0  0  0
M  END
>  <Pose>
1

>  <Score>
-6.814

$$$$
