/Users/jonathanwahrer/Desktop/Msc/3_Semester/Drug_Design_Praktikum/waehrer_HTS_screening/HTS_experiment/out/docking_results/vina_output/3sx0/2225_docked.pdbqt
 OpenBabel03192223103D

 29 32  0  0  0  0  0  0  0  0999 V2000
   20.7450   63.5210   -7.8710 C   0  0  0  0  0  0  0  0  0  0  0  0
   19.7490   63.4110   -7.0350 O   0  0  0  0  0  0  0  0  0  0  0  0
   21.9920   63.7170   -7.3000 N   0  0  0  0  0  0  0  0  0  0  0  0
   22.0670   63.7970   -5.8090 C   0  0  0  0  0  2  0  0  0  0  0  0
   23.0450   64.9040   -5.5050 C   0  0  0  0  0  2  0  0  0  0  0  0
   23.2260   65.8250   -6.6130 N   0  0  0  0  0  0  0  0  0  0  0  0
   23.7600   65.2870   -7.8350 C   0  0  0  0  0  2  0  0  0  0  0  0
   23.2770   63.8490   -7.9340 C   0  0  0  0  0  2  0  0  0  0  0  0
   22.8800   67.1850   -6.4670 C   0  0  0  0  0  0  0  0  0  0  0  0
   23.7870   68.1030   -6.0320 N   0  0  0  0  0  0  0  0  0  0  0  0
   23.5110   69.3910   -5.8830 C   0  0  0  0  0  0  0  0  0  0  0  0
   22.2500   69.7970   -6.1850 N   0  0  0  0  0  0  0  0  0  0  0  0
   21.3160   68.9670   -6.6120 C   0  0  0  0  0  3  0  0  0  0  0  0
   21.6120   67.6170   -6.7660 C   0  0  0  0  0  3  0  0  0  0  0  0
   24.4430   70.3570   -5.4320 N   0  0  0  0  0  0  0  0  0  0  0  0
   24.8260   71.4620   -6.3050 C   0  0  0  0  0  2  0  0  0  0  0  0
   26.3560   71.4280   -6.3430 C   0  0  0  0  0  2  0  0  0  0  0  0
   26.8620   71.6040   -5.0830 O   0  0  0  0  0  0  0  0  0  0  0  0
   26.5390   70.6140   -4.1860 C   0  0  0  0  0  2  0  0  0  0  0  0
   25.0580   70.3190   -4.1280 C   0  0  0  0  0  2  0  0  0  0  0  0
   20.3480   63.4130   -9.2880 C   0  0  0  0  0  2  0  0  0  0  0  0
   19.1380   63.2770   -9.6960 O   0  0  0  0  0  0  0  0  0  0  0  0
   17.9140   63.1100  -10.0810 C   0  0  0  0  0  0  0  0  0  0  0  0
   16.9720   64.1510  -10.2260 C   0  0  0  0  0  3  0  0  0  0  0  0
   15.6970   63.9100  -10.6380 C   0  0  0  0  0  3  0  0  0  0  0  0
   15.2450   62.6450  -10.9340 C   0  0  0  0  0  0  0  0  0  0  0  0
   13.6060   62.3540  -11.4580 Cl  0  0  0  0  0  0  0  0  0  0  0  0
   16.1480   61.6150  -10.7980 C   0  0  0  0  0  3  0  0  0  0  0  0
   17.4330   61.8200  -10.3900 C   0  0  0  0  0  3  0  0  0  0  0  0
  1  3  1  0  0  0  0
  1  2  2  0  0  0  0
  3  4  1  0  0  0  0
  4  5  1  0  0  0  0
  6  9  1  0  0  0  0
  6  5  1  0  0  0  0
  7  6  1  0  0  0  0
  8  7  1  0  0  0  0
  8  3  1  0  0  0  0
  9 10  1  0  0  0  0
 10 11  2  0  0  0  0
 11 15  1  0  0  0  0
 12 11  1  0  0  0  0
 13 12  2  0  0  0  0
 14 13  1  0  0  0  0
 14  9  2  0  0  0  0
 15 20  1  0  0  0  0
 16 15  1  0  0  0  0
 17 16  1  0  0  0  0
 17 18  1  0  0  0  0
 18 19  1  0  0  0  0
 19 20  1  0  0  0  0
 21  1  1  0  0  0  0
 22 21  1  0  0  0  0
 23 22  1  0  0  0  0
 24 23  1  0  0  0  0
 25 24  2  0  0  0  0
 26 28  2  0  0  0  0
 26 25  1  0  0  0  0
 27 26  1  0  0  0  0
 28 29  1  0  0  0  0
 29 23  2  0  0  0  0
M  END
>  <Pose>
1

>  <Score>
-7.244

$$$$
