MODEL 1
REMARK VINA RESULT:    -7.244      0.000      0.000
REMARK INTER + INTRA:         -10.069
REMARK INTER:                  -9.361
REMARK INTRA:                  -0.708
REMARK UNBOUND:                -0.708
REMARK  5 active torsions:
REMARK  status: ('A' for Active; 'I' for Inactive)
REMARK    1  A    between atoms: C_5  and  O_8 
REMARK    2  A    between atoms: O_8  and  C_9 
REMARK    3  A    between atoms: C_9  and  C_10 
REMARK       I    between atoms: C_10  and  N_12 
REMARK    4  A    between atoms: N_15  and  C_18 
REMARK    5  A    between atoms: C_20  and  N_24 
ROOT
ATOM      1  C   UNK d   1      20.745  63.521  -7.871  0.00  0.00     0.177 C 
ATOM      2  O   UNK d   1      19.749  63.411  -7.035  0.00  0.00    -0.175 OA
ATOM      3  N   UNK d   1      21.992  63.717  -7.300  0.00  0.00    -0.358 N 
ATOM      4  C   UNK d   1      22.067  63.797  -5.809  0.00  0.00     0.144 C 
ATOM      5  C   UNK d   1      23.045  64.904  -5.505  0.00  0.00     0.144 C 
ATOM      6  N   UNK d   1      23.226  65.825  -6.613  0.00  0.00    -0.362 N 
ATOM      7  C   UNK d   1      23.760  65.287  -7.835  0.00  0.00     0.144 C 
ATOM      8  C   UNK d   1      23.277  63.849  -7.934  0.00  0.00     0.144 C 
ENDROOT
BRANCH   6   9
ATOM      9  C   UNK d   1      22.880  67.185  -6.467  0.00  0.00     0.146 A 
ATOM     10  N   UNK d   1      23.787  68.103  -6.032  0.00  0.00    -0.045 NA
ATOM     11  C   UNK d   1      23.511  69.391  -5.883  0.00  0.00     0.726 A 
ATOM     12  N   UNK d   1      22.250  69.797  -6.185  0.00  0.00    -0.075 NA
ATOM     13  C   UNK d   1      21.316  68.967  -6.612  0.00  0.00     0.140 A 
ATOM     14  C   UNK d   1      21.612  67.617  -6.766  0.00  0.00     0.071 A 
BRANCH  11  15
ATOM     15  N   UNK d   1      24.443  70.357  -5.432  0.00  0.00    -0.210 N 
ATOM     16  C   UNK d   1      24.826  71.462  -6.305  0.00  0.00     0.167 C 
ATOM     17  C   UNK d   1      26.356  71.428  -6.343  0.00  0.00     0.188 C 
ATOM     18  O   UNK d   1      26.862  71.604  -5.083  0.00  0.00    -0.388 OA
ATOM     19  C   UNK d   1      26.539  70.614  -4.186  0.00  0.00     0.188 C 
ATOM     20  C   UNK d   1      25.058  70.319  -4.128  0.00  0.00     0.167 C 
ENDBRANCH  11  15
ENDBRANCH   6   9
BRANCH   1  21
ATOM     21  C   UNK d   1      20.348  63.413  -9.288  0.00  0.00     0.262 C 
BRANCH  21  22
ATOM     22  O   UNK d   1      19.138  63.277  -9.696  0.00  0.00    -0.343 OA
BRANCH  22  23
ATOM     23  C   UNK d   1      17.914  63.110 -10.081  0.00  0.00     0.069 A 
ATOM     24  C   UNK d   1      16.972  64.151 -10.226  0.00  0.00     0.038 A 
ATOM     25  C   UNK d   1      15.697  63.910 -10.638  0.00  0.00     0.026 A 
ATOM     26  C   UNK d   1      15.245  62.645 -10.934  0.00  0.00     0.034 A 
ATOM     27 Cl   UNK d   1      13.606  62.354 -11.458  0.00  0.00    -0.084 Cl
ATOM     28  C   UNK d   1      16.148  61.615 -10.798  0.00  0.00     0.026 A 
ATOM     29  C   UNK d   1      17.433  61.820 -10.390  0.00  0.00     0.038 A 
ENDBRANCH  22  23
ENDBRANCH  21  22
ENDBRANCH   1  21
TORSDOF 5
ENDMDL
