MODEL 1
REMARK VINA RESULT:    -8.638      0.000      0.000
REMARK INTER + INTRA:         -10.610
REMARK INTER:                 -10.153
REMARK INTRA:                  -0.457
REMARK UNBOUND:                -0.457
REMARK  3 active torsions:
REMARK  status: ('A' for Active; 'I' for Inactive)
REMARK    1  A    between atoms: C_7  and  N_8 
REMARK       I    between atoms: N_8  and  C_9 
REMARK    2  A    between atoms: C_9  and  C_11 
REMARK    3  A    between atoms: N_13  and  C_18 
ROOT
ATOM      1  N   UNK d   1      13.993  63.639 -13.002  0.00  0.00    -0.319 N 
ATOM      2  C   UNK d   1      14.230  63.490 -11.633  0.00  0.00     0.293 C 
ATOM      3  O   UNK d   1      13.606  64.120 -10.766  0.00  0.00    -0.264 OA
ATOM      4  H   UNK d   1      14.583  63.054 -13.674  0.00  0.00     0.169 HD
ENDROOT
BRANCH   2   5
ATOM      5  C   UNK d   1      15.268  62.541 -11.145  0.00  0.00     0.213 C 
ATOM      6  N   UNK d   1      16.474  62.981 -10.959  0.00  0.00    -0.141 NA
ATOM      7  N   UNK d   1      17.504  62.159 -10.505  0.00  0.00    -0.198 N 
ATOM      8  C   UNK d   1      17.228  60.803 -10.235  0.00  0.00     0.262 C 
ATOM      9  O   UNK d   1      18.180  60.112  -9.737  0.00  0.00    -0.269 OA
ATOM     10  C   UNK d   1      15.912  60.188 -10.506  0.00  0.00     0.226 C 
ATOM     11  N   UNK d   1      14.967  61.181 -10.880  0.00  0.00    -0.360 N 
ATOM     12  H   UNK d   1      13.956  60.901 -10.977  0.00  0.00     0.161 HD
BRANCH   7  13
ATOM     13  C   UNK d   1      18.840  62.685 -10.315  0.00  0.00     0.062 A 
ATOM     14  C   UNK d   1      19.311  63.017  -9.068  0.00  0.00     0.032 A 
ATOM     15  C   UNK d   1      20.608  63.518  -8.910  0.00  0.00     0.009 A 
ATOM     16  C   UNK d   1      21.438  63.691  -9.999  0.00  0.00    -0.062 A 
ATOM     17  C   UNK d   1      20.951  63.355 -11.241  0.00  0.00     0.009 A 
ATOM     18  C   UNK d   1      22.830  64.219  -9.883  0.00  0.00     0.048 C 
ATOM     19  C   UNK d   1      19.686  62.866 -11.387  0.00  0.00     0.032 A 
ENDBRANCH   7  13
ENDBRANCH   2   5
BRANCH   1  20
ATOM     20  C   UNK d   1      13.041  64.498 -13.565  0.00  0.00     0.059 A 
ATOM     21  C   UNK d   1      11.845  63.936 -14.020  0.00  0.00     0.063 A 
ATOM     22 Cl   UNK d   1      11.593  62.210 -13.883  0.00  0.00    -0.082 Cl
ATOM     23  C   UNK d   1      10.855  64.697 -14.576  0.00  0.00     0.058 A 
ATOM     24  C   UNK d   1      10.981  66.051 -14.716  0.00  0.00     0.070 A 
ATOM     25  C   UNK d   1      12.139  66.639 -14.281  0.00  0.00     0.098 A 
ATOM     26  N   UNK d   1       9.955  66.873 -15.285  0.00  0.00    -0.323 N 
ATOM     27  C   UNK d   1      13.153  65.852 -13.710  0.00  0.00     0.070 A 
ATOM     28  O   UNK d   1      12.348  68.012 -14.386  0.00  0.00    -0.340 OA
ATOM     29  C   UNK d   1      11.271  68.936 -14.597  0.00  0.00     0.278 C 
ATOM     30  C   UNK d   1      10.181  68.276 -15.375  0.00  0.00     0.246 C 
ATOM     31  O   UNK d   1       9.463  68.986 -16.116  0.00  0.00    -0.271 OA
ATOM     32  H   UNK d   1       9.067  66.454 -15.624  0.00  0.00     0.169 HD
ENDBRANCH   1  20
TORSDOF 3
ENDMDL
