/Users/jonathanwahrer/Desktop/Msc/3_Semester/Drug_Design_Praktikum/waehrer_HTS_screening/HTS_experiment/out/docking_results/vina_output/3sx0/2242_docked.pdbqt
 OpenBabel03192223103D

 32 35  0  0  0  0  0  0  0  0999 V2000
   13.9930   63.6390  -13.0020 N   0  0  0  0  0  0  0  0  0  0  0  0
   14.2300   63.4900  -11.6330 C   0  0  0  0  0  0  0  0  0  0  0  0
   13.6060   64.1200  -10.7660 O   0  0  0  0  0  0  0  0  0  0  0  0
   14.5830   63.0540  -13.6740 H   0  0  0  0  0  0  0  0  0  0  0  0
   15.2680   62.5410  -11.1450 C   0  0  0  0  0  0  0  0  0  0  0  0
   16.4740   62.9810  -10.9590 N   0  0  0  0  0  0  0  0  0  0  0  0
   17.5040   62.1590  -10.5050 N   0  0  0  0  0  0  0  0  0  0  0  0
   17.2280   60.8030  -10.2350 C   0  0  0  0  0  0  0  0  0  0  0  0
   18.1800   60.1120   -9.7370 O   0  0  0  0  0  0  0  0  0  0  0  0
   15.9120   60.1880  -10.5060 C   0  0  0  0  0  2  0  0  0  0  0  0
   14.9670   61.1810  -10.8800 N   0  0  0  0  0  0  0  0  0  0  0  0
   13.9560   60.9010  -10.9770 H   0  0  0  0  0  0  0  0  0  0  0  0
   18.8400   62.6850  -10.3150 C   0  0  0  0  0  0  0  0  0  0  0  0
   19.3110   63.0170   -9.0680 C   0  0  0  0  0  3  0  0  0  0  0  0
   20.6080   63.5180   -8.9100 C   0  0  0  0  0  3  0  0  0  0  0  0
   21.4380   63.6910   -9.9990 C   0  0  0  0  0  0  0  0  0  0  0  0
   20.9510   63.3550  -11.2410 C   0  0  0  0  0  3  0  0  0  0  0  0
   22.8300   64.2190   -9.8830 C   0  0  0  0  0  1  0  0  0  0  0  0
   19.6860   62.8660  -11.3870 C   0  0  0  0  0  3  0  0  0  0  0  0
   13.0410   64.4980  -13.5650 C   0  0  0  0  0  0  0  0  0  0  0  0
   11.8450   63.9360  -14.0200 C   0  0  0  0  0  0  0  0  0  0  0  0
   11.5930   62.2100  -13.8830 Cl  0  0  0  0  0  0  0  0  0  0  0  0
   10.8550   64.6970  -14.5760 C   0  0  0  0  0  3  0  0  0  0  0  0
   10.9810   66.0510  -14.7160 C   0  0  0  0  0  0  0  0  0  0  0  0
   12.1390   66.6390  -14.2810 C   0  0  0  0  0  0  0  0  0  0  0  0
    9.9550   66.8730  -15.2850 N   0  0  0  0  0  0  0  0  0  0  0  0
   13.1530   65.8520  -13.7100 C   0  0  0  0  0  3  0  0  0  0  0  0
   12.3480   68.0120  -14.3860 O   0  0  0  0  0  0  0  0  0  0  0  0
   11.2710   68.9360  -14.5970 C   0  0  0  0  0  2  0  0  0  0  0  0
   10.1810   68.2760  -15.3750 C   0  0  0  0  0  0  0  0  0  0  0  0
    9.4630   68.9860  -16.1160 O   0  0  0  0  0  0  0  0  0  0  0  0
    9.0670   66.4540  -15.6240 H   0  0  0  0  0  0  0  0  0  0  0  0
  1  2  1  0  0  0  0
  2  5  1  0  0  0  0
  2  3  2  0  0  0  0
  4  1  1  0  0  0  0
  5  6  2  0  0  0  0
  5 11  1  0  0  0  0
  6  7  1  0  0  0  0
  7 13  1  0  0  0  0
  7  8  1  0  0  0  0
  8  9  2  0  0  0  0
 10  8  1  0  0  0  0
 11 10  1  0  0  0  0
 12 11  1  0  0  0  0
 13 14  1  0  0  0  0
 14 15  2  0  0  0  0
 16 18  1  0  0  0  0
 16 15  1  0  0  0  0
 17 16  2  0  0  0  0
 19 17  1  0  0  0  0
 19 13  2  0  0  0  0
 20  1  1  0  0  0  0
 21 22  1  0  0  0  0
 21 20  2  0  0  0  0
 23 21  1  0  0  0  0
 24 23  2  0  0  0  0
 24 25  1  0  0  0  0
 25 27  2  0  0  0  0
 26 24  1  0  0  0  0
 27 20  1  0  0  0  0
 28 25  1  0  0  0  0
 29 28  1  0  0  0  0
 30 26  1  0  0  0  0
 30 29  1  0  0  0  0
 31 30  2  0  0  0  0
 32 26  1  0  0  0  0
M  END
>  <Pose>
1

>  <Score>
-8.638

$$$$
