/Users/jonathanwahrer/Desktop/Msc/3_Semester/Drug_Design_Praktikum/waehrer_HTS_screening/HTS_experiment/out/docking_results/vina_output/3sx0/2266_docked.pdbqt
 OpenBabel03192223113D

 27 30  0  0  1  0  0  0  0  0999 V2000
   17.8060   62.7390  -10.4890 N   0  0  0  0  0  0  0  0  0  0  0  0
   17.1060   61.5230  -10.6030 C   0  0  0  0  0  2  0  0  0  0  0  0
   15.6210   61.6410  -10.3230 C   0  0  0  0  0  2  0  0  0  0  0  0
   15.1220   62.7420  -11.2000 C   0  0  1  0  0  3  0  0  0  0  0  0
   15.8680   63.9030  -11.2170 C   0  0  0  0  0  0  0  0  0  0  0  0
   15.4760   64.9230  -11.9800 N   0  0  0  0  0  0  0  0  0  0  0  0
   14.3540   64.7810  -12.7140 C   0  0  2  0  0  3  0  0  0  0  0  0
   13.6110   63.6610  -12.7160 N   0  0  0  0  0  0  0  0  0  0  0  0
   12.5550   63.8070  -13.5380 N   0  0  0  0  0  0  0  0  0  0  0  0
   12.5760   65.0250  -14.1000 C   0  0  0  0  0  3  0  0  0  0  0  0
   13.6940   65.6470  -13.5960 C   0  0  0  0  0  3  0  0  0  0  0  0
   13.9780   62.6060  -11.9540 C   0  0  0  0  0  0  0  0  0  0  0  0
   13.3240   61.5330  -11.9130 O   0  0  0  0  0  0  0  0  0  0  0  0
   17.0810   63.9350  -10.3650 C   0  0  0  0  0  2  0  0  0  0  0  0
   11.8400   63.0610  -13.6970 H   0  0  0  0  0  0  0  0  0  0  0  0
   19.3900   62.7920  -11.0400 S   0  0  0  0  0  0  0  0  0  0  0  0
   19.8350   61.4570  -11.6200 O   0  0  0  0  0  0  0  0  0  0  0  0
   19.4410   63.7510  -12.2250 O   0  0  0  0  0  0  0  0  0  0  0  0
   20.5880   63.2760   -9.9040 C   0  0  0  0  0  0  0  0  0  0  0  0
   21.9160   63.4400  -10.2930 C   0  0  0  0  0  0  0  0  0  0  0  0
   22.8500   63.8260   -9.3570 C   0  0  0  0  0  3  0  0  0  0  0  0
   22.5250   64.0550   -8.0600 C   0  0  0  0  0  3  0  0  0  0  0  0
   21.2310   63.9040   -7.6470 C   0  0  0  0  0  0  0  0  0  0  0  0
   20.2950   63.5170   -8.5830 C   0  0  0  0  0  3  0  0  0  0  0  0
   20.7800   64.1960   -5.9640 Cl  0  0  0  0  0  0  0  0  0  0  0  0
   22.3290   63.2280  -11.5870 O   0  0  0  0  0  0  0  0  0  0  0  0
   23.7060   63.0800  -11.8520 C   0  0  0  0  0  1  0  0  0  0  0  0
  1 14  1  0  0  0  0
  2  1  1  0  0  0  0
  2  3  1  0  0  0  0
  4  3  1  6  0  0  0
  5  4  1  0  0  0  0
  5 14  1  0  0  0  0
  6  5  2  0  0  0  0
  7 11  1  6  0  0  0
  7  6  1  0  0  0  0
  8  7  1  0  0  0  0
  8 12  1  0  0  0  0
  9  8  1  0  0  0  0
 10 11  2  0  0  0  0
 10  9  1  0  0  0  0
 12 13  2  0  0  0  0
 12  4  1  0  0  0  0
 15  9  1  0  0  0  0
 16  1  1  0  0  0  0
 16 19  1  0  0  0  0
 17 16  2  0  0  0  0
 18 16  2  0  0  0  0
 19 24  1  0  0  0  0
 20 19  2  0  0  0  0
 20 21  1  0  0  0  0
 21 22  2  0  0  0  0
 22 23  1  0  0  0  0
 23 25  1  0  0  0  0
 24 23  2  0  0  0  0
 26 20  1  0  0  0  0
 27 26  1  0  0  0  0
M  END
>  <Pose>
1

>  <Score>
-7.464

$$$$
