/Users/jonathanwahrer/Desktop/Msc/3_Semester/Drug_Design_Praktikum/waehrer_HTS_screening/HTS_experiment/out/docking_results/vina_output/3sx0/2267_docked.pdbqt
 OpenBabel03192223113D

 27 30  0  0  1  0  0  0  0  0999 V2000
   19.7760   63.5640  -10.0610 N   0  0  0  0  0  0  0  0  0  0  0  0
   20.7030   63.0400  -10.9600 C   0  0  0  0  0  2  0  0  0  0  0  0
   22.1330   63.4110  -10.6450 C   0  0  0  0  0  2  0  0  0  0  0  0
   22.3750   63.6650   -9.2050 C   0  0  2  0  0  3  0  0  0  0  0  0
   21.3690   64.2850   -8.5050 C   0  0  0  0  0  0  0  0  0  0  0  0
   21.5000   64.5560   -7.2010 N   0  0  0  0  0  0  0  0  0  0  0  0
   22.6600   64.2070   -6.5540 C   0  0  2  0  0  3  0  0  0  0  0  0
   23.6360   63.5980   -7.2580 N   0  0  0  0  0  0  0  0  0  0  0  0
   24.6430   63.3670   -6.4120 N   0  0  0  0  0  0  0  0  0  0  0  0
   24.3350   63.8090   -5.1990 C   0  0  0  0  0  3  0  0  0  0  0  0
   23.0560   64.3610   -5.2430 C   0  0  0  0  0  3  0  0  0  0  0  0
   23.5590   63.3040   -8.5630 C   0  0  0  0  0  0  0  0  0  0  0  0
   24.4680   62.7380   -9.2160 O   0  0  0  0  0  0  0  0  0  0  0  0
   20.1350   64.6450   -9.2210 C   0  0  0  0  0  2  0  0  0  0  0  0
   25.5500   62.9060   -6.6550 H   0  0  0  0  0  0  0  0  0  0  0  0
   18.4370   62.6600   -9.6450 S   0  0  0  0  0  0  0  0  0  0  0  0
   18.6400   61.2280  -10.0840 O   0  0  0  0  0  0  0  0  0  0  0  0
   18.2370   62.6310   -8.1580 O   0  0  0  0  0  0  0  0  0  0  0  0
   16.9410   63.2000  -10.3740 C   0  0  0  0  0  0  0  0  0  0  0  0
   15.9850   62.3260  -10.8620 C   0  0  0  0  0  3  0  0  0  0  0  0
   14.8170   62.8100  -11.4310 C   0  0  0  0  0  0  0  0  0  0  0  0
   14.5530   64.1570  -11.5350 C   0  0  0  0  0  0  0  0  0  0  0  0
   13.6180   61.6890  -12.0440 Cl  0  0  0  0  0  0  0  0  0  0  0  0
   15.5040   65.0280  -11.0490 C   0  0  0  0  0  3  0  0  0  0  0  0
   16.6650   64.5470  -10.4840 C   0  0  0  0  0  3  0  0  0  0  0  0
   13.3630   64.6250  -12.1140 O   0  0  0  0  0  0  0  0  0  0  0  0
   13.3410   64.9740  -13.4850 C   0  0  0  0  0  1  0  0  0  0  0  0
  1 16  1  0  0  0  0
  1 14  1  0  0  0  0
  2  3  1  0  0  0  0
  2  1  1  0  0  0  0
  4  3  1  6  0  0  0
  4 12  1  0  0  0  0
  4  5  1  0  0  0  0
  5  6  2  0  0  0  0
  6  7  1  0  0  0  0
  7 11  1  1  0  0  0
  8  7  1  0  0  0  0
  8  9  1  0  0  0  0
  9 10  1  0  0  0  0
 11 10  2  0  0  0  0
 12  8  1  0  0  0  0
 13 12  2  0  0  0  0
 14  5  1  0  0  0  0
 15  9  1  0  0  0  0
 16 18  2  0  0  0  0
 17 16  2  0  0  0  0
 19 16  1  0  0  0  0
 20 19  2  0  0  0  0
 21 20  1  0  0  0  0
 22 21  2  0  0  0  0
 22 24  1  0  0  0  0
 23 21  1  0  0  0  0
 24 25  2  0  0  0  0
 25 19  1  0  0  0  0
 26 22  1  0  0  0  0
 27 26  1  0  0  0  0
M  END
>  <Pose>
1

>  <Score>
-7.584

$$$$
