MODEL 1
REMARK VINA RESULT:    -6.404      0.000      0.000
REMARK INTER + INTRA:          -7.076
REMARK INTER:                  -7.715
REMARK INTRA:                   0.639
REMARK UNBOUND:                 0.639
REMARK  4 active torsions:
REMARK  status: ('A' for Active; 'I' for Inactive)
REMARK    1  A    between atoms: C_5  and  C_8 
REMARK    2  A    between atoms: C_8  and  O_25 
REMARK    3  A    between atoms: N_9  and  C_17 
REMARK    4  A    between atoms: C_20  and  O_23 
ROOT
ATOM      1  C   UNK d   1      21.617  63.153  -8.552  0.00  0.00     0.283 C 
ATOM      2  N   UNK d   1      21.498  62.804  -9.879  0.00  0.00     0.042 N 
ATOM      3  C   UNK d   1      20.166  63.226 -10.260  0.00  0.00     0.210 C 
ATOM      4  C   UNK d   1      19.636  63.819 -11.280  0.00  0.00     0.030 C 
ATOM      5  C   UNK d   1      18.199  64.129 -11.399  0.00  0.00     0.032 C 
ATOM      6  C   UNK d   1      17.355  63.733 -10.240  0.00  0.00     0.023 C 
ATOM      7  C   UNK d   1      17.940  62.661  -9.383  0.00  0.00     0.125 C 
ATOM      8  N   UNK d   1      19.360  62.833  -9.163  0.00  0.00    -0.356 N 
ATOM      9  C   UNK d   1      20.236  62.693  -8.003  0.00  0.00     0.200 C 
ATOM     10  H   UNK d   1      21.381  61.725  -9.896  0.00  0.00     0.299 HD
ENDROOT
BRANCH   1  11
ATOM     11  C   UNK d   1      21.777  64.514  -8.082  0.00  0.00     0.007 A 
ATOM     12  C   UNK d   1      22.804  64.808  -7.206  0.00  0.00     0.014 A 
ATOM     13  C   UNK d   1      22.968  66.075  -6.729  0.00  0.00     0.024 A 
ATOM     14  C   UNK d   1      22.125  67.116  -7.095  0.00  0.00     0.034 A 
ATOM     15 Cl   UNK d   1      22.313  68.746  -6.500  0.00  0.00    -0.084 Cl
ATOM     16  C   UNK d   1      21.109  66.823  -7.963  0.00  0.00     0.024 A 
ATOM     17  C   UNK d   1      20.939  65.538  -8.448  0.00  0.00     0.014 A 
ENDBRANCH   1  11
BRANCH   1  18
ATOM     18  O   UNK d   1      22.521  62.299  -7.859  0.00  0.00    -0.359 OA
ATOM     19  H   UNK d   1      22.936  61.731  -8.557  0.00  0.00     0.213 HD
ENDBRANCH   1  18
BRANCH   2  20
ATOM     20  C   UNK d   1      22.451  63.072 -10.849  0.00  0.00     0.146 A 
ATOM     21  C   UNK d   1      23.766  63.327 -10.655  0.00  0.00     0.041 A 
ATOM     22  C   UNK d   1      24.608  63.567 -11.740  0.00  0.00     0.039 A 
ATOM     23  C   UNK d   1      24.156  63.556 -13.048  0.00  0.00     0.068 A 
ATOM     24  C   UNK d   1      22.812  63.292 -13.215  0.00  0.00     0.039 A 
ATOM     25  C   UNK d   1      21.960  63.053 -12.170  0.00  0.00     0.041 A 
BRANCH  23  26
ATOM     26  O   UNK d   1      25.026  63.800 -14.098  0.00  0.00    -0.356 OA
ATOM     27  C   UNK d   1      26.411  63.780 -13.864  0.00  0.00     0.210 C 
ENDBRANCH  23  26
ENDBRANCH   2  20
TORSDOF 4
ENDMDL
