MODEL 1
REMARK VINA RESULT:    -8.991      0.000      0.000
REMARK INTER + INTRA:         -12.510
REMARK INTER:                 -12.144
REMARK INTRA:                  -0.366
REMARK UNBOUND:                -0.366
REMARK  6 active torsions:
REMARK  status: ('A' for Active; 'I' for Inactive)
REMARK    1  A    between atoms: N_8  and  C_12 
REMARK    2  A    between atoms: C_12  and  C_13 
REMARK    3  A    between atoms: C_13  and  C_14 
REMARK       I    between atoms: C_14  and  N_16 
REMARK    4  A    between atoms: N_19  and  C_22 
REMARK    5  A    between atoms: C_22  and  C_23 
REMARK       I    between atoms: C_23  and  N_25 
REMARK    6  A    between atoms: N_25  and  C_26 
ROOT
ATOM      1  C   UNK d   1      19.816  63.441 -10.948  0.00  0.00     0.221 C 
ATOM      2  O   UNK d   1      20.000  62.552 -11.864  0.00  0.00    -0.273 OA
ATOM      3  N   UNK d   1      20.976  63.969 -10.377  0.00  0.00    -0.349 N 
ATOM      4  C   UNK d   1      21.000  64.828  -9.179  0.00  0.00     0.145 C 
ATOM      5  C   UNK d   1      21.641  63.814  -8.180  0.00  0.00     0.137 C 
ATOM      6  N   UNK d   1      23.011  63.577  -8.614  0.00  0.00    -0.401 N 
ATOM      7  C   UNK d   1      23.373  63.753  -9.912  0.00  0.00     0.137 C 
ATOM      8  C   UNK d   1      22.281  63.766 -10.943  0.00  0.00     0.145 C 
ENDROOT
BRANCH   1   9
ATOM      9  C   UNK d   1      18.433  63.758 -10.684  0.00  0.00     0.123 C 
BRANCH   9  10
ATOM     10  C   UNK d   1      17.552  62.849  -9.955  0.00  0.00     0.144 C 
BRANCH  10  11
ATOM     11  N   UNK d   1      16.351  62.396 -10.634  0.00  0.00    -0.290 N 
ATOM     12  C   UNK d   1      15.408  63.056 -11.301  0.00  0.00     0.073 A 
ATOM     13  C   UNK d   1      14.413  62.194 -11.696  0.00  0.00     0.109 A 
ATOM     14  C   UNK d   1      15.311  64.416 -11.646  0.00  0.00     0.034 A 
ATOM     15  C   UNK d   1      13.300  62.624 -12.430  0.00  0.00     0.063 A 
ATOM     16  O   UNK d   1      14.781  61.021 -11.251  0.00  0.00    -0.259 OA
ATOM     17  C   UNK d   1      13.193  63.945 -12.770  0.00  0.00     0.036 A 
ATOM     18 Cl   UNK d   1      11.827  64.514 -13.698  0.00  0.00    -0.084 Cl
ATOM     19  C   UNK d   1      14.198  64.806 -12.372  0.00  0.00     0.026 A 
ATOM     20  C   UNK d   1      15.924  61.088 -10.614  0.00  0.00     0.372 A 
ATOM     21  O   UNK d   1      16.541  60.129 -10.067  0.00  0.00    -0.237 OA
ENDBRANCH  10  11
ENDBRANCH   9  10
ENDBRANCH   1   9
BRANCH   6  22
ATOM     22  C   UNK d   1      23.631  62.789  -7.658  0.00  0.00     0.219 C 
BRANCH  22  23
ATOM     23  C   UNK d   1      24.210  63.625  -6.516  0.00  0.00     0.235 C 
ATOM     24  O   UNK d   1      24.378  64.867  -6.824  0.00  0.00    -0.272 OA
ATOM     25  N   UNK d   1      24.504  63.082  -5.341  0.00  0.00    -0.355 N 
ATOM     26  H   UNK d   1      24.748  64.301  -4.794  0.00  0.00     0.162 HD
BRANCH  25  27
ATOM     27  C   UNK d   1      24.818  62.502  -4.091  0.00  0.00     0.084 A 
ATOM     28  C   UNK d   1      23.947  63.028  -2.886  0.00  0.00     0.027 A 
ATOM     29  C   UNK d   1      25.342  63.409  -2.997  0.00  0.00     0.027 A 
ENDBRANCH  25  27
ENDBRANCH  22  23
ENDBRANCH   6  22
TORSDOF 6
ENDMDL
