/Users/jonathanwahrer/Desktop/Msc/3_Semester/Drug_Design_Praktikum/waehrer_HTS_screening/HTS_experiment/out/docking_results/vina_output/3sx0/2276_docked.pdbqt
 OpenBabel03192223123D

 21 24  0  0  1  0  0  0  0  0999 V2000
   24.0920   63.7840  -11.1260 Cl  0  0  0  0  0  0  0  0  0  0  0  0
   22.4760   63.5720  -10.4800 C   0  0  0  0  0  0  0  0  0  0  0  0
   22.2860   63.7860   -9.1310 C   0  0  0  0  0  0  0  0  0  0  0  0
   20.9740   63.5940   -8.6820 C   0  0  0  0  0  0  0  0  0  0  0  0
   20.7450   63.7740   -7.4710 O   0  0  0  0  0  0  0  0  0  0  0  0
   19.9980   63.2310   -9.5230 N   0  0  0  0  0  0  0  0  0  0  0  0
   20.1880   63.0260  -10.8180 N   0  0  0  0  0  0  0  0  0  0  0  0
   19.0160   62.6410  -11.5920 C   0  0  1  0  0  3  0  0  0  0  0  0
   18.4660   61.3850  -10.9430 C   0  0  1  0  0  3  0  0  0  0  0  0
   18.2940   61.5770   -9.4980 C   0  0  1  0  0  3  0  0  0  0  0  0
   18.6190   63.0160   -9.0760 C   0  0  2  0  0  3  0  0  0  0  0  0
   17.8000   63.9000   -9.9760 C   0  0  0  0  0  2  0  0  0  0  0  0
   18.0000   63.7120  -11.2690 C   0  0  0  0  0  2  0  0  0  0  0  0
   17.0800   61.3680  -10.4140 C   0  0  0  0  0  2  0  0  0  0  0  0
   21.4150   63.1940  -11.2980 C   0  0  0  0  0  0  0  0  0  0  0  0
   21.6060   63.0030  -12.5260 O   0  0  0  0  0  0  0  0  0  0  0  0
   23.3140   64.1780   -8.2250 N   0  0  0  0  0  0  0  0  0  0  0  0
   24.1110   64.6950   -8.6540 H   0  0  0  0  0  0  0  0  0  0  0  0
   23.3240   63.9200   -6.8310 C   0  0  0  0  0  3  0  0  0  0  0  0
   24.5180   63.1390   -6.3450 C   0  0  0  0  0  1  0  0  0  0  0  0
   23.2630   65.1850   -5.9870 C   0  0  0  0  0  1  0  0  0  0  0  0
  1  2  1  0  0  0  0
  2  3  2  0  0  0  0
  3  4  1  0  0  0  0
  3 17  1  0  0  0  0
  4  5  2  0  0  0  0
  6 11  1  0  0  0  0
  6  4  1  0  0  0  0
  7  6  1  0  0  0  0
  8 13  1  1  0  0  0
  8  9  1  0  0  0  0
  8  7  1  0  0  0  0
  9 14  1  6  0  0  0
  9 10  1  0  0  0  0
 10 14  1  6  0  0  0
 10 11  1  0  0  0  0
 11 12  1  6  0  0  0
 13 12  1  0  0  0  0
 15  7  1  0  0  0  0
 15  2  1  0  0  0  0
 16 15  2  0  0  0  0
 17 19  1  0  0  0  0
 18 17  1  0  0  0  0
 19 20  1  0  0  0  0
 19 21  1  0  0  0  0
M  END
>  <Pose>
1

>  <Score>
-8.325

$$$$
