MODEL 1
REMARK VINA RESULT:    -9.009      0.000      0.000
REMARK INTER + INTRA:         -11.772
REMARK INTER:                 -11.642
REMARK INTRA:                  -0.130
REMARK UNBOUND:                -0.130
REMARK  5 active torsions:
REMARK  status: ('A' for Active; 'I' for Inactive)
REMARK    1  A    between atoms: C_3  and  N_15 
REMARK    2  A    between atoms: N_6  and  C_9 
REMARK    3  A    between atoms: N_18  and  C_21 
REMARK    4  A    between atoms: C_21  and  C_22 
REMARK       I    between atoms: C_22  and  N_24 
REMARK       I    between atoms: N_24  and  C_25 
REMARK       I    between atoms: C_25  and  N_27 
REMARK    5  A    between atoms: N_27  and  C_28 
ROOT
ATOM      1  N   UNK d   1      17.741  62.348  -9.759  0.00  0.00    -0.375 N 
ATOM      2  C   UNK d   1      18.393  62.441  -8.522  0.00  0.00     0.153 C 
ATOM      3  C   UNK d   1      19.823  63.035  -8.799  0.00  0.00     0.292 C 
ATOM      4  N   UNK d   1      20.060  63.554 -10.053  0.00  0.00     0.100 N 
ATOM      5  C   UNK d   1      19.319  63.051 -11.177  0.00  0.00     0.292 C 
ATOM      6  C   UNK d   1      18.640  61.693 -10.802  0.00  0.00     0.153 C 
ENDROOT
BRANCH   1   7
ATOM      7  C   UNK d   1      16.572  62.865 -10.294  0.00  0.00     0.077 A 
ATOM      8  C   UNK d   1      15.613  62.196 -10.920  0.00  0.00     0.131 A 
ATOM      9 Cl   UNK d   1      15.549  60.406 -10.662  0.00  0.00    -0.076 Cl
ATOM     10  C   UNK d   1      14.654  62.790 -11.741  0.00  0.00     0.292 A 
ATOM     11  N   UNK d   1      14.681  64.084 -11.906  0.00  0.00    -0.197 N 
ATOM     12  O   UNK d   1      13.807  62.017 -12.304  0.00  0.00    -0.264 OA
ATOM     13  N   UNK d   1      15.637  64.809 -11.268  0.00  0.00    -0.174 NA
ATOM     14  C   UNK d   1      16.544  64.333 -10.501  0.00  0.00     0.170 A 
BRANCH  11  15
ATOM     15  C   UNK d   1      13.915  64.773 -12.944  0.00  0.00     0.062 A 
ATOM     16  C   UNK d   1      14.496  65.556 -13.889  0.00  0.00     0.032 A 
ATOM     17  C   UNK d   1      13.764  66.093 -14.925  0.00  0.00     0.002 A 
ATOM     18  C   UNK d   1      12.396  65.845 -15.033  0.00  0.00     0.000 A 
ATOM     19  C   UNK d   1      11.826  65.044 -14.043  0.00  0.00     0.002 A 
ATOM     20  C   UNK d   1      12.557  64.532 -13.044  0.00  0.00     0.032 A 
ENDBRANCH  11  15
ENDBRANCH   1   7
BRANCH   4  21
ATOM     21  C   UNK d   1      21.477  63.433 -10.534  0.00  0.00     0.375 C 
BRANCH  21  22
ATOM     22  C   UNK d   1      22.375  64.067  -9.580  0.00  0.00     0.254 C 
ATOM     23  O   UNK d   1      22.555  65.110  -9.224  0.00  0.00    -0.271 OA
ATOM     24  N   UNK d   1      23.371  62.886  -8.850  0.00  0.00    -0.278 N 
ATOM     25  C   UNK d   1      23.842  63.795  -7.745  0.00  0.00     0.323 C 
ATOM     26  H   UNK d   1      23.127  62.425  -9.420  0.00  0.00     0.173 HD
ATOM     27  O   UNK d   1      23.994  64.982  -7.833  0.00  0.00    -0.247 OA
ATOM     28  N   UNK d   1      24.075  63.034  -6.540  0.00  0.00    -0.338 N 
ATOM     29  H   UNK d   1      23.928  61.974  -6.635  0.00  0.00     0.164 HD
BRANCH  28  30
ATOM     30  C   UNK d   1      24.490  63.520  -5.279  0.00  0.00     0.086 C 
ATOM     31  C   UNK d   1      23.580  63.430  -4.123  0.00  0.00     0.025 C 
ATOM     32  C   UNK d   1      23.874  62.107  -3.409  0.00  0.00     0.002 C 
ATOM     33  C   UNK d   1      25.362  61.977  -3.635  0.00  0.00     0.002 C 
ATOM     34  C   UNK d   1      25.700  62.642  -4.895  0.00  0.00     0.025 C 
ENDBRANCH  28  30
ENDBRANCH  21  22
ENDBRANCH   4  21
TORSDOF 5
ENDMDL
