/Users/jonathanwahrer/Desktop/Msc/3_Semester/Drug_Design_Praktikum/waehrer_HTS_screening/HTS_experiment/out/docking_results/vina_output/3sx0/2282_docked.pdbqt
 OpenBabel03192223123D

 31 34  0  0  1  0  0  0  0  0999 V2000
   22.1680   63.3280   -8.9390 N   0  0  0  0  0  0  0  0  0  0  0  0
   22.7630   62.5060   -7.9120 C   0  0  0  0  0  2  0  0  0  0  0  0
   23.5480   63.3590   -6.9660 C   0  0  0  0  0  2  0  0  0  0  0  0
   23.2140   64.7330   -7.2480 N   0  0  0  0  0  0  0  0  0  0  0  0
   23.7690   65.0920   -8.5030 C   0  0  0  0  0  2  0  0  0  0  0  0
   22.9700   64.3430   -9.5740 C   0  0  0  0  0  2  0  0  0  0  0  0
   20.8200   63.1760   -9.3540 C   0  0  0  0  0  0  0  0  0  0  0  0
   20.4660   63.1050  -10.6980 C   0  0  0  0  0  0  0  0  0  0  0  0
   21.7620   63.2200  -11.8700 Cl  0  0  0  0  0  0  0  0  0  0  0  0
   19.1470   62.9510  -11.0740 C   0  0  0  0  0  0  0  0  0  0  0  0
   18.1570   62.8640  -10.1660 N   0  0  0  0  0  0  0  0  0  0  0  0
   18.8320   62.8870  -12.2960 O   0  0  0  0  0  0  0  0  0  0  0  0
   18.5130   62.9340   -8.8950 N   0  0  0  0  0  0  0  0  0  0  0  0
   19.7760   63.0840   -8.4590 C   0  0  0  0  0  3  0  0  0  0  0  0
   16.7870   62.7000  -10.5570 C   0  0  0  0  0  0  0  0  0  0  0  0
   16.2230   61.4460  -10.5880 C   0  0  0  0  0  3  0  0  0  0  0  0
   14.8880   61.2740  -10.9680 C   0  0  0  0  0  3  0  0  0  0  0  0
   14.1010   62.3470  -11.3200 C   0  0  0  0  0  3  0  0  0  0  0  0
   14.6570   63.6070  -11.2910 C   0  0  0  0  0  3  0  0  0  0  0  0
   15.9860   63.7650  -10.9120 C   0  0  0  0  0  3  0  0  0  0  0  0
   23.3250   65.6380   -6.1750 C   0  0  0  0  0  2  0  0  0  0  0  0
   22.7450   66.9620   -6.4240 C   0  0  0  0  0  0  0  0  0  0  0  0
   21.5340   66.9750   -6.8300 O   0  0  0  0  0  0  0  0  0  0  0  0
   23.3970   68.2080   -6.2560 N   0  0  0  0  0  0  0  0  0  0  0  0
   24.3800   68.1930   -5.9160 H   0  0  0  0  0  0  0  0  0  0  0  0
   22.7830   69.4860   -6.5140 C   0  0  0  0  0  2  0  0  0  0  0  0
   23.5560   70.5620   -5.8150 C   0  0  1  0  0  3  0  0  0  0  0  0
   23.9240   70.1240   -4.5710 O   0  0  0  0  0  0  0  0  0  0  0  0
   25.2820   70.1790   -4.4140 C   0  0  0  0  0  2  0  0  0  0  0  0
   25.6950   71.3020   -5.3410 C   0  0  0  0  0  2  0  0  0  0  0  0
   24.8380   70.9100   -6.5570 C   0  0  0  0  0  2  0  0  0  0  0  0
  1  2  1  0  0  0  0
  2  3  1  0  0  0  0
  4  3  1  0  0  0  0
  4 21  1  0  0  0  0
  5  4  1  0  0  0  0
  6  1  1  0  0  0  0
  6  5  1  0  0  0  0
  7  1  1  0  0  0  0
  7 14  1  0  0  0  0
  8  7  2  0  0  0  0
  9  8  1  0  0  0  0
 10  8  1  0  0  0  0
 10 11  1  0  0  0  0
 11 13  1  0  0  0  0
 12 10  2  0  0  0  0
 13 14  2  0  0  0  0
 15 11  1  0  0  0  0
 16 15  1  0  0  0  0
 17 16  2  0  0  0  0
 18 19  2  0  0  0  0
 18 17  1  0  0  0  0
 19 20  1  0  0  0  0
 20 15  2  0  0  0  0
 22 24  1  0  0  0  0
 22 21  1  0  0  0  0
 23 22  2  0  0  0  0
 24 25  1  0  0  0  0
 26 24  1  0  0  0  0
 27 26  1  6  0  0  0
 27 28  1  0  0  0  0
 28 29  1  0  0  0  0
 30 29  1  0  0  0  0
 31 27  1  0  0  0  0
 31 30  1  0  0  0  0
M  END
>  <Pose>
1

>  <Score>
-7.948

$$$$
