MODEL 1
REMARK VINA RESULT:    -7.948      0.000      0.000
REMARK INTER + INTRA:         -10.749
REMARK INTER:                 -10.736
REMARK INTRA:                  -0.013
REMARK UNBOUND:                -0.013
REMARK  6 active torsions:
REMARK  status: ('A' for Active; 'I' for Inactive)
REMARK    1  A    between atoms: C_3  and  N_15 
REMARK    2  A    between atoms: N_6  and  C_9 
REMARK    3  A    between atoms: N_18  and  C_21 
REMARK    4  A    between atoms: C_21  and  C_22 
REMARK       I    between atoms: C_22  and  N_24 
REMARK    5  A    between atoms: N_24  and  C_25 
REMARK    6  A    between atoms: C_25  and  C_26 
ROOT
ATOM      1  N   UNK d   1      22.168  63.328  -8.939  0.00  0.00    -0.375 N 
ATOM      2  C   UNK d   1      22.763  62.506  -7.912  0.00  0.00     0.153 C 
ATOM      3  C   UNK d   1      23.548  63.359  -6.966  0.00  0.00     0.292 C 
ATOM      4  N   UNK d   1      23.214  64.733  -7.248  0.00  0.00     0.100 NA
ATOM      5  C   UNK d   1      23.769  65.092  -8.503  0.00  0.00     0.292 C 
ATOM      6  C   UNK d   1      22.970  64.343  -9.574  0.00  0.00     0.153 C 
ENDROOT
BRANCH   1   7
ATOM      7  C   UNK d   1      20.820  63.176  -9.354  0.00  0.00     0.077 A 
ATOM      8  C   UNK d   1      20.466  63.105 -10.698  0.00  0.00     0.131 A 
ATOM      9 Cl   UNK d   1      21.762  63.220 -11.870  0.00  0.00    -0.076 Cl
ATOM     10  C   UNK d   1      19.147  62.951 -11.074  0.00  0.00     0.292 A 
ATOM     11  N   UNK d   1      18.157  62.864 -10.166  0.00  0.00    -0.197 N 
ATOM     12  O   UNK d   1      18.832  62.887 -12.296  0.00  0.00    -0.264 OA
ATOM     13  N   UNK d   1      18.513  62.934  -8.895  0.00  0.00    -0.174 NA
ATOM     14  C   UNK d   1      19.776  63.084  -8.459  0.00  0.00     0.170 A 
BRANCH  11  15
ATOM     15  C   UNK d   1      16.787  62.700 -10.557  0.00  0.00     0.062 A 
ATOM     16  C   UNK d   1      16.223  61.446 -10.588  0.00  0.00     0.032 A 
ATOM     17  C   UNK d   1      14.888  61.274 -10.968  0.00  0.00     0.002 A 
ATOM     18  C   UNK d   1      14.101  62.347 -11.320  0.00  0.00     0.000 A 
ATOM     19  C   UNK d   1      14.657  63.607 -11.291  0.00  0.00     0.002 A 
ATOM     20  C   UNK d   1      15.986  63.765 -10.912  0.00  0.00     0.032 A 
ENDBRANCH  11  15
ENDBRANCH   1   7
BRANCH   4  21
ATOM     21  C   UNK d   1      23.325  65.638  -6.175  0.00  0.00     0.374 C 
BRANCH  21  22
ATOM     22  C   UNK d   1      22.745  66.962  -6.424  0.00  0.00     0.246 C 
ATOM     23  O   UNK d   1      21.534  66.975  -6.830  0.00  0.00    -0.272 OA
ATOM     24  N   UNK d   1      23.397  68.208  -6.256  0.00  0.00    -0.357 N 
ATOM     25  H   UNK d   1      24.380  68.193  -5.916  0.00  0.00     0.162 HD
BRANCH  24  26
ATOM     26  C   UNK d   1      22.783  69.486  -6.514  0.00  0.00     0.154 C 
BRANCH  26  27
ATOM     27  C   UNK d   1      23.556  70.562  -5.815  0.00  0.00     0.139 C 
ATOM     28  O   UNK d   1      23.924  70.124  -4.571  0.00  0.00    -0.384 OA
ATOM     29  C   UNK d   1      25.282  70.179  -4.414  0.00  0.00     0.168 C 
ATOM     30  C   UNK d   1      25.695  71.302  -5.341  0.00  0.00     0.029 C 
ATOM     31  C   UNK d   1      24.838  70.910  -6.557  0.00  0.00     0.035 C 
ENDBRANCH  26  27
ENDBRANCH  24  26
ENDBRANCH  21  22
ENDBRANCH   4  21
TORSDOF 6
ENDMDL
