/Users/jonathanwahrer/Desktop/Msc/3_Semester/Drug_Design_Praktikum/waehrer_HTS_screening/HTS_experiment/out/docking_results/vina_output/3sx0/2284_docked.pdbqt
 OpenBabel03192223133D

 33 37  0  0  0  0  0  0  0  0999 V2000
   17.9240   62.5950  -10.2850 C   0  0  0  0  0  0  0  0  0  0  0  0
   18.8160   63.1130   -9.3680 C   0  0  0  0  0  3  0  0  0  0  0  0
   20.1310   63.4000   -9.6350 C   0  0  0  0  0  0  0  0  0  0  0  0
   20.8590   63.8760   -8.7040 O   0  0  0  0  0  0  0  0  0  0  0  0
   20.6280   63.1720  -10.8870 N   0  0  0  0  0  0  0  0  0  0  0  0
   21.8240   63.3950  -11.2640 N   0  0  0  0  0  0  0  0  0  0  0  0
   22.2320   63.1550  -12.4750 C   0  0  0  0  0  0  0  0  0  0  0  0
   20.7670   62.5470  -13.1590 S   0  0  0  0  0  0  0  0  0  0  0  0
   19.7630   62.6730  -11.7720 C   0  0  0  0  0  0  0  0  0  0  0  0
   18.4690   62.3900  -11.5040 N   0  0  0  0  0  0  0  0  0  0  0  0
   16.5110   62.3020   -9.9430 C   0  0  0  0  0  2  0  0  0  0  0  0
   15.6630   62.9860  -10.8660 N   0  0  0  0  0  0  0  0  0  0  0  0
   15.7390   64.3930  -10.8720 C   0  0  0  0  0  2  0  0  0  0  0  0
   15.1250   64.9110  -12.1770 C   0  0  0  0  0  2  0  0  0  0  0  0
   13.8600   64.3530  -12.3850 N   0  0  0  0  0  0  0  0  0  0  0  0
   13.3840   63.5800  -11.3160 C   0  0  0  0  0  2  0  0  0  0  0  0
   14.3560   62.4660  -11.0010 C   0  0  0  0  0  2  0  0  0  0  0  0
   13.2360   64.1690  -13.9110 S   0  0  0  0  0  0  0  0  0  0  0  0
   13.2400   62.6850  -14.2620 O   0  0  0  0  0  0  0  0  0  0  0  0
   14.0110   64.9370  -14.9510 O   0  0  0  0  0  0  0  0  0  0  0  0
   11.5570   64.6570  -13.9730 C   0  0  0  0  0  0  0  0  0  0  0  0
   10.4950   63.8800  -14.3260 N   0  0  0  0  0  0  0  0  0  0  0  0
    9.3650   64.5870  -14.2620 C   0  0  0  0  0  3  0  0  0  0  0  0
    9.6420   65.8380  -13.8680 N   0  0  0  0  0  0  0  0  0  0  0  0
   10.9910   65.8760  -13.6910 C   0  0  0  0  0  3  0  0  0  0  0  0
    8.9670   66.6080  -13.7290 H   0  0  0  0  0  0  0  0  0  0  0  0
   23.5370   63.3280  -13.1240 C   0  0  0  0  0  0  0  0  0  0  0  0
   23.5830   63.4450  -14.4960 C   0  0  0  0  0  3  0  0  0  0  0  0
   24.7860   63.6110  -15.1690 C   0  0  0  0  0  3  0  0  0  0  0  0
   25.9670   63.6630  -14.4580 C   0  0  0  0  0  0  0  0  0  0  0  0
   25.9450   63.5480  -13.0780 C   0  0  0  0  0  3  0  0  0  0  0  0
   27.4770   63.8700  -15.2840 Cl  0  0  0  0  0  0  0  0  0  0  0  0
   24.7290   63.3840  -12.4560 C   0  0  0  0  0  3  0  0  0  0  0  0
  1 11  1  0  0  0  0
  1  2  2  0  0  0  0
  3  2  1  0  0  0  0
  3  4  2  0  0  0  0
  5  3  1  0  0  0  0
  6  5  1  0  0  0  0
  7  6  2  0  0  0  0
  8  7  1  0  0  0  0
  8  9  1  0  0  0  0
  9 10  2  0  0  0  0
  9  5  1  0  0  0  0
 10  1  1  0  0  0  0
 12 11  1  0  0  0  0
 13 12  1  0  0  0  0
 14 13  1  0  0  0  0
 15 14  1  0  0  0  0
 15 16  1  0  0  0  0
 16 17  1  0  0  0  0
 17 12  1  0  0  0  0
 18 15  1  0  0  0  0
 19 18  2  0  0  0  0
 20 18  2  0  0  0  0
 21 18  1  0  0  0  0
 21 25  2  0  0  0  0
 22 23  2  0  0  0  0
 22 21  1  0  0  0  0
 23 24  1  0  0  0  0
 24 26  1  0  0  0  0
 24 25  1  0  0  0  0
 27  7  1  0  0  0  0
 27 33  1  0  0  0  0
 28 27  2  0  0  0  0
 29 28  1  0  0  0  0
 29 30  2  0  0  0  0
 30 31  1  0  0  0  0
 31 33  2  0  0  0  0
 32 30  1  0  0  0  0
M  END
>  <Pose>
1

>  <Score>
-7.778

$$$$
