MODEL 1
REMARK VINA RESULT:    -8.690      0.000      0.000
REMARK INTER + INTRA:         -12.524
REMARK INTER:                 -11.738
REMARK INTRA:                  -0.786
REMARK UNBOUND:                -0.786
REMARK  6 active torsions:
REMARK  status: ('A' for Active; 'I' for Inactive)
REMARK    1  A    between atoms: S_1  and  N_4 
REMARK    2  A    between atoms: S_1  and  C_22 
REMARK    3  A    between atoms: N_7  and  C_10 
REMARK    4  A    between atoms: C_10  and  C_11 
REMARK    5  A    between atoms: N_13  and  C_14 
REMARK    6  A    between atoms: C_14  and  C_15 
ROOT
ATOM      1  N   UNK d   1      19.215  63.398 -10.628  0.00  0.00    -0.203 NA
ATOM      2  C   UNK d   1      19.608  64.182  -9.496  0.00  0.00     0.127 C 
ATOM      3  C   UNK d   1      20.952  64.912  -9.675  0.00  0.00     0.132 C 
ATOM      4  N   UNK d   1      21.918  63.912 -10.006  0.00  0.00    -0.403 N 
ATOM      5  C   UNK d   1      21.600  63.408 -11.313  0.00  0.00     0.132 C 
ATOM      6  C   UNK d   1      20.376  62.562 -11.096  0.00  0.00     0.127 C 
ENDROOT
BRANCH   1   7
ATOM      7  S   UNK d   1      18.105  62.163  -9.988  0.00  0.00     0.243 S 
ATOM      8  O   UNK d   1      18.642  60.815 -10.431  0.00  0.00    -0.206 OA
ATOM      9  O   UNK d   1      18.114  62.244  -8.503  0.00  0.00    -0.206 OA
BRANCH   7  10
ATOM     10  C   UNK d   1      16.507  62.352 -10.597  0.00  0.00     0.077 A 
ATOM     11  C   UNK d   1      16.220  63.617 -11.129  0.00  0.00     0.064 A 
ATOM     12  C   UNK d   1      15.011  63.931 -11.755  0.00  0.00     0.103 A 
ATOM     13  C   UNK d   1      14.046  62.934 -11.854  0.00  0.00     0.102 A 
ATOM     14  O   UNK d   1      14.761  65.194 -12.264  0.00  0.00    -0.346 OA
ATOM     15  C   UNK d   1      14.342  61.694 -11.319  0.00  0.00     0.041 A 
ATOM     16  O   UNK d   1      12.877  63.312 -12.490  0.00  0.00    -0.346 OA
ATOM     17  C   UNK d   1      15.549  61.392 -10.702  0.00  0.00     0.028 A 
ATOM     18  C   UNK d   1      12.999  64.190 -13.641  0.00  0.00     0.202 C 
ATOM     19  C   UNK d   1      13.990  65.287 -13.437  0.00  0.00     0.202 C 
ENDBRANCH   7  10
ENDBRANCH   1   7
BRANCH   4  20
ATOM     20  C   UNK d   1      23.214  64.038  -9.538  0.00  0.00     0.204 C 
BRANCH  20  21
ATOM     21  C   UNK d   1      23.399  64.280  -8.106  0.00  0.00     0.169 C 
ATOM     22  O   UNK d   1      24.161  65.317  -7.864  0.00  0.00    -0.176 OA
ATOM     23  N   UNK d   1      22.923  63.639  -6.998  0.00  0.00    -0.366 N 
ATOM     24  H   UNK d   1      22.320  62.751  -7.024  0.00  0.00     0.161 HD
BRANCH  23  25
ATOM     25  C   UNK d   1      23.119  64.090  -5.619  0.00  0.00     0.162 C 
BRANCH  25  26
ATOM     26  C   UNK d   1      24.124  63.226  -4.968  0.00  0.00    -0.019 A 
ATOM     27  C   UNK d   1      23.960  62.800  -3.630  0.00  0.00     0.042 A 
ATOM     28  C   UNK d   1      24.908  62.130  -2.957  0.00  0.00     0.024 A 
ATOM     29 Cl   UNK d   1      22.411  63.159  -2.826  0.00  0.00    -0.084 Cl
ATOM     30  C   UNK d   1      26.153  61.811  -3.585  0.00  0.00     0.002 A 
ATOM     31  C   UNK d   1      26.328  62.215  -4.847  0.00  0.00     0.001 A 
ATOM     32  C   UNK d   1      25.357  62.918  -5.571  0.00  0.00     0.010 A 
ENDBRANCH  25  26
ENDBRANCH  23  25
ENDBRANCH  20  21
ENDBRANCH   4  20
TORSDOF 6
ENDMDL
