MODEL 1
REMARK VINA RESULT:    -7.650      0.000      0.000
REMARK INTER + INTRA:         -11.201
REMARK INTER:                 -10.780
REMARK INTRA:                  -0.421
REMARK UNBOUND:                -0.421
REMARK  7 active torsions:
REMARK  status: ('A' for Active; 'I' for Inactive)
REMARK    1  A    between atoms: S_1  and  N_4 
REMARK    2  A    between atoms: S_1  and  C_27 
REMARK    3  A    between atoms: N_7  and  C_10 
REMARK    4  A    between atoms: C_10  and  C_11 
REMARK       I    between atoms: C_11  and  N_13 
REMARK    5  A    between atoms: N_13  and  C_14 
REMARK    6  A    between atoms: C_14  and  C_15 
REMARK    7  A    between atoms: C_15  and  N_21 
ROOT
ATOM      1  C   UNK d   1      15.146  64.908 -12.195  0.00  0.00     0.374 C 
ENDROOT
BRANCH   1   2
ATOM      2  N   UNK d   1      14.961  64.093 -11.029  0.00  0.00     0.100 N 
ATOM      3  C   UNK d   1      15.128  62.703 -11.260  0.00  0.00     0.293 C 
ATOM      4  C   UNK d   1      16.220  62.035 -10.468  0.00  0.00     0.165 C 
ATOM      5  N   UNK d   1      17.361  62.809 -10.460  0.00  0.00    -0.303 N 
ATOM      6  C   UNK d   1      17.209  64.159 -10.126  0.00  0.00     0.165 C 
ATOM      7  C   UNK d   1      15.746  64.540  -9.924  0.00  0.00     0.293 C 
BRANCH   5   8
ATOM      8  S   UNK d   1      18.872  62.220 -10.825  0.00  0.00     0.260 S 
ATOM      9  O   UNK d   1      19.047  60.756 -10.507  0.00  0.00    -0.200 OA
ATOM     10  O   UNK d   1      19.258  62.365 -12.280  0.00  0.00    -0.200 OA
BRANCH   8  11
ATOM     11  C   UNK d   1      20.089  63.064  -9.873  0.00  0.00     0.079 A 
ATOM     12  C   UNK d   1      20.030  63.090  -8.507  0.00  0.00     0.027 A 
ATOM     13  C   UNK d   1      20.974  63.745  -7.761  0.00  0.00     0.025 A 
ATOM     14  C   UNK d   1      22.004  64.393  -8.409  0.00  0.00     0.034 A 
ATOM     15  C   UNK d   1      22.066  64.369  -9.790  0.00  0.00     0.025 A 
ATOM     16 Cl   UNK d   1      23.197  65.223  -7.426  0.00  0.00    -0.084 Cl
ATOM     17  C   UNK d   1      21.116  63.709 -10.526  0.00  0.00     0.027 A 
ENDBRANCH   8  11
ENDBRANCH   5   8
ENDBRANCH   1   2
BRANCH   1  18
ATOM     18  C   UNK d   1      13.990  64.766 -13.143  0.00  0.00     0.246 C 
ATOM     19  O   UNK d   1      13.189  63.832 -12.924  0.00  0.00    -0.272 OA
ATOM     20  N   UNK d   1      13.819  65.654 -14.235  0.00  0.00    -0.357 N 
ATOM     21  H   UNK d   1      14.530  66.424 -14.362  0.00  0.00     0.162 HD
BRANCH  20  22
ATOM     22  C   UNK d   1      12.688  65.444 -15.091  0.00  0.00     0.164 C 
BRANCH  22  23
ATOM     23  C   UNK d   1      11.707  66.549 -15.181  0.00  0.00     0.175 C 
ATOM     24  C   UNK d   1      11.839  67.230 -16.521  0.00  0.00     0.043 C 
ATOM     25  C   UNK d   1      12.819  68.407 -16.479  0.00  0.00     0.003 C 
ATOM     26  C   UNK d   1      12.254  69.527 -15.627  0.00  0.00     0.000 C 
ATOM     27  C   UNK d   1      11.419  68.886 -14.534  0.00  0.00     0.003 C 
ATOM     28  C   UNK d   1      12.141  67.611 -14.150  0.00  0.00     0.043 C 
BRANCH  23  29
ATOM     29  N   UNK d   1      10.353  66.261 -14.906  0.00  0.00     0.103 N 
ATOM     30  C   UNK d   1       9.443  66.189 -15.993  0.00  0.00     0.299 C 
ATOM     31  C   UNK d   1       8.037  66.311 -15.376  0.00  0.00     0.198 C 
ATOM     32  O   UNK d   1       7.795  65.247 -14.541  0.00  0.00    -0.388 OA
ATOM     33  C   UNK d   1       8.845  64.372 -14.416  0.00  0.00     0.198 C 
ATOM     34  C   UNK d   1      10.153  65.089 -14.082  0.00  0.00     0.299 C 
ENDBRANCH  23  29
ENDBRANCH  22  23
ENDBRANCH  20  22
ENDBRANCH   1  18
TORSDOF 7
ENDMDL
