/Users/jonathanwahrer/Desktop/Msc/3_Semester/Drug_Design_Praktikum/waehrer_HTS_screening/HTS_experiment/out/docking_results/vina_output/3sx0/2298_docked.pdbqt
 OpenBabel03192223143D

 34 37  0  0  0  0  0  0  0  0999 V2000
   15.1460   64.9080  -12.1950 C   0  0  0  0  0  2  0  0  0  0  0  0
   14.9610   64.0930  -11.0290 N   0  0  0  0  0  0  0  0  0  0  0  0
   15.1280   62.7030  -11.2600 C   0  0  0  0  0  2  0  0  0  0  0  0
   16.2200   62.0350  -10.4680 C   0  0  0  0  0  2  0  0  0  0  0  0
   17.3610   62.8090  -10.4600 N   0  0  0  0  0  0  0  0  0  0  0  0
   17.2090   64.1590  -10.1260 C   0  0  0  0  0  2  0  0  0  0  0  0
   15.7460   64.5400   -9.9240 C   0  0  0  0  0  2  0  0  0  0  0  0
   18.8720   62.2200  -10.8250 S   0  0  0  0  0  0  0  0  0  0  0  0
   19.0470   60.7560  -10.5070 O   0  0  0  0  0  0  0  0  0  0  0  0
   19.2580   62.3650  -12.2800 O   0  0  0  0  0  0  0  0  0  0  0  0
   20.0890   63.0640   -9.8730 C   0  0  0  0  0  0  0  0  0  0  0  0
   20.0300   63.0900   -8.5070 C   0  0  0  0  0  3  0  0  0  0  0  0
   20.9740   63.7450   -7.7610 C   0  0  0  0  0  3  0  0  0  0  0  0
   22.0040   64.3930   -8.4090 C   0  0  0  0  0  0  0  0  0  0  0  0
   22.0660   64.3690   -9.7900 C   0  0  0  0  0  3  0  0  0  0  0  0
   23.1970   65.2230   -7.4260 Cl  0  0  0  0  0  0  0  0  0  0  0  0
   21.1160   63.7090  -10.5260 C   0  0  0  0  0  3  0  0  0  0  0  0
   13.9900   64.7660  -13.1430 C   0  0  0  0  0  0  0  0  0  0  0  0
   13.1890   63.8320  -12.9240 O   0  0  0  0  0  0  0  0  0  0  0  0
   13.8190   65.6540  -14.2350 N   0  0  0  0  0  0  0  0  0  0  0  0
   14.5300   66.4240  -14.3620 H   0  0  0  0  0  0  0  0  0  0  0  0
   12.6880   65.4440  -15.0910 C   0  0  0  0  0  2  0  0  0  0  0  0
   11.7070   66.5490  -15.1810 C   0  0  0  0  0  0  0  0  0  0  0  0
   11.8390   67.2300  -16.5210 C   0  0  0  0  0  2  0  0  0  0  0  0
   12.8190   68.4070  -16.4790 C   0  0  0  0  0  2  0  0  0  0  0  0
   12.2540   69.5270  -15.6270 C   0  0  0  0  0  2  0  0  0  0  0  0
   11.4190   68.8860  -14.5340 C   0  0  0  0  0  2  0  0  0  0  0  0
   12.1410   67.6110  -14.1500 C   0  0  0  0  0  2  0  0  0  0  0  0
   10.3530   66.2610  -14.9060 N   0  0  0  0  0  0  0  0  0  0  0  0
    9.4430   66.1890  -15.9930 C   0  0  0  0  0  2  0  0  0  0  0  0
    8.0370   66.3110  -15.3760 C   0  0  0  0  0  2  0  0  0  0  0  0
    7.7950   65.2470  -14.5410 O   0  0  0  0  0  0  0  0  0  0  0  0
    8.8450   64.3720  -14.4160 C   0  0  0  0  0  2  0  0  0  0  0  0
   10.1530   65.0890  -14.0820 C   0  0  0  0  0  2  0  0  0  0  0  0
  1  2  1  0  0  0  0
  2  7  1  0  0  0  0
  3  2  1  0  0  0  0
  3  4  1  0  0  0  0
  4  5  1  0  0  0  0
  5  6  1  0  0  0  0
  6  7  1  0  0  0  0
  8  9  2  0  0  0  0
  8  5  1  0  0  0  0
  8 11  1  0  0  0  0
 10  8  2  0  0  0  0
 11 12  1  0  0  0  0
 12 13  2  0  0  0  0
 14 13  1  0  0  0  0
 14 16  1  0  0  0  0
 15 14  2  0  0  0  0
 17 11  2  0  0  0  0
 17 15  1  0  0  0  0
 18 19  2  0  0  0  0
 18  1  1  0  0  0  0
 20 18  1  0  0  0  0
 21 20  1  0  0  0  0
 22 20  1  0  0  0  0
 23 22  1  0  0  0  0
 23 29  1  0  0  0  0
 23 28  1  0  0  0  0
 24 25  1  0  0  0  0
 24 23  1  0  0  0  0
 25 26  1  0  0  0  0
 26 27  1  0  0  0  0
 27 28  1  0  0  0  0
 29 34  1  0  0  0  0
 30 31  1  0  0  0  0
 30 29  1  0  0  0  0
 31 32  1  0  0  0  0
 32 33  1  0  0  0  0
 33 34  1  0  0  0  0
M  END
>  <Pose>
1

>  <Score>
-7.650

$$$$
