MODEL 1
REMARK VINA RESULT:    -4.758      0.000      0.000
REMARK INTER + INTRA:          -6.137
REMARK INTER:                  -5.593
REMARK INTRA:                  -0.544
REMARK UNBOUND:                -0.544
REMARK  3 active torsions:
REMARK  status: ('A' for Active; 'I' for Inactive)
REMARK    1  A    between atoms: S_1  and  N_4 
REMARK    2  A    between atoms: S_1  and  C_22 
REMARK       I    between atoms: N_7  and  C_10 
REMARK    3  A    between atoms: C_10  and  C_12 
ROOT
ATOM      1  N   UNK d   1      14.353  63.467 -12.423  0.00  0.00    -0.304 N 
ATOM      2  C   UNK d   1      14.487  64.851 -12.680  0.00  0.00     0.155 C 
ATOM      3  C   UNK d   1      13.582  65.387 -13.758  0.00  0.00     0.146 C 
ATOM      4  N   UNK d   1      12.244  64.872 -13.681  0.00  0.00    -0.347 N 
ATOM      5  C   UNK d   1      12.025  63.752 -12.800  0.00  0.00     0.146 C 
ATOM      6  C   UNK d   1      13.218  62.816 -12.976  0.00  0.00     0.155 C 
ATOM      7  C   UNK d   1      11.220  65.451 -14.447  0.00  0.00     0.243 C 
ATOM      8  O   UNK d   1      11.534  66.421 -15.194  0.00  0.00    -0.271 OA
ENDROOT
BRANCH   7   9
ATOM      9  C   UNK d   1       9.802  64.998 -14.430  0.00  0.00     0.190 C 
ATOM     10  N   UNK d   1       9.591  63.894 -15.293  0.00  0.00    -0.320 N 
ATOM     11  C   UNK d   1       9.232  64.197 -16.640  0.00  0.00     0.081 C 
ATOM     12  C   UNK d   1       9.633  62.449 -15.239  0.00  0.00     0.222 C 
ATOM     13  S   UNK d   1       8.310  65.739 -16.469  0.00  0.00    -0.135 SA
ATOM     14  C   UNK d   1       8.227  63.110 -16.971  0.00  0.00     0.051 C 
ATOM     15  C   UNK d   1      10.338  64.260 -17.616  0.00  0.00     0.051 C 
ATOM     16  C   UNK d   1       8.843  66.105 -14.750  0.00  0.00     0.111 C 
ATOM     17  C   UNK d   1       9.002  61.898 -16.436  0.00  0.00     0.106 C 
ATOM     18  O   UNK d   1      10.129  61.735 -14.316  0.00  0.00    -0.273 OA
ENDBRANCH   7   9
BRANCH   1  19
ATOM     19  S   UNK d   1      14.814  62.956 -10.872  0.00  0.00     0.260 S 
ATOM     20  O   UNK d   1      14.130  63.766  -9.816  0.00  0.00    -0.200 OA
ATOM     21  O   UNK d   1      14.358  61.530 -10.687  0.00  0.00    -0.200 OA
BRANCH  19  22
ATOM     22  C   UNK d   1      16.559  62.959 -10.636  0.00  0.00     0.079 A 
ATOM     23  C   UNK d   1      17.250  61.775 -10.509  0.00  0.00     0.027 A 
ATOM     24  C   UNK d   1      18.612  61.742 -10.323  0.00  0.00     0.025 A 
ATOM     25  C   UNK d   1      19.356  62.906 -10.254  0.00  0.00     0.034 A 
ATOM     26  C   UNK d   1      18.633  64.080 -10.385  0.00  0.00     0.025 A 
ATOM     27 Cl   UNK d   1      21.091  62.901 -10.017  0.00  0.00    -0.084 Cl
ATOM     28  C   UNK d   1      17.274  64.128 -10.572  0.00  0.00     0.027 A 
ENDBRANCH  19  22
ENDBRANCH   1  19
TORSDOF 3
ENDMDL
