/Users/jonathanwahrer/Desktop/Msc/3_Semester/Drug_Design_Praktikum/waehrer_HTS_screening/HTS_experiment/out/docking_results/vina_output/3sx0/2304_docked.pdbqt
 OpenBabel03192223143D

 28 31  0  0  1  0  0  0  0  0999 V2000
   14.3530   63.4670  -12.4230 N   0  0  0  0  0  0  0  0  0  0  0  0
   14.4870   64.8510  -12.6800 C   0  0  0  0  0  2  0  0  0  0  0  0
   13.5820   65.3870  -13.7580 C   0  0  0  0  0  2  0  0  0  0  0  0
   12.2440   64.8720  -13.6810 N   0  0  0  0  0  0  0  0  0  0  0  0
   12.0250   63.7520  -12.8000 C   0  0  0  0  0  2  0  0  0  0  0  0
   13.2180   62.8160  -12.9760 C   0  0  0  0  0  2  0  0  0  0  0  0
   11.2200   65.4510  -14.4470 C   0  0  0  0  0  0  0  0  0  0  0  0
   11.5340   66.4210  -15.1940 O   0  0  0  0  0  0  0  0  0  0  0  0
    9.8020   64.9980  -14.4300 C   0  0  2  0  0  3  0  0  0  0  0  0
    9.5910   63.8940  -15.2930 N   0  0  0  0  0  0  0  0  0  0  0  0
    9.2320   64.1970  -16.6400 C   0  0  2  0  0  0  0  0  0  0  0  0
    9.6330   62.4490  -15.2390 C   0  0  0  0  0  0  0  0  0  0  0  0
    8.3100   65.7390  -16.4690 S   0  0  0  0  0  0  0  0  0  0  0  0
    8.2270   63.1100  -16.9710 C   0  0  0  0  0  2  0  0  0  0  0  0
   10.3380   64.2600  -17.6160 C   0  0  0  0  0  1  0  0  0  0  0  0
    8.8430   66.1050  -14.7500 C   0  0  0  0  0  2  0  0  0  0  0  0
    9.0020   61.8980  -16.4360 C   0  0  0  0  0  2  0  0  0  0  0  0
   10.1290   61.7350  -14.3160 O   0  0  0  0  0  0  0  0  0  0  0  0
   14.8140   62.9560  -10.8720 S   0  0  0  0  0  0  0  0  0  0  0  0
   14.1300   63.7660   -9.8160 O   0  0  0  0  0  0  0  0  0  0  0  0
   14.3580   61.5300  -10.6870 O   0  0  0  0  0  0  0  0  0  0  0  0
   16.5590   62.9590  -10.6360 C   0  0  0  0  0  0  0  0  0  0  0  0
   17.2500   61.7750  -10.5090 C   0  0  0  0  0  3  0  0  0  0  0  0
   18.6120   61.7420  -10.3230 C   0  0  0  0  0  3  0  0  0  0  0  0
   19.3560   62.9060  -10.2540 C   0  0  0  0  0  0  0  0  0  0  0  0
   18.6330   64.0800  -10.3850 C   0  0  0  0  0  3  0  0  0  0  0  0
   21.0910   62.9010  -10.0170 Cl  0  0  0  0  0  0  0  0  0  0  0  0
   17.2740   64.1280  -10.5720 C   0  0  0  0  0  3  0  0  0  0  0  0
  1 19  1  0  0  0  0
  2  1  1  0  0  0  0
  3  4  1  0  0  0  0
  3  2  1  0  0  0  0
  4  5  1  0  0  0  0
  6  5  1  0  0  0  0
  6  1  1  0  0  0  0
  7  4  1  0  0  0  0
  8  7  2  0  0  0  0
  9  7  1  6  0  0  0
 10 12  1  0  0  0  0
 10  9  1  0  0  0  0
 11 15  1  6  0  0  0
 11 13  1  0  0  0  0
 11 10  1  0  0  0  0
 12 18  2  0  0  0  0
 13 16  1  0  0  0  0
 14 11  1  0  0  0  0
 14 17  1  0  0  0  0
 16  9  1  0  0  0  0
 17 12  1  0  0  0  0
 19 21  2  0  0  0  0
 19 22  1  0  0  0  0
 19 20  2  0  0  0  0
 22 28  2  0  0  0  0
 22 23  1  0  0  0  0
 23 24  2  0  0  0  0
 24 25  1  0  0  0  0
 25 27  1  0  0  0  0
 26 25  2  0  0  0  0
 28 26  1  0  0  0  0
M  END
>  <Pose>
1

>  <Score>
-4.758

$$$$
