/Users/jonathanwahrer/Desktop/Msc/3_Semester/Drug_Design_Praktikum/waehrer_HTS_screening/HTS_experiment/out/docking_results/vina_output/3sx0/2330_docked.pdbqt
 OpenBabel03192223153D

 28 31  0  0  0  0  0  0  0  0999 V2000
   22.5010   63.9000   -9.2030 C   0  0  0  0  0  0  0  0  0  0  0  0
   23.3940   64.1190  -10.0550 O   0  0  0  0  0  0  0  0  0  0  0  0
   21.2500   63.4470   -9.6250 N   0  0  0  0  0  0  0  0  0  0  0  0
   20.5580   63.2790   -8.8090 H   0  0  0  0  0  0  0  0  0  0  0  0
   22.8460   64.1410   -7.7900 C   0  0  0  0  0  0  0  0  0  0  0  0
   22.2830   65.1720   -7.0670 C   0  0  0  0  0  0  0  0  0  0  0  0
   21.1240   66.2050   -7.8910 Cl  0  0  0  0  0  0  0  0  0  0  0  0
   22.6090   65.4000   -5.7320 C   0  0  0  0  0  3  0  0  0  0  0  0
   23.5170   64.5720   -5.1250 C   0  0  0  0  0  3  0  0  0  0  0  0
   24.1160   63.5130   -5.8150 C   0  0  0  0  0  0  0  0  0  0  0  0
   23.7530   63.3430   -7.1260 C   0  0  0  0  0  3  0  0  0  0  0  0
   25.0770   62.6580   -5.1330 C   0  0  0  0  0  0  0  0  0  0  0  0
   26.1980   62.0980   -5.5980 N   0  0  0  0  0  0  0  0  0  0  0  0
   26.7730   61.3890   -4.6140 N   0  0  0  0  0  0  0  0  0  0  0  0
   26.0200   61.4990   -3.5330 N   0  0  0  0  0  0  0  0  0  0  0  0
   27.6600   60.8380   -4.6710 H   0  0  0  0  0  0  0  0  0  0  0  0
   24.9820   62.2760   -3.8500 N   0  0  0  0  0  0  0  0  0  0  0  0
   20.7450   63.1780  -10.9090 C   0  0  0  0  0  2  0  0  0  0  0  0
   19.3170   63.3370  -11.2110 C   0  0  0  0  0  2  0  0  0  0  0  0
   18.3790   62.2800  -10.8420 C   0  0  0  0  0  0  0  0  0  0  0  0
   17.0430   62.3110  -10.9120 N   0  0  0  0  0  0  0  0  0  0  0  0
   16.5800   61.1340  -10.5230 C   0  0  0  0  0  0  0  0  0  0  0  0
   16.1900   63.2840  -11.2880 C   0  0  0  0  0  3  0  0  0  0  0  0
   17.6310   60.3650  -10.2090 N   0  0  0  0  0  0  0  0  0  0  0  0
   15.2320   60.8450  -10.4820 C   0  0  0  0  0  3  0  0  0  0  0  0
   18.7170   61.0630  -10.4040 N   0  0  0  0  0  0  0  0  0  0  0  0
   14.3570   61.8440  -10.8670 C   0  0  0  0  0  3  0  0  0  0  0  0
   14.8460   63.0570  -11.2670 C   0  0  0  0  0  3  0  0  0  0  0  0
  1  5  1  0  0  0  0
  2  1  2  0  0  0  0
  3  1  1  0  0  0  0
  3  4  1  0  0  0  0
  5 11  2  0  0  0  0
  5  6  1  0  0  0  0
  6  8  2  0  0  0  0
  7  6  1  0  0  0  0
  8  9  1  0  0  0  0
 10 12  1  0  0  0  0
 10  9  2  0  0  0  0
 11 10  1  0  0  0  0
 12 17  1  0  0  0  0
 13 12  2  0  0  0  0
 13 14  1  0  0  0  0
 14 15  1  0  0  0  0
 16 14  1  0  0  0  0
 17 15  2  0  0  0  0
 18  3  1  0  0  0  0
 19 18  1  0  0  0  0
 19 20  1  0  0  0  0
 20 26  2  0  0  0  0
 21 20  1  0  0  0  0
 21 22  1  0  0  0  0
 22 25  1  0  0  0  0
 22 24  2  0  0  0  0
 23 28  2  0  0  0  0
 23 21  1  0  0  0  0
 26 24  1  0  0  0  0
 27 25  2  0  0  0  0
 28 27  1  0  0  0  0
M  END
>  <Pose>
1

>  <Score>
-9.414

$$$$
