MODEL 1
REMARK VINA RESULT:    -9.414      0.000      0.000
REMARK INTER + INTRA:         -12.693
REMARK INTER:                 -12.166
REMARK INTRA:                  -0.527
REMARK UNBOUND:                -0.527
REMARK  5 active torsions:
REMARK  status: ('A' for Active; 'I' for Inactive)
REMARK    1  A    between atoms: C_3  and  C_13 
REMARK    2  A    between atoms: C_5  and  C_8 
REMARK       I    between atoms: C_13  and  N_15 
REMARK    3  A    between atoms: N_15  and  C_16 
REMARK    4  A    between atoms: C_16  and  C_17 
REMARK    5  A    between atoms: C_17  and  C_18 
ROOT
ATOM      1  C   UNK d   1      22.501  63.900  -9.203  0.00  0.00     0.253 C 
ATOM      2  O   UNK d   1      23.394  64.119 -10.055  0.00  0.00    -0.268 OA
ATOM      3  N   UNK d   1      21.250  63.447  -9.625  0.00  0.00    -0.356 N 
ATOM      4  H   UNK d   1      20.558  63.279  -8.809  0.00  0.00     0.162 HD
ENDROOT
BRANCH   1   5
ATOM      5  C   UNK d   1      22.846  64.141  -7.790  0.00  0.00     0.054 A 
ATOM      6  C   UNK d   1      22.283  65.172  -7.067  0.00  0.00     0.049 A 
ATOM      7 Cl   UNK d   1      21.124  66.205  -7.891  0.00  0.00    -0.083 Cl
ATOM      8  C   UNK d   1      22.609  65.400  -5.732  0.00  0.00     0.026 A 
ATOM      9  C   UNK d   1      23.517  64.572  -5.125  0.00  0.00     0.017 A 
ATOM     10  C   UNK d   1      24.116  63.513  -5.815  0.00  0.00     0.016 A 
ATOM     11  C   UNK d   1      23.753  63.343  -7.126  0.00  0.00     0.034 A 
BRANCH  10  12
ATOM     12  C   UNK d   1      25.077  62.658  -5.133  0.00  0.00     0.197 A 
ATOM     13  N   UNK d   1      26.198  62.098  -5.598  0.00  0.00    -0.139 NA
ATOM     14  N   UNK d   1      26.773  61.389  -4.614  0.00  0.00    -0.200 N 
ATOM     15  N   UNK d   1      26.020  61.499  -3.533  0.00  0.00     0.022 NA
ATOM     16  H   UNK d   1      27.660  60.838  -4.671  0.00  0.00     0.208 HD
ATOM     17  N   UNK d   1      24.982  62.276  -3.850  0.00  0.00    -0.136 NA
ENDBRANCH  10  12
ENDBRANCH   1   5
BRANCH   3  18
ATOM     18  C   UNK d   1      20.745  63.178 -10.909  0.00  0.00     0.130 C 
BRANCH  18  19
ATOM     19  C   UNK d   1      19.317  63.337 -11.211  0.00  0.00     0.100 C 
BRANCH  19  20
ATOM     20  C   UNK d   1      18.379  62.280 -10.842  0.00  0.00     0.136 A 
ATOM     21  N   UNK d   1      17.043  62.311 -10.912  0.00  0.00    -0.292 N 
ATOM     22  C   UNK d   1      16.580  61.134 -10.523  0.00  0.00     0.157 A 
ATOM     23  C   UNK d   1      16.190  63.284 -11.288  0.00  0.00     0.100 A 
ATOM     24  N   UNK d   1      17.631  60.365 -10.209  0.00  0.00    -0.130 NA
ATOM     25  C   UNK d   1      15.232  60.845 -10.482  0.00  0.00     0.053 A 
ATOM     26  N   UNK d   1      18.717  61.063 -10.404  0.00  0.00    -0.134 NA
ATOM     27  C   UNK d   1      14.357  61.844 -10.867  0.00  0.00     0.005 A 
ATOM     28  C   UNK d   1      14.846  63.057 -11.267  0.00  0.00     0.018 A 
ENDBRANCH  19  20
ENDBRANCH  18  19
ENDBRANCH   3  18
TORSDOF 5
ENDMDL
