/Users/jonathanwahrer/Desktop/Msc/3_Semester/Drug_Design_Praktikum/waehrer_HTS_screening/HTS_experiment/out/docking_results/vina_output/3sx0/2334_docked.pdbqt
 OpenBabel03192223153D

 30 33  0  0  1  0  0  0  0  0999 V2000
   14.8020   64.1860  -11.1910 S   0  0  0  0  0  0  0  0  0  0  0  0
   15.3950   65.5910  -11.0630 O   0  0  0  0  0  0  0  0  0  0  0  0
   13.7350   64.1320  -10.0920 O   0  0  0  0  0  0  0  0  0  0  0  0
   14.0700   64.1090  -12.7170 N   0  0  0  0  0  0  0  0  0  0  0  0
   12.6620   63.9270  -12.7420 C   0  0  0  0  0  2  0  0  0  0  0  0
   12.0870   63.9030  -14.1390 C   0  0  1  0  0  3  0  0  0  0  0  0
   12.4660   65.1400  -14.8790 C   0  0  0  0  0  2  0  0  0  0  0  0
   13.9570   65.4130  -14.7910 C   0  0  0  0  0  2  0  0  0  0  0  0
   14.3650   65.4080  -13.3590 C   0  0  0  0  0  2  0  0  0  0  0  0
   12.3230   62.6410  -14.8680 C   0  0  0  0  0  0  0  0  0  0  0  0
   13.3120   61.9400  -14.4380 O   0  0  0  0  0  0  0  0  0  0  0  0
   11.6060   62.1380  -15.9450 N   0  0  0  0  0  0  0  0  0  0  0  0
   11.9200   60.8760  -16.5370 C   0  0  0  0  0  2  0  0  0  0  0  0
   10.5110   62.8670  -16.5380 C   0  0  0  0  0  2  0  0  0  0  0  0
   10.7150   60.1100  -17.0060 C   0  0  0  0  0  2  0  0  0  0  0  0
    9.6150   60.8600  -17.2850 O   0  0  0  0  0  0  0  0  0  0  0  0
    9.3290   61.8920  -16.4150 C   0  0  0  0  0  2  0  0  0  0  0  0
   15.9970   63.0140  -10.8260 C   0  0  0  0  0  0  0  0  0  0  0  0
   15.7110   61.6760  -10.7020 C   0  0  0  0  0  0  0  0  0  0  0  0
   16.7330   60.7680  -10.4700 C   0  0  0  0  0  3  0  0  0  0  0  0
   14.0840   61.0300  -10.7400 Cl  0  0  0  0  0  0  0  0  0  0  0  0
   18.0630   61.1820  -10.3550 C   0  0  0  0  0  3  0  0  0  0  0  0
   18.3630   62.5210  -10.4740 C   0  0  0  0  0  0  0  0  0  0  0  0
   17.3360   63.4050  -10.7050 C   0  0  0  0  0  3  0  0  0  0  0  0
   19.7400   62.9800  -10.3570 C   0  0  0  0  0  0  0  0  0  0  0  0
   20.5190   63.4150  -11.3620 N   0  0  0  0  0  0  0  0  0  0  0  0
   21.6930   63.7470  -10.9020 O   0  0  0  0  0  0  0  0  0  0  0  0
   21.7170   63.5460   -9.6110 C   0  0  0  0  0  0  0  0  0  0  0  0
   20.5080   63.0680   -9.2590 N   0  0  0  0  0  0  0  0  0  0  0  0
   22.8720   63.7940   -8.6800 C   0  0  0  0  0  1  0  0  0  0  0  0
  1  2  2  0  0  0  0
  1 18  1  0  0  0  0
  1  3  2  0  0  0  0
  4  1  1  0  0  0  0
  5  4  1  0  0  0  0
  6 10  1  6  0  0  0
  6  5  1  0  0  0  0
  7  8  1  0  0  0  0
  7  6  1  0  0  0  0
  8  9  1  0  0  0  0
  9  4  1  0  0  0  0
 10 11  2  0  0  0  0
 12 10  1  0  0  0  0
 13 12  1  0  0  0  0
 14 17  1  0  0  0  0
 14 12  1  0  0  0  0
 15 13  1  0  0  0  0
 16 15  1  0  0  0  0
 16 17  1  0  0  0  0
 18 24  2  0  0  0  0
 18 19  1  0  0  0  0
 19 20  2  0  0  0  0
 20 22  1  0  0  0  0
 21 19  1  0  0  0  0
 23 25  1  0  0  0  0
 23 22  2  0  0  0  0
 24 23  1  0  0  0  0
 25 29  1  0  0  0  0
 26 27  1  0  0  0  0
 26 25  2  0  0  0  0
 27 28  1  0  0  0  0
 28 29  2  0  0  0  0
 28 30  1  0  0  0  0
M  END
>  <Pose>
1

>  <Score>
-7.382

$$$$
