MODEL 1
REMARK VINA RESULT:    -6.694      0.000      0.000
REMARK INTER + INTRA:          -9.641
REMARK INTER:                  -9.433
REMARK INTRA:                  -0.208
REMARK UNBOUND:                -0.208
REMARK  7 active torsions:
REMARK  status: ('A' for Active; 'I' for Inactive)
REMARK    1  A    between atoms: S_1  and  N_4 
REMARK    2  A    between atoms: S_1  and  C_21 
REMARK    3  A    between atoms: C_6  and  C_10 
REMARK       I    between atoms: C_10  and  N_12 
REMARK    4  A    between atoms: N_12  and  C_13 
REMARK    5  A    between atoms: C_13  and  C_14 
REMARK    6  A    between atoms: C_14  and  N_15 
REMARK       I    between atoms: N_30  and  C_31 
REMARK    7  A    between atoms: C_31  and  C_33 
ROOT
ATOM      1  N   UNK d   1      13.625  64.260 -12.985  0.00  0.00    -0.306 N 
ATOM      2  C   UNK d   1      14.004  62.961 -12.594  0.00  0.00     0.149 C 
ATOM      3  C   UNK d   1      14.145  62.795 -11.096  0.00  0.00     0.096 C 
ATOM      4  C   UNK d   1      14.500  64.041 -10.379  0.00  0.00     0.017 C 
ATOM      5  C   UNK d   1      15.034  65.162 -11.194  0.00  0.00     0.021 C 
ATOM      6  C   UNK d   1      14.414  65.330 -12.557  0.00  0.00     0.135 C 
ENDROOT
BRANCH   1   7
ATOM      7  S   UNK d   1      12.237  64.491 -13.870  0.00  0.00     0.262 S 
ATOM      8  O   UNK d   1      11.064  64.653 -12.904  0.00  0.00    -0.200 OA
ATOM      9  O   UNK d   1      11.914  63.198 -14.607  0.00  0.00    -0.200 OA
BRANCH   7  10
ATOM     10  C   UNK d   1      12.249  65.779 -15.017  0.00  0.00     0.099 A 
ATOM     11  C   UNK d   1      11.875  67.058 -14.634  0.00  0.00     0.057 A 
ATOM     12  C   UNK d   1      11.880  68.121 -15.505  0.00  0.00     0.045 A 
ATOM     13  C   UNK d   1      12.276  67.906 -16.830  0.00  0.00    -0.028 A 
ATOM     14  N   UNK d   1      11.573  69.506 -15.421  0.00  0.00    -0.317 N 
ATOM     15  C   UNK d   1      12.639  66.651 -17.195  0.00  0.00     0.030 A 
ATOM     16  C   UNK d   1      12.209  69.175 -17.603  0.00  0.00     0.061 C 
ATOM     17  C   UNK d   1      12.634  65.581 -16.316  0.00  0.00     0.035 A 
ATOM     18 Br   UNK d   1      13.168  63.839 -16.952  0.00  0.00    -0.049 Br
ATOM     19  C   UNK d   1      11.245  69.991 -16.766  0.00  0.00     0.137 C 
ATOM     20  C   UNK d   1      11.569  70.321 -14.291  0.00  0.00     0.224 C 
ATOM     21  O   UNK d   1      11.312  71.569 -14.411  0.00  0.00    -0.273 OA
BRANCH  20  22
ATOM     22  C   UNK d   1      11.845  69.846 -12.937  0.00  0.00     0.099 C 
ATOM     23  C   UNK d   1      12.211  70.988 -11.993  0.00  0.00     0.014 C 
ENDBRANCH  20  22
ENDBRANCH   7  10
ENDBRANCH   1   7
BRANCH   3  24
ATOM     24  C   UNK d   1      15.119  61.722 -10.771  0.00  0.00     0.223 C 
ATOM     25  O   UNK d   1      14.674  60.569 -10.552  0.00  0.00    -0.273 OA
ATOM     26  N   UNK d   1      16.534  62.011 -10.714  0.00  0.00    -0.359 N 
ATOM     27  H   UNK d   1      16.790  62.984 -10.900  0.00  0.00     0.162 HD
BRANCH  26  28
ATOM     28  C   UNK d   1      17.406  60.938 -10.400  0.00  0.00     0.142 C 
BRANCH  28  29
ATOM     29  C   UNK d   1      18.805  61.238 -10.015  0.00  0.00     0.136 C 
BRANCH  29  30
ATOM     30  N   UNK d   1      19.269  62.573 -10.082  0.00  0.00    -0.407 N 
ATOM     31  C   UNK d   1      20.034  62.954 -11.178  0.00  0.00     0.143 C 
ATOM     32  C   UNK d   1      21.464  63.322 -10.907  0.00  0.00     0.187 C 
ATOM     33  O   UNK d   1      21.616  64.044  -9.732  0.00  0.00    -0.388 OA
ATOM     34  C   UNK d   1      21.215  63.200  -8.696  0.00  0.00     0.187 C 
ATOM     35  C   UNK d   1      19.714  63.064  -8.798  0.00  0.00     0.143 C 
ENDBRANCH  29  30
ENDBRANCH  28  29
ENDBRANCH  26  28
ENDBRANCH   3  24
TORSDOF 7
ENDMDL
