MODEL 1
REMARK VINA RESULT:    -7.133      0.000      0.000
REMARK INTER + INTRA:          -8.352
REMARK INTER:                  -8.384
REMARK INTRA:                   0.032
REMARK UNBOUND:                 0.032
REMARK  3 active torsions:
REMARK  status: ('A' for Active; 'I' for Inactive)
REMARK    1  A    between atoms: C_5  and  N_8 
REMARK    2  A    between atoms: C_10  and  C_14 
REMARK       I    between atoms: C_14  and  N_16 
REMARK    3  A    between atoms: N_19  and  C_22 
ROOT
ATOM      1  C   UNK d   1      13.613  64.224 -12.680  0.00  0.00     0.226 C 
ATOM      2  O   UNK d   1      13.807  65.497 -12.667  0.00  0.00    -0.273 OA
ATOM      3  N   UNK d   1      13.164  63.681 -13.889  0.00  0.00    -0.349 N 
ATOM      4  C   UNK d   1      12.930  64.543 -15.037  0.00  0.00     0.146 C 
ATOM      5  C   UNK d   1      11.493  64.400 -15.529  0.00  0.00     0.161 C 
ATOM      6  N   UNK d   1      11.070  63.043 -15.346  0.00  0.00    -0.213 N 
ATOM      7  C   UNK d   1      12.061  62.010 -15.330  0.00  0.00     0.161 C 
ATOM      8  C   UNK d   1      12.913  62.272 -14.072  0.00  0.00     0.146 C 
ENDROOT
BRANCH   1   9
ATOM      9  C   UNK d   1      13.884  63.501 -11.432  0.00  0.00     0.105 C 
ATOM     10  C   UNK d   1      15.061  64.008 -10.646  0.00  0.00     0.146 C 
ATOM     11  N   UNK d   1      16.070  62.956 -10.691  0.00  0.00    -0.317 N 
ATOM     12  C   UNK d   1      15.333  61.730 -10.890  0.00  0.00     0.225 C 
ATOM     13  C   UNK d   1      14.045  62.023 -11.561  0.00  0.00     0.119 C 
ATOM     14  O   UNK d   1      15.813  60.614 -10.507  0.00  0.00    -0.273 OA
BRANCH  11  15
ATOM     15  C   UNK d   1      17.483  63.086 -10.567  0.00  0.00     0.037 A 
ATOM     16  C   UNK d   1      18.131  62.947  -9.359  0.00  0.00     0.031 A 
ATOM     17  C   UNK d   1      19.502  63.076  -9.235  0.00  0.00     0.026 A 
ATOM     18  C   UNK d   1      20.271  63.351 -10.335  0.00  0.00     0.034 A 
ATOM     19 Cl   UNK d   1      22.020  63.519 -10.194  0.00  0.00    -0.084 Cl
ATOM     20  C   UNK d   1      19.660  63.495 -11.549  0.00  0.00     0.026 A 
ATOM     21  C   UNK d   1      18.269  63.363 -11.665  0.00  0.00     0.031 A 
ENDBRANCH  11  15
ENDBRANCH   1   9
BRANCH   6  22
ATOM     22  C   UNK d   1       9.706  62.725 -15.175  0.00  0.00     0.704 A 
ATOM     23  N   UNK d   1       8.816  62.407 -16.155  0.00  0.00    -0.195 N 
ATOM     24  C   UNK d   1       7.622  62.163 -15.597  0.00  0.00     0.128 A 
ATOM     25  C   UNK d   1       9.117  62.345 -17.592  0.00  0.00     0.175 C 
ATOM     26  C   UNK d   1       7.742  62.328 -14.238  0.00  0.00     0.154 A 
ATOM     27  N   UNK d   1       9.003  62.664 -14.027  0.00  0.00    -0.075 NA
ENDBRANCH   6  22
TORSDOF 3
ENDMDL
