MODEL 1
REMARK VINA RESULT:    -4.516      0.000      0.000
REMARK INTER + INTRA:          -5.061
REMARK INTER:                  -4.780
REMARK INTRA:                  -0.281
REMARK UNBOUND:                -0.281
REMARK  1 active torsions:
REMARK  status: ('A' for Active; 'I' for Inactive)
REMARK    1  A    between atoms: C_5  and  N_8 
ROOT
ATOM      1  N   UNK d   1      12.139  65.881 -15.665  0.00  0.00    -0.231 N 
ATOM      2  C   UNK d   1      13.515  65.556 -15.912  0.00  0.00     0.357 A 
ATOM      3  O   UNK d   1      14.380  66.473 -15.832  0.00  0.00    -0.244 OA
ATOM      4  N   UNK d   1      13.805  64.206 -16.230  0.00  0.00    -0.169 NA
ATOM      5  C   UNK d   1      12.955  63.281 -16.322  0.00  0.00     0.202 A 
ATOM      6  C   UNK d   1      11.472  63.429 -16.120  0.00  0.00     0.140 A 
ATOM      7  C   UNK d   1      10.878  63.151 -17.472  0.00  0.00     0.269 C 
ATOM      8  N   UNK d   1       9.539  62.705 -17.515  0.00  0.00    -0.043 N 
ATOM      9  C   UNK d   1       9.159  61.774 -16.520  0.00  0.00     0.140 A 
ATOM     10  C   UNK d   1       9.883  61.666 -15.376  0.00  0.00    -0.021 A 
ATOM     11  C   UNK d   1       9.477  60.739 -14.419  0.00  0.00     0.016 A 
ATOM     12  C   UNK d   1       8.363  59.957 -14.647  0.00  0.00    -0.061 A 
ATOM     13  C   UNK d   1       7.625  60.067 -15.816  0.00  0.00     0.009 A 
ATOM     14  C   UNK d   1       8.043  60.999 -16.765  0.00  0.00     0.038 A 
ATOM     15  C   UNK d   1       7.907  58.944 -13.643  0.00  0.00     0.048 C 
ATOM     16  C   UNK d   1      11.083  62.471 -15.061  0.00  0.00     0.070 C 
ATOM     17  C   UNK d   1       8.534  63.751 -17.616  0.00  0.00     0.276 C 
ATOM     18  C   UNK d   1      11.186  64.836 -15.748  0.00  0.00     0.251 A 
ATOM     19  O   UNK d   1       9.990  65.200 -15.462  0.00  0.00    -0.271 OA
ATOM     20  O   UNK d   1      13.363  61.972 -16.640  0.00  0.00    -0.173 OA
ATOM     21  H   UNK d   1       9.429  62.163 -18.431  0.00  0.00     0.286 HD
ENDROOT
BRANCH   1  22
ATOM     22  C   UNK d   1      11.834  67.233 -15.388  0.00  0.00     0.047 A 
ATOM     23  C   UNK d   1      11.575  68.149 -16.410  0.00  0.00     0.032 A 
ATOM     24  C   UNK d   1      11.271  69.462 -16.167  0.00  0.00     0.026 A 
ATOM     25  C   UNK d   1      11.203  69.967 -14.868  0.00  0.00     0.034 A 
ATOM     26 Cl   UNK d   1      10.802  71.649 -14.580  0.00  0.00    -0.084 Cl
ATOM     27  C   UNK d   1      11.460  69.062 -13.857  0.00  0.00     0.026 A 
ATOM     28  C   UNK d   1      11.764  67.745 -14.103  0.00  0.00     0.032 A 
ENDBRANCH   1  22
TORSDOF 1
ENDMDL
