MODEL 1
REMARK VINA RESULT:    -5.340      0.000      0.000
REMARK INTER + INTRA:          -6.509
REMARK INTER:                  -5.964
REMARK INTRA:                  -0.545
REMARK UNBOUND:                -0.545
REMARK  3 active torsions:
REMARK  status: ('A' for Active; 'I' for Inactive)
REMARK    1  A    between atoms: C_5  and  N_8 
REMARK    2  A    between atoms: C_13  and  O_21 
REMARK    3  A    between atoms: C_14  and  O_20 
ROOT
ATOM      1  N   UNK d   1      12.290  64.038 -14.236  0.00  0.00    -0.252 N 
ATOM      2  C   UNK d   1      12.372  63.641 -15.614  0.00  0.00     0.236 C 
ATOM      3  O   UNK d   1      13.449  63.322 -16.178  0.00  0.00    -0.272 OA
ATOM      4  C   UNK d   1      11.031  63.668 -16.249  0.00  0.00     0.099 C 
ATOM      5  C   UNK d   1      10.548  62.325 -16.693  0.00  0.00     0.031 C 
ATOM      6  C   UNK d   1      11.147  61.297 -15.756  0.00  0.00     0.152 C 
ATOM      7  C   UNK d   1      10.472  61.662 -14.435  0.00  0.00     0.152 C 
ATOM      8  C   UNK d   1       9.468  62.742 -14.764  0.00  0.00     0.031 C 
ATOM      9  C   UNK d   1      10.100  64.058 -15.094  0.00  0.00     0.099 C 
ATOM     10  C   UNK d   1      10.996  64.585 -14.037  0.00  0.00     0.236 C 
ATOM     11  O   UNK d   1      10.636  65.382 -13.136  0.00  0.00    -0.272 OA
ATOM     12  C   UNK d   1       9.095  62.282 -16.191  0.00  0.00     0.016 C 
ENDROOT
BRANCH   1  13
ATOM     13  C   UNK d   1      13.275  63.924 -13.217  0.00  0.00     0.045 A 
ATOM     14  C   UNK d   1      14.155  64.982 -12.957  0.00  0.00     0.032 A 
ATOM     15  C   UNK d   1      15.115  64.874 -11.979  0.00  0.00     0.026 A 
ATOM     16  C   UNK d   1      15.245  63.726 -11.221  0.00  0.00     0.034 A 
ATOM     17 Cl   UNK d   1      16.487  63.614  -9.976  0.00  0.00    -0.084 Cl
ATOM     18  C   UNK d   1      14.385  62.663 -11.460  0.00  0.00     0.026 A 
ATOM     19  C   UNK d   1      13.435  62.799 -12.444  0.00  0.00     0.032 A 
ENDBRANCH   1  13
BRANCH   6  20
ATOM     20  O   UNK d   1      10.679  60.057 -16.134  0.00  0.00    -0.393 OA
ATOM     21  H   UNK d   1      10.026  59.651 -15.518  0.00  0.00     0.210 HD
ENDBRANCH   6  20
BRANCH   7  22
ATOM     22  O   UNK d   1       9.734  60.589 -13.940  0.00  0.00    -0.393 OA
ATOM     23  H   UNK d   1      10.138  60.333 -13.057  0.00  0.00     0.210 HD
ENDBRANCH   7  22
TORSDOF 3
ENDMDL
