MODEL 1
REMARK VINA RESULT:    -7.014      0.000      0.000
REMARK INTER + INTRA:         -10.006
REMARK INTER:                  -9.270
REMARK INTRA:                  -0.736
REMARK UNBOUND:                -0.736
REMARK  6 active torsions:
REMARK  status: ('A' for Active; 'I' for Inactive)
REMARK    1  A    between atoms: C_5  and  N_8 
REMARK    2  A    between atoms: C_14  and  C_17 
REMARK    3  A    between atoms: C_19  and  C_22 
REMARK    4  A    between atoms: C_24  and  O_31 
REMARK    5  A    between atoms: C_25  and  O_30 
REMARK    6  A    between atoms: C_26  and  O_28 
ROOT
ATOM      1  C   UNK d   1      13.771  63.874 -13.028  0.00  0.00     0.041 C 
ATOM      2  C   UNK d   1      13.612  63.148 -11.939  0.00  0.00     0.026 C 
ATOM      3  C   UNK d   1      14.407  63.722 -10.825  0.00  0.00     0.134 C 
ATOM      4  N   UNK d   1      14.648  65.067 -11.269  0.00  0.00    -0.228 NA
ATOM      5  N   UNK d   1      14.651  64.933 -12.665  0.00  0.00    -0.323 N 
ATOM      6  H   UNK d   1      15.483  65.510 -10.888  0.00  0.00     0.147 HD
ATOM      7  H   UNK d   1      15.211  65.522 -13.314  0.00  0.00     0.180 HD
ENDROOT
BRANCH   1   8
ATOM      8  C   UNK d   1      13.155  63.655 -14.383  0.00  0.00     0.221 C 
ATOM      9  C   UNK d   1      11.821  63.028 -14.246  0.00  0.00     0.244 C 
ATOM     10  N   UNK d   1      10.675  63.840 -14.085  0.00  0.00    -0.277 N 
ATOM     11  O   UNK d   1      11.722  61.786 -14.273  0.00  0.00    -0.272 OA
ATOM     12  C   UNK d   1      10.712  65.201 -14.403  0.00  0.00     0.336 C 
ATOM     13  H   UNK d   1       9.760  63.443 -13.724  0.00  0.00     0.173 HD
ATOM     14  N   UNK d   1      11.902  65.802 -14.895  0.00  0.00    -0.233 N 
ATOM     15  O   UNK d   1       9.689  65.959 -14.268  0.00  0.00    -0.246 OA
ATOM     16  C   UNK d   1      13.045  64.974 -15.050  0.00  0.00     0.251 C 
ATOM     17  O   UNK d   1      13.984  65.361 -15.767  0.00  0.00    -0.271 OA
BRANCH  14  18
ATOM     18  C   UNK d   1      11.919  67.188 -15.211  0.00  0.00     0.047 A 
ATOM     19  C   UNK d   1      11.769  67.607 -16.508  0.00  0.00     0.032 A 
ATOM     20  C   UNK d   1      11.779  68.945 -16.847  0.00  0.00     0.026 A 
ATOM     21  C   UNK d   1      11.941  69.901 -15.876  0.00  0.00     0.034 A 
ATOM     22 Cl   UNK d   1      11.957  71.621 -16.287  0.00  0.00    -0.084 Cl
ATOM     23  C   UNK d   1      12.093  69.503 -14.569  0.00  0.00     0.026 A 
ATOM     24  C   UNK d   1      12.080  68.140 -14.244  0.00  0.00     0.032 A 
ENDBRANCH  14  18
ENDBRANCH   1   8
BRANCH   3  25
ATOM     25  C   UNK d   1      15.608  62.915 -10.643  0.00  0.00    -0.030 A 
ATOM     26  C   UNK d   1      16.815  63.561 -10.478  0.00  0.00     0.049 A 
ATOM     27  C   UNK d   1      18.006  62.888 -10.296  0.00  0.00     0.104 A 
ATOM     28  C   UNK d   1      17.968  61.488 -10.282  0.00  0.00     0.133 A 
ATOM     29  C   UNK d   1      16.787  60.797 -10.444  0.00  0.00     0.104 A 
ATOM     30  C   UNK d   1      15.635  61.538 -10.621  0.00  0.00     0.049 A 
BRANCH  27  31
ATOM     31  O   UNK d   1      19.227  63.530 -10.129  0.00  0.00    -0.353 OA
ATOM     32  C   UNK d   1      20.055  63.633 -11.269  0.00  0.00     0.210 C 
ENDBRANCH  27  31
BRANCH  28  33
ATOM     33  O   UNK d   1      19.130  60.771 -10.104  0.00  0.00    -0.356 OA
ATOM     34  H   UNK d   1      19.372  60.036 -10.754  0.00  0.00     0.218 HD
ENDBRANCH  28  33
BRANCH  29  35
ATOM     35  O   UNK d   1      16.804  59.435 -10.424  0.00  0.00    -0.353 OA
ATOM     36  C   UNK d   1      17.009  58.618  -9.308  0.00  0.00     0.210 C 
ENDBRANCH  29  35
ENDBRANCH   3  25
TORSDOF 6
ENDMDL
