MODEL 1
REMARK VINA RESULT:    -8.466      0.000      0.000
REMARK INTER + INTRA:         -10.636
REMARK INTER:                 -10.693
REMARK INTRA:                   0.057
REMARK UNBOUND:                 0.057
REMARK  5 active torsions:
REMARK  status: ('A' for Active; 'I' for Inactive)
REMARK    1  A    between atoms: C_5  and  N_8 
REMARK    2  A    between atoms: C_14  and  C_17 
REMARK    3  A    between atoms: C_19  and  C_22 
REMARK    4  A    between atoms: C_24  and  O_30 
REMARK    5  A    between atoms: C_25  and  O_28 
ROOT
ATOM      1  N   UNK d   1      22.792  64.291  -6.998  0.00  0.00    -0.233 N 
ATOM      2  C   UNK d   1      22.107  65.525  -6.837  0.00  0.00     0.336 C 
ATOM      3  O   UNK d   1      22.202  66.121  -5.724  0.00  0.00    -0.246 OA
ATOM      4  N   UNK d   1      21.337  66.085  -7.881  0.00  0.00    -0.277 N 
ATOM      5  C   UNK d   1      21.227  65.425  -9.127  0.00  0.00     0.244 C 
ATOM      6  O   UNK d   1      20.687  65.995 -10.138  0.00  0.00    -0.272 OA
ATOM      7  C   UNK d   1      21.723  64.062  -9.317  0.00  0.00     0.221 C 
ATOM      8  C   UNK d   1      22.658  63.656  -8.261  0.00  0.00     0.251 C 
ATOM      9  O   UNK d   1      23.430  62.655  -8.461  0.00  0.00    -0.271 OA
ATOM     10  H   UNK d   1      20.836  67.001  -7.741  0.00  0.00     0.173 HD
ENDROOT
BRANCH   7  11
ATOM     11  C   UNK d   1      20.581  63.111  -9.457  0.00  0.00     0.041 C 
ATOM     12  C   UNK d   1      19.616  62.875  -8.608  0.00  0.00     0.026 C 
ATOM     13  C   UNK d   1      18.737  61.848  -9.217  0.00  0.00     0.134 C 
ATOM     14  N   UNK d   1      19.558  61.253 -10.250  0.00  0.00    -0.228 NA
ATOM     15  N   UNK d   1      20.411  62.301 -10.615  0.00  0.00    -0.323 N 
ATOM     16  H   UNK d   1      20.094  60.429  -9.887  0.00  0.00     0.147 HD
ATOM     17  H   UNK d   1      20.817  62.416 -11.580  0.00  0.00     0.180 HD
BRANCH  13  18
ATOM     18  C   UNK d   1      17.529  62.479  -9.818  0.00  0.00    -0.032 A 
ATOM     19  C   UNK d   1      16.540  61.742 -10.427  0.00  0.00     0.048 A 
ATOM     20  C   UNK d   1      15.416  62.318 -10.989  0.00  0.00     0.099 A 
ATOM     21  C   UNK d   1      15.252  63.684 -10.951  0.00  0.00     0.101 A 
ATOM     22  C   UNK d   1      16.228  64.438 -10.347  0.00  0.00     0.040 A 
ATOM     23  C   UNK d   1      17.344  63.854  -9.791  0.00  0.00     0.012 A 
BRANCH  20  24
ATOM     24  O   UNK d   1      14.456  61.525 -11.587  0.00  0.00    -0.358 OA
ATOM     25  H   UNK d   1      14.290  61.563 -12.573  0.00  0.00     0.217 HD
ENDBRANCH  20  24
BRANCH  21  26
ATOM     26  O   UNK d   1      14.137  64.280 -11.506  0.00  0.00    -0.353 OA
ATOM     27  C   UNK d   1      14.233  64.896 -12.770  0.00  0.00     0.210 C 
ENDBRANCH  21  26
ENDBRANCH  13  18
ENDBRANCH   7  11
BRANCH   1  28
ATOM     28  C   UNK d   1      23.577  63.705  -5.967  0.00  0.00     0.047 A 
ATOM     29  C   UNK d   1      24.842  63.183  -6.209  0.00  0.00     0.032 A 
ATOM     30  C   UNK d   1      25.598  62.621  -5.225  0.00  0.00     0.026 A 
ATOM     31  C   UNK d   1      25.103  62.559  -3.930  0.00  0.00     0.034 A 
ATOM     32 Cl   UNK d   1      26.046  61.845  -2.636  0.00  0.00    -0.084 Cl
ATOM     33  C   UNK d   1      23.846  63.070  -3.654  0.00  0.00     0.026 A 
ATOM     34  C   UNK d   1      23.090  63.641  -4.681  0.00  0.00     0.032 A 
ENDBRANCH   1  28
TORSDOF 5
ENDMDL
