MODEL 1
REMARK VINA RESULT:   -11.749      0.000      0.000
REMARK INTER + INTRA:         -14.796
REMARK INTER:                 -14.153
REMARK INTRA:                  -0.644
REMARK UNBOUND:                -0.644
REMARK  4 active torsions:
REMARK  status: ('A' for Active; 'I' for Inactive)
REMARK    1  A    between atoms: C_5  and  N_8 
REMARK    2  A    between atoms: C_14  and  C_17 
REMARK    3  A    between atoms: C_19  and  C_22 
REMARK    4  A    between atoms: C_24  and  O_28 
ROOT
ATOM      1  N   UNK d   1      19.919  63.080 -10.766  0.00  0.00    -0.233 N 
ATOM      2  C   UNK d   1      20.638  62.835 -11.985  0.00  0.00     0.336 C 
ATOM      3  O   UNK d   1      20.042  62.454 -13.040  0.00  0.00    -0.246 OA
ATOM      4  N   UNK d   1      22.042  63.042 -11.951  0.00  0.00    -0.277 N 
ATOM      5  C   UNK d   1      22.694  63.476 -10.737  0.00  0.00     0.244 C 
ATOM      6  O   UNK d   1      23.779  64.058 -10.865  0.00  0.00    -0.272 OA
ATOM      7  C   UNK d   1      22.062  63.217  -9.458  0.00  0.00     0.221 C 
ATOM      8  C   UNK d   1      20.604  63.507  -9.599  0.00  0.00     0.251 C 
ATOM      9  O   UNK d   1      19.925  64.117  -8.734  0.00  0.00    -0.271 OA
ATOM     10  H   UNK d   1      22.578  62.871 -12.820  0.00  0.00     0.173 HD
ENDROOT
BRANCH   7  11
ATOM     11  C   UNK d   1      22.646  63.816  -8.279  0.00  0.00     0.041 C 
ATOM     12  C   UNK d   1      22.438  63.534  -7.014  0.00  0.00     0.026 C 
ATOM     13  C   UNK d   1      23.253  64.399  -6.127  0.00  0.00     0.134 C 
ATOM     14  N   UNK d   1      24.162  65.036  -7.053  0.00  0.00    -0.228 NA
ATOM     15  N   UNK d   1      23.604  64.894  -8.321  0.00  0.00    -0.323 N 
ATOM     16  H   UNK d   1      25.135  64.668  -6.985  0.00  0.00     0.147 HD
ATOM     17  H   UNK d   1      23.874  65.498  -9.126  0.00  0.00     0.180 HD
BRANCH  13  18
ATOM     18  C   UNK d   1      24.056  63.642  -5.160  0.00  0.00    -0.033 A 
ATOM     19  C   UNK d   1      25.109  62.879  -5.640  0.00  0.00     0.045 A 
ATOM     20  C   UNK d   1      25.882  62.158  -4.760  0.00  0.00     0.066 A 
ATOM     21  C   UNK d   1      25.639  62.172  -3.406  0.00  0.00     0.036 A 
ATOM     22  C   UNK d   1      24.598  62.923  -2.914  0.00  0.00     0.003 A 
ATOM     23  C   UNK d   1      23.816  63.653  -3.810  0.00  0.00     0.009 A 
BRANCH  20  24
ATOM     24  O   UNK d   1      26.950  61.383  -5.232  0.00  0.00    -0.361 OA
ATOM     25  H   UNK d   1      27.157  61.382  -6.215  0.00  0.00     0.217 HD
ENDBRANCH  20  24
ENDBRANCH  13  18
ENDBRANCH   7  11
BRANCH   1  26
ATOM     26  C   UNK d   1      18.489  62.870 -10.794  0.00  0.00     0.047 A 
ATOM     27  C   UNK d   1      17.929  61.650 -10.468  0.00  0.00     0.032 A 
ATOM     28  C   UNK d   1      16.567  61.418 -10.488  0.00  0.00     0.026 A 
ATOM     29  C   UNK d   1      15.709  62.447 -10.850  0.00  0.00     0.034 A 
ATOM     30 Cl   UNK d   1      13.999  62.125 -10.867  0.00  0.00    -0.084 Cl
ATOM     31  C   UNK d   1      16.250  63.686 -11.183  0.00  0.00     0.026 A 
ATOM     32  C   UNK d   1      17.619  63.882 -11.151  0.00  0.00     0.032 A 
ENDBRANCH   1  26
TORSDOF 4
ENDMDL
