MODEL 1
REMARK VINA RESULT:    -8.912      0.000      0.000
REMARK INTER + INTRA:          -9.182
REMARK INTER:                 -10.476
REMARK INTRA:                   1.293
REMARK UNBOUND:                 1.293
REMARK  3 active torsions:
REMARK  status: ('A' for Active; 'I' for Inactive)
REMARK    1  A    between atoms: C_5  and  N_8 
REMARK    2  A    between atoms: C_14  and  C_17 
REMARK    3  A    between atoms: C_19  and  C_22 
ROOT
ATOM      1  N   UNK d   1      22.850  63.523  -8.833  0.00  0.00    -0.233 N 
ATOM      2  C   UNK d   1      23.540  62.632  -9.689  0.00  0.00     0.336 C 
ATOM      3  O   UNK d   1      24.478  61.924  -9.244  0.00  0.00    -0.246 OA
ATOM      4  N   UNK d   1      23.147  62.552 -11.071  0.00  0.00    -0.277 N 
ATOM      5  C   UNK d   1      22.087  63.351 -11.577  0.00  0.00     0.244 C 
ATOM      6  O   UNK d   1      21.980  63.523 -12.817  0.00  0.00    -0.272 OA
ATOM      7  C   UNK d   1      21.132  63.963 -10.639  0.00  0.00     0.221 C 
ATOM      8  C   UNK d   1      21.798  64.305  -9.371  0.00  0.00     0.251 C 
ATOM      9  O   UNK d   1      21.425  65.341  -8.719  0.00  0.00    -0.271 OA
ATOM     10  H   UNK d   1      23.628  61.910 -11.737  0.00  0.00     0.173 HD
ENDROOT
BRANCH   7  11
ATOM     11  C   UNK d   1      19.972  63.044 -10.381  0.00  0.00     0.041 C 
ATOM     12  C   UNK d   1      19.198  62.449 -11.250  0.00  0.00     0.026 C 
ATOM     13  C   UNK d   1      18.193  61.647 -10.534  0.00  0.00     0.135 C 
ATOM     14  N   UNK d   1      18.701  61.570  -9.194  0.00  0.00    -0.228 NA
ATOM     15  N   UNK d   1      19.551  62.681  -9.077  0.00  0.00    -0.323 N 
ATOM     16  H   UNK d   1      19.195  60.691  -9.008  0.00  0.00     0.147 HD
ATOM     17  H   UNK d   1      19.786  63.108  -8.152  0.00  0.00     0.180 HD
BRANCH  13  18
ATOM     18  C   UNK d   1      16.924  62.419 -10.557  0.00  0.00    -0.018 A 
ATOM     19  C   UNK d   1      15.741  61.796 -10.877  0.00  0.00     0.125 A 
ATOM     20  N   UNK d   1      14.574  62.498 -10.900  0.00  0.00    -0.273 NA
ATOM     21  C   UNK d   1      14.515  63.810 -10.619  0.00  0.00     0.116 A 
ATOM     22  C   UNK d   1      15.682  64.464 -10.296  0.00  0.00     0.020 A 
ATOM     23  C   UNK d   1      16.892  63.757 -10.267  0.00  0.00     0.012 A 
ENDBRANCH  13  18
ENDBRANCH   7  11
BRANCH   1  24
ATOM     24  C   UNK d   1      23.216  63.638  -7.436  0.00  0.00     0.047 A 
ATOM     25  C   UNK d   1      22.482  64.395  -6.549  0.00  0.00     0.032 A 
ATOM     26  C   UNK d   1      22.846  64.497  -5.211  0.00  0.00     0.026 A 
ATOM     27  C   UNK d   1      23.958  63.843  -4.725  0.00  0.00     0.034 A 
ATOM     28 Cl   UNK d   1      24.422  63.967  -3.036  0.00  0.00    -0.084 Cl
ATOM     29  C   UNK d   1      24.690  63.088  -5.616  0.00  0.00     0.026 A 
ATOM     30  C   UNK d   1      24.327  62.987  -6.947  0.00  0.00     0.032 A 
ENDBRANCH   1  24
TORSDOF 3
ENDMDL
