MODEL 1
REMARK VINA RESULT:    -5.717      0.000      0.000
REMARK INTER + INTRA:          -7.971
REMARK INTER:                  -7.555
REMARK INTRA:                  -0.417
REMARK UNBOUND:                -0.417
REMARK  6 active torsions:
REMARK  status: ('A' for Active; 'I' for Inactive)
REMARK    1  A    between atoms: C_5  and  N_8 
REMARK    2  A    between atoms: C_9  and  O_19 
REMARK    3  A    between atoms: C_9  and  C_20 
REMARK       I    between atoms: C_20  and  N_22 
REMARK    4  A    between atoms: N_22  and  C_23 
REMARK    5  A    between atoms: C_23  and  C_24 
REMARK    6  A    between atoms: C_24  and  N_25 
ROOT
ATOM      1  N   UNK d   1      10.462  65.306 -15.701  0.00  0.00    -0.254 N 
ATOM      2  C   UNK d   1      10.726  64.314 -14.721  0.00  0.00     0.256 A 
ATOM      3  C   UNK d   1      10.107  63.023 -14.980  0.00  0.00     0.034 A 
ATOM      4  C   UNK d   1       9.262  62.807 -16.026  0.00  0.00     0.048 A 
ATOM      5  C   UNK d   1       8.681  61.537 -16.203  0.00  0.00     0.030 A 
ATOM      6  C   UNK d   1       8.926  60.482 -15.360  0.00  0.00     0.002 A 
ATOM      7  C   UNK d   1       9.789  60.720 -14.302  0.00  0.00     0.001 A 
ATOM      8  C   UNK d   1      10.352  61.942 -14.126  0.00  0.00     0.015 A 
ATOM      9  N   UNK d   1       8.954  63.833 -16.984  0.00  0.00    -0.308 N 
ATOM     10  C   UNK d   1       9.587  65.080 -16.774  0.00  0.00     0.330 A 
ATOM     11  O   UNK d   1       9.365  66.042 -17.578  0.00  0.00    -0.246 OA
ATOM     12  H   UNK d   1       8.305  63.633 -17.764  0.00  0.00     0.170 HD
ENDROOT
BRANCH   2  13
ATOM     13  O   UNK d   1      10.123  64.833 -13.521  0.00  0.00    -0.359 OA
ATOM     14  H   UNK d   1      10.674  64.577 -12.737  0.00  0.00     0.213 HD
ENDBRANCH   2  13
BRANCH   2  15
ATOM     15  C   UNK d   1      12.174  64.198 -14.408  0.00  0.00     0.279 C 
ATOM     16  O   UNK d   1      12.966  63.819 -15.273  0.00  0.00    -0.268 OA
ATOM     17  N   UNK d   1      12.596  64.534 -13.108  0.00  0.00    -0.355 N 
ATOM     18  H   UNK d   1      11.924  64.861 -12.359  0.00  0.00     0.162 HD
BRANCH  17  19
ATOM     19  C   UNK d   1      13.997  64.458 -12.691  0.00  0.00     0.142 C 
BRANCH  19  20
ATOM     20  C   UNK d   1      14.147  64.166 -11.247  0.00  0.00     0.136 C 
BRANCH  20  21
ATOM     21  N   UNK d   1      15.338  63.533 -10.830  0.00  0.00    -0.407 N 
ATOM     22  C   UNK d   1      15.400  62.130 -10.843  0.00  0.00     0.143 C 
ATOM     23  C   UNK d   1      16.854  61.704 -10.620  0.00  0.00     0.187 C 
ATOM     24  O   UNK d   1      17.499  62.606  -9.755  0.00  0.00    -0.388 OA
ATOM     25  C   UNK d   1      17.728  63.830 -10.381  0.00  0.00     0.187 C 
ATOM     26  C   UNK d   1      16.551  64.137 -11.266  0.00  0.00     0.143 C 
ENDBRANCH  20  21
ENDBRANCH  19  20
ENDBRANCH  17  19
ENDBRANCH   2  15
BRANCH   1  27
ATOM     27  C   UNK d   1      11.124  66.613 -15.604  0.00  0.00     0.043 A 
ATOM     28  C   UNK d   1      12.225  66.918 -16.360  0.00  0.00     0.031 A 
ATOM     29  C   UNK d   1      12.842  68.161 -16.257  0.00  0.00     0.026 A 
ATOM     30  C   UNK d   1      12.336  69.096 -15.383  0.00  0.00     0.034 A 
ATOM     31 Cl   UNK d   1      13.125  70.673 -15.259  0.00  0.00    -0.084 Cl
ATOM     32  C   UNK d   1      11.230  68.815 -14.611  0.00  0.00     0.026 A 
ATOM     33  C   UNK d   1      10.641  67.570 -14.738  0.00  0.00     0.031 A 
ENDBRANCH   1  27
TORSDOF 6
ENDMDL
