/Users/jonathanwahrer/Desktop/Msc/3_Semester/Drug_Design_Praktikum/waehrer_HTS_screening/HTS_experiment/out/docking_results/vina_output/3sx0/2364_docked.pdbqt
 OpenBabel03192223183D

 33 37  0  0  1  0  0  0  0  0999 V2000
   22.6030   64.5540   -7.6060 N   0  0  0  0  0  0  0  0  0  0  0  0
   23.3950   63.4740   -8.0840 C   0  0  0  0  0  0  0  0  0  0  0  0
   24.5310   63.2500   -7.5540 O   0  0  0  0  0  0  0  0  0  0  0  0
   22.9740   62.5850   -9.1720 C   0  0  1  0  0  3  0  0  0  0  0  0
   21.8160   63.0110   -9.8840 N   0  0  1  0  0  0  0  0  0  0  0  0
   20.8330   63.7230   -9.1340 C   0  0  2  0  0  0  0  0  0  0  0  0
   19.7920   62.8780   -8.4400 C   0  0  0  0  0  2  0  0  0  0  0  0
   18.7990   63.3750   -9.3360 N   0  0  0  0  0  0  0  0  0  0  0  0
   19.7120   64.1680  -10.0590 C   0  0  0  0  0  2  0  0  0  0  0  0
   21.3890   64.8190   -8.2980 C   0  0  0  0  0  0  0  0  0  0  0  0
   20.8400   65.9440   -8.1830 O   0  0  0  0  0  0  0  0  0  0  0  0
   22.2420   63.8110  -10.9960 C   0  0  0  0  0  2  0  0  0  0  0  0
   23.7440   63.8260  -11.0110 C   0  0  1  0  0  3  0  0  0  0  0  0
   24.1000   62.6030  -10.2160 C   0  0  0  0  0  2  0  0  0  0  0  0
   17.9380   62.4630   -9.9970 C   0  0  0  0  0  2  0  0  0  0  0  0
   16.6130   62.9740  -10.3650 C   0  0  0  0  0  0  0  0  0  0  0  0
   15.7340   62.1740  -11.0520 C   0  0  0  0  0  3  0  0  0  0  0  0
   14.4660   62.6360  -11.4150 C   0  0  0  0  0  0  0  0  0  0  0  0
   14.0970   63.9170  -11.0740 C   0  0  0  0  0  3  0  0  0  0  0  0
   14.9570   64.7380  -10.3850 C   0  0  0  0  0  3  0  0  0  0  0  0
   16.2140   64.2470  -10.0390 C   0  0  0  0  0  3  0  0  0  0  0  0
   13.5790   61.8340  -12.1070 O   0  0  0  0  0  0  0  0  0  0  0  0
   12.9050   62.3810  -13.2250 C   0  0  0  0  0  1  0  0  0  0  0  0
   23.0020   65.3600   -6.4660 C   0  0  0  0  0  2  0  0  0  0  0  0
   22.9810   64.5240   -5.2160 C   0  0  0  0  0  0  0  0  0  0  0  0
   24.1490   64.1900   -4.5690 C   0  0  0  0  0  3  0  0  0  0  0  0
   24.1570   63.4230   -3.4220 C   0  0  0  0  0  0  0  0  0  0  0  0
   25.6620   63.0180   -2.6260 Cl  0  0  0  0  0  0  0  0  0  0  0  0
   22.9730   62.9680   -2.8930 C   0  0  0  0  0  3  0  0  0  0  0  0
   21.8170   63.3130   -3.5550 C   0  0  0  0  0  3  0  0  0  0  0  0
   21.7950   64.0680   -4.6850 C   0  0  0  0  0  3  0  0  0  0  0  0
   24.2730   63.8000  -12.2950 O   0  0  0  0  0  0  0  0  0  0  0  0
   25.1860   64.1740  -12.2440 H   0  0  0  0  0  0  0  0  0  0  0  0
  1 24  1  0  0  0  0
  2  1  1  0  0  0  0
  2  3  2  0  0  0  0
  4 14  1  6  0  0  0
  4  2  1  0  0  0  0
  5 12  1  6  0  0  0
  5  4  1  0  0  0  0
  5  6  1  0  0  0  0
  6  9  1  6  0  0  0
  6  7  1  0  0  0  0
  6 10  1  0  0  0  0
  8  7  1  0  0  0  0
  9  8  1  0  0  0  0
 10 11  2  0  0  0  0
 10  1  1  0  0  0  0
 13 32  1  6  0  0  0
 13 12  1  0  0  0  0
 13 14  1  0  0  0  0
 15  8  1  0  0  0  0
 16 21  1  0  0  0  0
 16 15  1  0  0  0  0
 17 16  2  0  0  0  0
 18 19  2  0  0  0  0
 18 17  1  0  0  0  0
 19 20  1  0  0  0  0
 20 21  2  0  0  0  0
 22 18  1  0  0  0  0
 23 22  1  0  0  0  0
 24 25  1  0  0  0  0
 25 31  2  0  0  0  0
 25 26  1  0  0  0  0
 26 27  2  0  0  0  0
 27 29  1  0  0  0  0
 27 28  1  0  0  0  0
 30 29  2  0  0  0  0
 31 30  1  0  0  0  0
 32 33  1  0  0  0  0
M  END
>  <Pose>
1

>  <Score>
-7.746

$$$$
