/Users/jonathanwahrer/Desktop/Msc/3_Semester/Drug_Design_Praktikum/waehrer_HTS_screening/HTS_experiment/out/docking_results/vina_output/3sx0/2375_docked.pdbqt
 OpenBabel03192223193D

 37 40  0  0  1  0  0  0  0  0999 V2000
   21.0300   64.0980   -9.5820 C   0  0  0  0  0  0  0  0  0  0  0  0
   20.5700   65.2890   -8.9310 C   0  0  0  0  0  1  0  0  0  0  0  0
   20.1800   62.8400   -9.4650 C   0  0  0  0  0  0  0  0  0  0  0  0
   18.9370   62.7580  -10.1380 N   0  0  0  0  0  0  0  0  0  0  0  0
   17.8830   61.8350   -9.8710 C   0  0  0  0  0  3  0  0  0  0  0  0
   18.7980   63.4730  -11.4230 C   0  0  0  0  0  2  0  0  0  0  0  0
   16.4860   62.3490  -10.1120 C   0  0  0  0  0  3  0  0  0  0  0  0
   16.3480   63.6670  -10.7500 C   0  0  1  0  0  0  0  0  0  0  0  0
   17.5240   64.1490  -11.5630 C   0  0  0  0  0  2  0  0  0  0  0  0
   20.5970   61.9070   -8.7840 O   0  0  0  0  0  0  0  0  0  0  0  0
   15.1830   63.7840  -11.6560 C   0  0  0  0  0  0  0  0  0  0  0  0
   14.3780   62.6600  -11.7670 C   0  0  0  0  0  3  0  0  0  0  0  0
   13.2270   62.6520  -12.5690 C   0  0  0  0  0  3  0  0  0  0  0  0
   12.8710   63.7810  -13.2690 C   0  0  0  0  0  0  0  0  0  0  0  0
   11.4040   63.7950  -14.2770 Cl  0  0  0  0  0  0  0  0  0  0  0  0
   13.6740   64.9030  -13.1570 C   0  0  0  0  0  3  0  0  0  0  0  0
   14.8110   64.8840  -12.3590 C   0  0  0  0  0  3  0  0  0  0  0  0
   16.1440   64.6160   -9.7030 O   0  0  0  0  0  0  0  0  0  0  0  0
   16.0770   65.5210  -10.0510 H   0  0  0  0  0  0  0  0  0  0  0  0
   21.6850   64.1190  -10.8680 N   0  0  0  0  0  4  0  0  0  0  0  0
   22.9640   63.6270  -11.1250 C   0  0  0  0  0  0  0  0  0  0  0  0
   23.5280   63.1810   -9.9460 O   0  0  0  0  0  0  0  0  0  0  0  0
   23.8260   63.4260  -12.1920 C   0  0  0  0  0  3  0  0  0  0  0  0
   21.0730   64.6270  -11.5920 H   0  0  0  0  0  0  0  0  0  0  0  0
   24.0460   63.4200  -13.4730 C   0  0  0  0  0  0  0  0  0  0  0  0
   22.9330   63.6970  -14.3910 N   0  0  0  0  0  0  0  0  0  0  0  0
   23.0880   63.8040  -15.7590 N   0  0  0  0  0  0  0  0  0  0  0  0
   21.9870   63.8160  -13.9360 H   0  0  0  0  0  0  0  0  0  0  0  0
   24.3190   63.6540  -16.3760 C   0  0  0  0  0  0  0  0  0  0  0  0
   22.2410   64.0040  -16.3600 H   0  0  0  0  0  0  0  0  0  0  0  0
   24.5050   63.7360  -17.6160 O   0  0  0  0  0  0  0  0  0  0  0  0
   25.5050   63.3720  -15.5310 C   0  0  0  0  0  0  0  0  0  0  0  0
   25.3070   63.2770  -14.1740 C   0  0  0  0  0  0  0  0  0  0  0  0
   26.7360   63.3000  -16.1360 C   0  0  0  0  0  3  0  0  0  0  0  0
   26.4680   63.1110  -13.4100 C   0  0  0  0  0  3  0  0  0  0  0  0
   27.7180   63.0380  -14.0070 C   0  0  0  0  0  3  0  0  0  0  0  0
   27.8660   63.1270  -15.3660 C   0  0  0  0  0  3  0  0  0  0  0  0
  1  3  1  0  0  0  0
  1  2  1  0  0  0  0
  3 10  2  0  0  0  0
  4  5  1  0  0  0  0
  4  3  1  0  0  0  0
  6  4  1  0  0  0  0
  7  5  2  0  0  0  0
  8  7  1  0  0  0  0
  8 18  1  1  0  0  0
  9  6  1  0  0  0  0
  9  8  1  0  0  0  0
 11  8  1  0  0  0  0
 12 11  1  0  0  0  0
 13 12  2  0  0  0  0
 14 16  2  0  0  0  0
 14 13  1  0  0  0  0
 15 14  1  0  0  0  0
 16 17  1  0  0  0  0
 17 11  2  0  0  0  0
 19 18  1  0  0  0  0
 20  1  2  3  0  0  0
 21 20  1  0  0  0  0
 21 22  2  0  0  0  0
 23 21  1  0  0  0  0
 24 20  1  0  0  0  0
 25 23  2  0  0  0  0
 26 28  1  0  0  0  0
 26 25  1  0  0  0  0
 27 26  1  0  0  0  0
 29 27  1  0  0  0  0
 29 32  1  0  0  0  0
 30 27  1  0  0  0  0
 31 29  2  0  0  0  0
 32 33  1  0  0  0  0
 33 25  1  0  0  0  0
 33 35  2  0  0  0  0
 34 32  2  0  0  0  0
 34 37  1  0  0  0  0
 36 35  1  0  0  0  0
 37 36  2  0  0  0  0
M  END
>  <Pose>
1

>  <Score>
-9.057

$$$$
