MODEL 1
REMARK VINA RESULT:    -9.057      0.000      0.000
REMARK INTER + INTRA:         -12.039
REMARK INTER:                 -11.440
REMARK INTRA:                  -0.599
REMARK UNBOUND:                -0.599
REMARK  5 active torsions:
REMARK  status: ('A' for Active; 'I' for Inactive)
REMARK    1  A    between atoms: C_5  and  C_8 
REMARK    2  A    between atoms: C_8  and  O_33 
REMARK       I    between atoms: N_11  and  C_14 
REMARK    3  A    between atoms: C_14  and  C_16 
REMARK    4  A    between atoms: C_16  and  N_17 
REMARK       I    between atoms: N_17  and  C_18 
REMARK    5  A    between atoms: C_20  and  C_21 
ROOT
ATOM      1  C   UNK d   1      21.030  64.098  -9.582  0.00  0.00     0.172 C 
ATOM      2  C   UNK d   1      20.570  65.289  -8.931  0.00  0.00     0.042 C 
ENDROOT
BRANCH   1   3
ATOM      3  C   UNK d   1      20.180  62.840  -9.465  0.00  0.00     0.242 C 
ATOM      4  N   UNK d   1      18.937  62.758 -10.138  0.00  0.00    -0.350 N 
ATOM      5  C   UNK d   1      17.883  61.835  -9.871  0.00  0.00     0.129 C 
ATOM      6  C   UNK d   1      18.798  63.473 -11.423  0.00  0.00     0.129 C 
ATOM      7  C   UNK d   1      16.486  62.349 -10.112  0.00  0.00     0.062 C 
ATOM      8  C   UNK d   1      16.348  63.667 -10.750  0.00  0.00     0.088 C 
ATOM      9  C   UNK d   1      17.524  64.149 -11.563  0.00  0.00     0.062 C 
ATOM     10  O   UNK d   1      20.597  61.907  -8.784  0.00  0.00    -0.271 OA
BRANCH   8  11
ATOM     11  C   UNK d   1      15.183  63.784 -11.656  0.00  0.00    -0.024 A 
ATOM     12  C   UNK d   1      14.378  62.660 -11.767  0.00  0.00     0.012 A 
ATOM     13  C   UNK d   1      13.227  62.652 -12.569  0.00  0.00     0.024 A 
ATOM     14  C   UNK d   1      12.871  63.781 -13.269  0.00  0.00     0.034 A 
ATOM     15 Cl   UNK d   1      11.404  63.795 -14.277  0.00  0.00    -0.084 Cl
ATOM     16  C   UNK d   1      13.674  64.903 -13.157  0.00  0.00     0.024 A 
ATOM     17  C   UNK d   1      14.811  64.884 -12.359  0.00  0.00     0.012 A 
ENDBRANCH   8  11
BRANCH   8  18
ATOM     18  O   UNK d   1      16.144  64.616  -9.703  0.00  0.00    -0.385 OA
ATOM     19  H   UNK d   1      16.077  65.521 -10.051  0.00  0.00     0.211 HD
ENDBRANCH   8  18
ENDBRANCH   1   3
BRANCH   1  20
ATOM     20  N   UNK d   1      21.685  64.119 -10.868  0.00  0.00    -0.356 N 
ATOM     21  C   UNK d   1      22.964  63.627 -11.125  0.00  0.00     0.177 C 
ATOM     22  O   UNK d   1      23.528  63.181  -9.946  0.00  0.00    -0.172 OA
ATOM     23  C   UNK d   1      23.826  63.426 -12.192  0.00  0.00     0.090 C 
ATOM     24  H   UNK d   1      21.073  64.627 -11.592  0.00  0.00     0.162 HD
BRANCH  23  25
ATOM     25  C   UNK d   1      24.046  63.420 -13.473  0.00  0.00     0.063 A 
ATOM     26  N   UNK d   1      22.933  63.697 -14.391  0.00  0.00    -0.297 N 
ATOM     27  N   UNK d   1      23.088  63.804 -15.759  0.00  0.00    -0.265 N 
ATOM     28  H   UNK d   1      21.987  63.816 -13.936  0.00  0.00     0.187 HD
ATOM     29  C   UNK d   1      24.319  63.654 -16.376  0.00  0.00     0.271 A 
ATOM     30  H   UNK d   1      22.241  64.004 -16.360  0.00  0.00     0.190 HD
ATOM     31  O   UNK d   1      24.505  63.736 -17.616  0.00  0.00    -0.266 OA
ATOM     32  C   UNK d   1      25.505  63.372 -15.531  0.00  0.00     0.046 A 
ATOM     33  C   UNK d   1      25.307  63.277 -14.174  0.00  0.00     0.008 A 
ATOM     34  C   UNK d   1      26.736  63.300 -16.136  0.00  0.00     0.018 A 
ATOM     35  C   UNK d   1      26.468  63.111 -13.410  0.00  0.00     0.015 A 
ATOM     36  C   UNK d   1      27.718  63.038 -14.007  0.00  0.00     0.001 A 
ATOM     37  C   UNK d   1      27.866  63.127 -15.366  0.00  0.00     0.001 A 
ENDBRANCH  23  25
ENDBRANCH   1  20
TORSDOF 5
ENDMDL
