MODEL 1
REMARK VINA RESULT:    -8.618      0.000      0.000
REMARK INTER + INTRA:         -10.443
REMARK INTER:                 -10.130
REMARK INTRA:                  -0.313
REMARK UNBOUND:                -0.313
REMARK  3 active torsions:
REMARK  status: ('A' for Active; 'I' for Inactive)
REMARK    1  A    between atoms: C_3  and  N_15 
REMARK    2  A    between atoms: N_6  and  C_9 
REMARK       I    between atoms: N_18  and  C_21 
REMARK    3  A    between atoms: C_21  and  C_23 
ROOT
ATOM      1 Cl   UNK d   1      21.861  63.443 -11.614  0.00  0.00    -0.076 Cl
ATOM      2  C   UNK d   1      20.537  63.253 -10.470  0.00  0.00     0.131 A 
ATOM      3  C   UNK d   1      20.796  63.505  -9.144  0.00  0.00     0.077 A 
ATOM      4  C   UNK d   1      19.733  63.345  -8.270  0.00  0.00     0.170 A 
ATOM      5  N   UNK d   1      18.530  62.963  -8.734  0.00  0.00    -0.174 NA
ATOM      6  N   UNK d   1      18.267  62.717 -10.007  0.00  0.00    -0.197 N 
ATOM      7  C   UNK d   1      19.277  62.862 -10.882  0.00  0.00     0.292 A 
ATOM      8  O   UNK d   1      19.101  62.646 -12.115  0.00  0.00    -0.264 OA
ENDROOT
BRANCH   3   9
ATOM      9  N   UNK d   1      22.090  63.902  -8.744  0.00  0.00    -0.375 N 
ATOM     10  C   UNK d   1      23.243  63.023  -8.898  0.00  0.00     0.143 C 
ATOM     11  C   UNK d   1      23.660  62.662  -7.459  0.00  0.00     0.145 C 
ATOM     12  N   UNK d   1      23.837  63.848  -6.681  0.00  0.00    -0.347 N 
ATOM     13  C   UNK d   1      23.699  65.140  -7.385  0.00  0.00     0.145 C 
ATOM     14  C   UNK d   1      24.136  63.840  -5.293  0.00  0.00     0.248 C 
ATOM     15  C   UNK d   1      22.394  65.192  -8.154  0.00  0.00     0.143 C 
ATOM     16  O   UNK d   1      24.284  64.919  -4.644  0.00  0.00    -0.270 OA
BRANCH  14  17
ATOM     17  C   UNK d   1      24.293  62.598  -4.517  0.00  0.00     0.213 C 
ATOM     18  O   UNK d   1      25.602  62.232  -4.435  0.00  0.00    -0.376 OA
ATOM     19  C   UNK d   1      25.801  61.588  -3.221  0.00  0.00     0.168 C 
ATOM     20  C   UNK d   1      25.003  62.481  -2.281  0.00  0.00     0.029 C 
ATOM     21  C   UNK d   1      23.759  62.730  -3.108  0.00  0.00     0.043 C 
ENDBRANCH  14  17
ENDBRANCH   3   9
BRANCH   6  22
ATOM     22  C   UNK d   1      16.960  62.311 -10.440  0.00  0.00     0.062 A 
ATOM     23  C   UNK d   1      16.032  63.256 -10.828  0.00  0.00     0.032 A 
ATOM     24  C   UNK d   1      14.756  62.876 -11.252  0.00  0.00     0.002 A 
ATOM     25  C   UNK d   1      14.405  61.550 -11.288  0.00  0.00     0.000 A 
ATOM     26  C   UNK d   1      15.317  60.600 -10.905  0.00  0.00     0.002 A 
ATOM     27  C   UNK d   1      16.567  60.990 -10.491  0.00  0.00     0.032 A 
ENDBRANCH   6  22
TORSDOF 3
ENDMDL
