/Users/jonathanwahrer/Desktop/Msc/3_Semester/Drug_Design_Praktikum/waehrer_HTS_screening/HTS_experiment/out/docking_results/vina_output/3sx0/2381_docked.pdbqt
 OpenBabel03192223193D

 30 33  0  0  0  0  0  0  0  0999 V2000
   19.1430   62.8330  -10.6830 N   0  0  0  0  0  0  0  0  0  0  0  0
   18.8740   61.6630   -9.8940 C   0  0  0  0  0  2  0  0  0  0  0  0
   17.4630   61.1630  -10.1070 C   0  0  0  0  0  2  0  0  0  0  0  0
   16.5370   62.2430  -10.3420 N   0  0  0  0  0  0  0  0  0  0  0  0
   16.9620   63.5930  -10.0600 C   0  0  0  0  0  2  0  0  0  0  0  0
   18.1690   63.8810  -10.9140 C   0  0  0  0  0  2  0  0  0  0  0  0
   15.2380   61.9730  -10.8410 C   0  0  0  0  0  0  0  0  0  0  0  0
   14.8580   60.7850  -11.0930 O   0  0  0  0  0  0  0  0  0  0  0  0
   20.4360   62.9720  -11.2730 C   0  0  0  0  0  0  0  0  0  0  0  0
   21.5370   63.3930  -10.5530 C   0  0  0  0  0  0  0  0  0  0  0  0
   21.3470   63.7670   -8.8550 Cl  0  0  0  0  0  0  0  0  0  0  0  0
   22.7590   63.5030  -11.1970 C   0  0  0  0  0  0  0  0  0  0  0  0
   22.9350   63.2210  -12.5010 N   0  0  0  0  0  0  0  0  0  0  0  0
   23.7580   63.8850  -10.5530 O   0  0  0  0  0  0  0  0  0  0  0  0
   21.8700   62.8190  -13.1760 N   0  0  0  0  0  0  0  0  0  0  0  0
   20.6550   62.6910  -12.6100 C   0  0  0  0  0  3  0  0  0  0  0  0
   24.2220   63.3560  -13.1110 C   0  0  0  0  0  0  0  0  0  0  0  0
   24.3400   63.6100  -14.4620 C   0  0  0  0  0  3  0  0  0  0  0  0
   25.5780   63.7410  -15.0590 C   0  0  0  0  0  3  0  0  0  0  0  0
   26.7490   63.6240  -14.3390 C   0  0  0  0  0  3  0  0  0  0  0  0
   26.6370   63.3710  -12.9880 C   0  0  0  0  0  3  0  0  0  0  0  0
   25.4000   63.2410  -12.3980 C   0  0  0  0  0  3  0  0  0  0  0  0
   14.2460   63.0500  -11.1000 C   0  0  0  0  0  2  0  0  0  0  0  0
   13.7370   62.9910  -12.4050 O   0  0  0  0  0  0  0  0  0  0  0  0
   13.4630   64.1500  -13.1060 C   0  0  0  0  0  0  0  0  0  0  0  0
   14.2870   65.1250  -13.5030 N   0  0  0  0  0  0  0  0  0  0  0  0
   13.6280   66.0390  -14.1370 O   0  0  0  0  0  0  0  0  0  0  0  0
   12.3460   65.7470  -14.2070 C   0  0  0  0  0  0  0  0  0  0  0  0
   12.2090   64.5390  -13.5540 C   0  0  0  0  0  3  0  0  0  0  0  0
   11.3460   66.6020  -14.8710 C   0  0  0  0  0  1  0  0  0  0  0  0
  1  2  1  0  0  0  0
  3  2  1  0  0  0  0
  4  3  1  0  0  0  0
  4  5  1  0  0  0  0
  6  1  1  0  0  0  0
  6  5  1  0  0  0  0
  7  4  1  0  0  0  0
  8  7  2  0  0  0  0
  9  1  1  0  0  0  0
  9 10  2  0  0  0  0
 10 11  1  0  0  0  0
 12 10  1  0  0  0  0
 12 14  2  0  0  0  0
 13 12  1  0  0  0  0
 15 16  2  0  0  0  0
 15 13  1  0  0  0  0
 16  9  1  0  0  0  0
 17 13  1  0  0  0  0
 17 22  1  0  0  0  0
 18 17  2  0  0  0  0
 19 18  1  0  0  0  0
 19 20  2  0  0  0  0
 20 21  1  0  0  0  0
 21 22  2  0  0  0  0
 23  7  1  0  0  0  0
 24 23  1  0  0  0  0
 25 24  1  0  0  0  0
 26 25  2  0  0  0  0
 27 26  1  0  0  0  0
 28 27  1  0  0  0  0
 28 29  2  0  0  0  0
 29 25  1  0  0  0  0
 30 28  1  0  0  0  0
M  END
>  <Pose>
1

>  <Score>
-9.296

$$$$
