MODEL 1
REMARK VINA RESULT:    -9.296      0.000      0.000
REMARK INTER + INTRA:         -11.784
REMARK INTER:                 -12.013
REMARK INTRA:                   0.229
REMARK UNBOUND:                 0.229
REMARK  5 active torsions:
REMARK  status: ('A' for Active; 'I' for Inactive)
REMARK    1  A    between atoms: C_3  and  N_15 
REMARK    2  A    between atoms: N_6  and  C_9 
REMARK       I    between atoms: N_18  and  C_21 
REMARK    3  A    between atoms: C_21  and  C_23 
REMARK    4  A    between atoms: C_23  and  O_24 
REMARK    5  A    between atoms: O_24  and  C_25 
ROOT
ATOM      1  N   UNK d   1      19.143  62.833 -10.683  0.00  0.00    -0.375 N 
ATOM      2  C   UNK d   1      18.874  61.663  -9.894  0.00  0.00     0.143 C 
ATOM      3  C   UNK d   1      17.463  61.163 -10.107  0.00  0.00     0.145 C 
ATOM      4  N   UNK d   1      16.537  62.243 -10.342  0.00  0.00    -0.347 N 
ATOM      5  C   UNK d   1      16.962  63.593 -10.060  0.00  0.00     0.145 C 
ATOM      6  C   UNK d   1      18.169  63.881 -10.914  0.00  0.00     0.143 C 
ATOM      7  C   UNK d   1      15.238  61.973 -10.841  0.00  0.00     0.244 C 
ATOM      8  O   UNK d   1      14.858  60.785 -11.093  0.00  0.00    -0.271 OA
ENDROOT
BRANCH   1   9
ATOM      9  C   UNK d   1      20.436  62.972 -11.273  0.00  0.00     0.077 A 
ATOM     10  C   UNK d   1      21.537  63.393 -10.553  0.00  0.00     0.131 A 
ATOM     11 Cl   UNK d   1      21.347  63.767  -8.855  0.00  0.00    -0.076 Cl
ATOM     12  C   UNK d   1      22.759  63.503 -11.197  0.00  0.00     0.292 A 
ATOM     13  N   UNK d   1      22.935  63.221 -12.501  0.00  0.00    -0.197 N 
ATOM     14  O   UNK d   1      23.758  63.885 -10.553  0.00  0.00    -0.264 OA
ATOM     15  N   UNK d   1      21.870  62.819 -13.176  0.00  0.00    -0.174 NA
ATOM     16  C   UNK d   1      20.655  62.691 -12.610  0.00  0.00     0.170 A 
BRANCH  13  17
ATOM     17  C   UNK d   1      24.222  63.356 -13.111  0.00  0.00     0.062 A 
ATOM     18  C   UNK d   1      24.340  63.610 -14.462  0.00  0.00     0.032 A 
ATOM     19  C   UNK d   1      25.578  63.741 -15.059  0.00  0.00     0.002 A 
ATOM     20  C   UNK d   1      26.749  63.624 -14.339  0.00  0.00     0.000 A 
ATOM     21  C   UNK d   1      26.637  63.371 -12.988  0.00  0.00     0.002 A 
ATOM     22  C   UNK d   1      25.400  63.241 -12.398  0.00  0.00     0.032 A 
ENDBRANCH  13  17
ENDBRANCH   1   9
BRANCH   7  23
ATOM     23  C   UNK d   1      14.246  63.050 -11.100  0.00  0.00     0.280 C 
BRANCH  23  24
ATOM     24  O   UNK d   1      13.737  62.991 -12.405  0.00  0.00    -0.324 OA
BRANCH  24  25
ATOM     25  C   UNK d   1      13.463  64.150 -13.106  0.00  0.00     0.194 A 
ATOM     26  N   UNK d   1      14.287  65.125 -13.503  0.00  0.00    -0.103 NA
ATOM     27  O   UNK d   1      13.628  66.039 -14.137  0.00  0.00    -0.216 OA
ATOM     28  C   UNK d   1      12.346  65.747 -14.207  0.00  0.00     0.079 A 
ATOM     29  C   UNK d   1      12.209  64.539 -13.554  0.00  0.00     0.094 A 
ATOM     30  C   UNK d   1      11.346  66.602 -14.871  0.00  0.00     0.079 C 
ENDBRANCH  24  25
ENDBRANCH  23  24
ENDBRANCH   7  23
TORSDOF 5
ENDMDL
