MODEL 1
REMARK VINA RESULT:    -7.483      0.000      0.000
REMARK INTER + INTRA:          -9.879
REMARK INTER:                  -9.233
REMARK INTRA:                  -0.646
REMARK UNBOUND:                -0.646
REMARK  4 active torsions:
REMARK  status: ('A' for Active; 'I' for Inactive)
REMARK       I    between atoms: N_11  and  C_13 
REMARK    1  A    between atoms: C_13  and  C_15 
REMARK    2  A    between atoms: C_15  and  C_16 
REMARK    3  A    between atoms: C_16  and  C_17 
REMARK    4  A    between atoms: C_17  and  N_18 
ROOT
ATOM      1 Cl   UNK d   1      25.630  62.966 -12.431  0.00  0.00    -0.084 Cl
ATOM      2  C   UNK d   1      23.978  63.154 -11.850  0.00  0.00     0.034 A 
ATOM      3  C   UNK d   1      23.775  63.062 -10.475  0.00  0.00     0.035 A 
ATOM      4  C   UNK d   1      22.489  63.207 -10.006  0.00  0.00    -0.005 A 
ATOM      5  C   UNK d   1      21.441  63.437 -10.888  0.00  0.00     0.078 A 
ATOM      6  C   UNK d   1      21.653  63.527 -12.258  0.00  0.00     0.039 A 
ATOM      7  C   UNK d   1      22.946  63.381 -12.729  0.00  0.00     0.026 A 
ATOM      8  O   UNK d   1      20.123  63.592 -10.494  0.00  0.00    -0.338 OA
ATOM      9  C   UNK d   1      19.451  63.074  -9.380  0.00  0.00     0.088 C 
ATOM     10  C   UNK d   1      19.983  63.471  -8.051  0.00  0.00     0.164 C 
ATOM     11  N   UNK d   1      21.351  63.873  -8.001  0.00  0.00    -0.345 N 
ATOM     12  C   UNK d   1      22.471  63.080  -8.524  0.00  0.00     0.167 C 
ATOM     13  C   UNK d   1      21.678  65.120  -7.401  0.00  0.00     0.220 C 
ATOM     14  O   UNK d   1      20.728  65.794  -6.941  0.00  0.00    -0.273 OA
ATOM     15  C   UNK d   1      17.976  63.510  -9.470  0.00  0.00     0.066 C 
ATOM     16  C   UNK d   1      17.512  63.152 -10.856  0.00  0.00     0.170 C 
ATOM     17  O   UNK d   1      18.459  62.436 -11.567  0.00  0.00    -0.391 OA
ATOM     18  C   UNK d   1      18.850  61.277 -10.920  0.00  0.00     0.170 C 
ATOM     19  C   UNK d   1      19.374  61.545  -9.526  0.00  0.00     0.066 C 
ENDROOT
BRANCH  13  20
ATOM     20  C   UNK d   1      23.045  65.610  -7.309  0.00  0.00     0.104 C 
BRANCH  20  21
ATOM     21  C   UNK d   1      23.753  65.471  -6.024  0.00  0.00     0.029 C 
BRANCH  21  22
ATOM     22  C   UNK d   1      23.345  64.427  -5.071  0.00  0.00     0.137 C 
BRANCH  22  23
ATOM     23  N   UNK d   1      24.305  63.553  -4.509  0.00  0.00    -0.269 N 
ATOM     24  C   UNK d   1      25.038  62.569  -5.215  0.00  0.00     0.325 C 
ATOM     25  O   UNK d   1      24.993  62.285  -6.449  0.00  0.00    -0.247 OA
ATOM     26  N   UNK d   1      25.876  61.918  -4.276  0.00  0.00    -0.334 N 
ATOM     27  C   UNK d   1      25.945  62.734  -3.066  0.00  0.00     0.227 C 
ATOM     28  H   UNK d   1      26.376  61.014  -4.387  0.00  0.00     0.164 HD
ATOM     29  C   UNK d   1      24.688  63.507  -3.148  0.00  0.00     0.245 C 
ATOM     30  O   UNK d   1      24.076  64.029  -2.147  0.00  0.00    -0.271 OA
ENDBRANCH  22  23
ENDBRANCH  21  22
ENDBRANCH  20  21
ENDBRANCH  13  20
TORSDOF 4
ENDMDL
