MODEL 1
REMARK VINA RESULT:    -7.370      0.000      0.000
REMARK INTER + INTRA:          -9.187
REMARK INTER:                  -9.955
REMARK INTRA:                   0.768
REMARK UNBOUND:                 0.768
REMARK  6 active torsions:
REMARK  status: ('A' for Active; 'I' for Inactive)
REMARK    1  A    between atoms: C_5  and  C_8 
REMARK    2  A    between atoms: N_9  and  C_28 
REMARK    3  A    between atoms: C_15  and  C_17 
REMARK    4  A    between atoms: C_25  and  O_26 
REMARK    5  A    between atoms: C_28  and  C_29 
REMARK    6  A    between atoms: C_29  and  N_30 
ROOT
ATOM      1  C   UNK d   1      21.873  63.382  -9.244  0.00  0.00     0.161 C 
ATOM      2  N   UNK d   1      22.664  63.235 -10.429  0.00  0.00    -0.331 N 
ATOM      3  C   UNK d   1      21.868  63.423 -11.589  0.00  0.00     0.295 C 
ATOM      4  O   UNK d   1      22.197  63.554 -12.793  0.00  0.00    -0.264 OA
ATOM      5  C   UNK d   1      20.446  63.448 -11.173  0.00  0.00     0.251 C 
ATOM      6  O   UNK d   1      19.445  63.596 -11.918  0.00  0.00    -0.282 OA
ATOM      7  C   UNK d   1      20.472  63.269  -9.734  0.00  0.00     0.064 C 
ATOM      8  C   UNK d   1      19.366  63.060  -9.008  0.00  0.00     0.153 C 
ATOM      9  O   UNK d   1      19.594  62.943  -7.631  0.00  0.00    -0.188 OA
ENDROOT
BRANCH   1  10
ATOM     10  C   UNK d   1      22.156  64.568  -8.453  0.00  0.00    -0.030 A 
ATOM     11  C   UNK d   1      21.319  65.664  -8.549  0.00  0.00     0.011 A 
ATOM     12  C   UNK d   1      21.496  66.820  -7.847  0.00  0.00     0.019 A 
ATOM     13  C   UNK d   1      22.552  66.933  -6.991  0.00  0.00     0.011 A 
ATOM     14 Br   UNK d   1      22.754  68.574  -6.030  0.00  0.00    -0.051 Br
ATOM     15  C   UNK d   1      23.422  65.878  -6.851  0.00  0.00     0.019 A 
ATOM     16  C   UNK d   1      23.215  64.710  -7.582  0.00  0.00     0.011 A 
ENDBRANCH   1  10
BRANCH   8  17
ATOM     17  C   UNK d   1      18.032  62.954  -9.587  0.00  0.00     0.114 A 
ATOM     18  O   UNK d   1      17.352  61.925  -9.959  0.00  0.00    -0.304 OA
ATOM     19  C   UNK d   1      16.177  62.196 -10.444  0.00  0.00     0.119 A 
ATOM     20  C   UNK d   1      16.016  63.573 -10.407  0.00  0.00     0.003 A 
ATOM     21  C   UNK d   1      15.146  61.423 -10.946  0.00  0.00     0.102 A 
ATOM     22  C   UNK d   1      17.213  64.033  -9.856  0.00  0.00     0.054 A 
ATOM     23  C   UNK d   1      14.849  64.135 -10.866  0.00  0.00     0.014 A 
ATOM     24  C   UNK d   1      13.835  63.349 -11.364  0.00  0.00     0.004 A 
ATOM     25  C   UNK d   1      13.989  61.969 -11.405  0.00  0.00     0.040 A 
BRANCH  21  26
ATOM     26  O   UNK d   1      15.329  60.056 -10.972  0.00  0.00    -0.353 OA
ATOM     27  C   UNK d   1      16.397  59.373 -10.331  0.00  0.00     0.210 C 
ENDBRANCH  21  26
ENDBRANCH   8  17
BRANCH   2  28
ATOM     28  C   UNK d   1      24.070  62.940 -10.477  0.00  0.00     0.155 C 
BRANCH  28  29
ATOM     29  C   UNK d   1      24.503  62.509 -11.866  0.00  0.00     0.254 C 
BRANCH  29  30
ATOM     30  N   UNK d   1      25.376  63.432 -12.504  0.00  0.00    -0.077 N 
ATOM     31  C   UNK d   1      26.762  63.074 -12.521  0.00  0.00     0.269 C 
ATOM     32  C   UNK d   1      24.912  63.747 -13.848  0.00  0.00     0.269 C 
ATOM     33  H   UNK d   1      25.316  64.347 -11.964  0.00  0.00     0.279 HD
ENDBRANCH  29  30
ENDBRANCH  28  29
ENDBRANCH   2  28
TORSDOF 6
ENDMDL
