MODEL 1
REMARK VINA RESULT:    -8.187      0.000      0.000
REMARK INTER + INTRA:          -9.233
REMARK INTER:                  -9.144
REMARK INTRA:                  -0.089
REMARK UNBOUND:                -0.089
REMARK  2 active torsions:
REMARK  status: ('A' for Active; 'I' for Inactive)
REMARK    1  A    between atoms: C_7  and  C_11 
REMARK    2  A    between atoms: C_11  and  N_12 
ROOT
ATOM      1  N   UNK d   1      18.976  63.079  -9.897  0.00  0.00    -0.328 N 
ATOM      2  C   UNK d   1      17.684  62.959 -10.233  0.00  0.00     0.151 A 
ATOM      3  C   UNK d   1      17.314  61.621 -10.314  0.00  0.00     0.167 A 
ATOM      4  N   UNK d   1      18.438  60.928 -10.012  0.00  0.00    -0.223 NA
ATOM      5  C   UNK d   1      19.427  61.790  -9.764  0.00  0.00     0.213 A 
ATOM      6  N   UNK d   1      16.071  61.209 -10.638  0.00  0.00    -0.286 N 
ATOM      7  C   UNK d   1      15.170  62.176 -10.891  0.00  0.00     0.332 A 
ATOM      8  O   UNK d   1      14.002  61.810 -11.196  0.00  0.00    -0.246 OA
ATOM      9  N   UNK d   1      15.475  63.481 -10.829  0.00  0.00    -0.269 N 
ATOM     10  C   UNK d   1      16.717  63.896 -10.504  0.00  0.00     0.282 A 
ATOM     11  O   UNK d   1      17.020  65.103 -10.443  0.00  0.00    -0.265 OA
ATOM     12  C   UNK d   1      14.499  64.522 -11.103  0.00  0.00     0.164 C 
ATOM     13  C   UNK d   1      15.750  59.796 -10.703  0.00  0.00     0.163 C 
ENDROOT
BRANCH   1  14
ATOM     14  C   UNK d   1      19.783  64.263  -9.677  0.00  0.00     0.189 C 
BRANCH  14  15
ATOM     15  C   UNK d   1      21.057  63.957  -8.946  0.00  0.00     0.060 A 
ATOM     16  N   UNK d   1      21.135  64.236  -7.633  0.00  0.00    -0.233 NA
ATOM     17  C   UNK d   1      22.269  63.968  -6.921  0.00  0.00     0.137 A 
ATOM     18  N   UNK d   1      23.339  63.418  -7.514  0.00  0.00    -0.272 N 
ATOM     19  C   UNK d   1      22.295  64.275  -5.570  0.00  0.00     0.052 A 
ATOM     20  C   UNK d   1      24.460  63.153  -6.811  0.00  0.00     0.121 A 
ATOM     21  C   UNK d   1      23.323  63.111  -8.843  0.00  0.00     0.255 A 
ATOM     22  C   UNK d   1      24.496  63.453  -5.476  0.00  0.00     0.027 A 
ATOM     23 Br   UNK d   1      26.092  63.067  -4.511  0.00  0.00    -0.050 Br
ATOM     24  C   UNK d   1      23.421  64.018  -4.828  0.00  0.00     0.024 A 
ATOM     25  C   UNK d   1      22.164  63.394  -9.533  0.00  0.00     0.103 A 
ATOM     26  O   UNK d   1      24.334  62.604  -9.352  0.00  0.00    -0.268 OA
ENDBRANCH  14  15
ENDBRANCH   1  14
TORSDOF 2
ENDMDL
