/Users/jonathanwahrer/Desktop/Msc/3_Semester/Drug_Design_Praktikum/waehrer_HTS_screening/HTS_experiment/out/docking_results/vina_output/3sx0/2403_docked.pdbqt
 OpenBabel03192223203D

 26 29  0  0  0  0  0  0  0  0999 V2000
   18.9760   63.0790   -9.8970 N   0  0  0  0  0  0  0  0  0  0  0  0
   17.6840   62.9590  -10.2330 C   0  0  0  0  0  0  0  0  0  0  0  0
   17.3140   61.6210  -10.3140 C   0  0  0  0  0  0  0  0  0  0  0  0
   18.4380   60.9280  -10.0120 N   0  0  0  0  0  0  0  0  0  0  0  0
   19.4270   61.7900   -9.7640 C   0  0  0  0  0  3  0  0  0  0  0  0
   16.0710   61.2090  -10.6380 N   0  0  0  0  0  0  0  0  0  0  0  0
   15.1700   62.1760  -10.8910 C   0  0  0  0  0  0  0  0  0  0  0  0
   14.0020   61.8100  -11.1960 O   0  0  0  0  0  0  0  0  0  0  0  0
   15.4750   63.4810  -10.8290 N   0  0  0  0  0  0  0  0  0  0  0  0
   16.7170   63.8960  -10.5040 C   0  0  0  0  0  0  0  0  0  0  0  0
   17.0200   65.1030  -10.4430 O   0  0  0  0  0  0  0  0  0  0  0  0
   14.4990   64.5220  -11.1030 C   0  0  0  0  0  1  0  0  0  0  0  0
   15.7500   59.7960  -10.7030 C   0  0  0  0  0  1  0  0  0  0  0  0
   19.7830   64.2630   -9.6770 C   0  0  0  0  0  2  0  0  0  0  0  0
   21.0570   63.9570   -8.9460 C   0  0  0  0  0  0  0  0  0  0  0  0
   21.1350   64.2360   -7.6330 N   0  0  0  0  0  0  0  0  0  0  0  0
   22.2690   63.9680   -6.9210 C   0  0  0  0  0  0  0  0  0  0  0  0
   23.3390   63.4180   -7.5140 N   0  0  0  0  0  0  0  0  0  0  0  0
   22.2950   64.2750   -5.5700 C   0  0  0  0  0  3  0  0  0  0  0  0
   24.4600   63.1530   -6.8110 C   0  0  0  0  0  3  0  0  0  0  0  0
   23.3230   63.1110   -8.8430 C   0  0  0  0  0  0  0  0  0  0  0  0
   24.4960   63.4530   -5.4760 C   0  0  0  0  0  0  0  0  0  0  0  0
   26.0920   63.0670   -4.5110 Br  0  0  0  0  0  0  0  0  0  0  0  0
   23.4210   64.0180   -4.8280 C   0  0  0  0  0  3  0  0  0  0  0  0
   22.1640   63.3940   -9.5330 C   0  0  0  0  0  3  0  0  0  0  0  0
   24.3340   62.6040   -9.3520 O   0  0  0  0  0  0  0  0  0  0  0  0
  1  5  1  0  0  0  0
  1 14  1  0  0  0  0
  2  1  1  0  0  0  0
  3  2  2  0  0  0  0
  3  4  1  0  0  0  0
  4  5  2  0  0  0  0
  6  3  1  0  0  0  0
  7  9  1  0  0  0  0
  7  6  1  0  0  0  0
  8  7  2  0  0  0  0
  9 10  1  0  0  0  0
 10 11  2  0  0  0  0
 10  2  1  0  0  0  0
 12  9  1  0  0  0  0
 13  6  1  0  0  0  0
 14 15  1  0  0  0  0
 15 16  1  0  0  0  0
 16 17  2  0  0  0  0
 17 19  1  0  0  0  0
 18 17  1  0  0  0  0
 18 20  1  0  0  0  0
 19 24  2  0  0  0  0
 20 22  2  0  0  0  0
 21 18  1  0  0  0  0
 22 24  1  0  0  0  0
 22 23  1  0  0  0  0
 25 15  2  0  0  0  0
 25 21  1  0  0  0  0
 26 21  2  0  0  0  0
M  END
>  <Pose>
1

>  <Score>
-8.187

$$$$
