MODEL 1
REMARK VINA RESULT:    -8.699      0.000      0.000
REMARK INTER + INTRA:         -11.933
REMARK INTER:                 -11.496
REMARK INTRA:                  -0.437
REMARK UNBOUND:                -0.437
REMARK  6 active torsions:
REMARK  status: ('A' for Active; 'I' for Inactive)
REMARK    1  A    between atoms: C_7  and  C_8 
REMARK    2  A    between atoms: C_8  and  N_9 
REMARK    3  A    between atoms: C_11  and  C_16 
REMARK    4  A    between atoms: C_12  and  C_14 
REMARK    5  A    between atoms: C_14  and  O_15 
REMARK    6  A    between atoms: C_16  and  N_17 
ROOT
ATOM      1  N   UNK d   1      20.691  62.705  -9.969  0.00  0.00     0.095 N 
ATOM      2  C   UNK d   1      21.482  62.999  -8.752  0.00  0.00     0.279 C 
ATOM      3  C   UNK d   1      21.961  64.356  -9.001  0.00  0.00     0.050 C 
ATOM      4  C   UNK d   1      22.563  64.192 -10.387  0.00  0.00     0.045 C 
ATOM      5  C   UNK d   1      21.334  63.397 -11.002  0.00  0.00     0.280 C 
ENDROOT
BRANCH   1   6
ATOM      6  C   UNK d   1      19.300  63.053  -9.642  0.00  0.00     0.334 C 
BRANCH   6   7
ATOM      7  C   UNK d   1      18.294  62.060  -9.921  0.00  0.00     0.097 A 
ATOM      8  C   UNK d   1      16.974  62.189 -10.293  0.00  0.00     0.042 A 
ATOM      9  C   UNK d   1      16.261  63.285 -10.716  0.00  0.00     0.048 A 
ATOM     10  C   UNK d   1      16.335  60.971 -10.311  0.00  0.00     0.066 A 
ATOM     11 Cl   UNK d   1      17.030  64.862 -10.575  0.00  0.00    -0.083 Cl
ATOM     12  C   UNK d   1      14.969  63.186 -11.156  0.00  0.00     0.025 A 
ATOM     13  C   UNK d   1      14.342  61.944 -11.169  0.00  0.00     0.004 A 
ATOM     14  C   UNK d   1      15.050  60.819 -10.737  0.00  0.00     0.032 A 
ATOM     15  N   UNK d   1      17.274  60.079  -9.926  0.00  0.00    -0.273 N 
ATOM     16  N   UNK d   1      18.404  60.698  -9.708  0.00  0.00    -0.174 NA
ATOM     17  C   UNK d   1      17.004  58.652  -9.678  0.00  0.00     0.180 C 
ENDBRANCH   6   7
ENDBRANCH   1   6
BRANCH   3  18
ATOM     18  C   UNK d   1      22.998  64.875  -8.038  0.00  0.00     0.279 C 
BRANCH  18  19
ATOM     19  N   UNK d   1      23.007  64.032  -6.884  0.00  0.00     0.093 N 
ATOM     20  C   UNK d   1      24.110  63.094  -6.876  0.00  0.00     0.298 C 
ATOM     21  C   UNK d   1      25.007  63.225  -5.667  0.00  0.00     0.198 C 
ATOM     22  O   UNK d   1      24.340  63.163  -4.465  0.00  0.00    -0.388 OA
ATOM     23  C   UNK d   1      23.084  63.762  -4.512  0.00  0.00     0.198 C 
ATOM     24  C   UNK d   1      23.050  64.755  -5.634  0.00  0.00     0.298 C 
ENDBRANCH  18  19
ENDBRANCH   3  18
BRANCH   4  25
ATOM     25  C   UNK d   1      23.673  63.181 -10.389  0.00  0.00     0.170 C 
BRANCH  25  26
ATOM     26  O   UNK d   1      23.686  62.506 -11.638  0.00  0.00    -0.400 OA
ATOM     27  H   UNK d   1      22.845  62.841 -12.135  0.00  0.00     0.209 HD
ENDBRANCH  25  26
ENDBRANCH   4  25
TORSDOF 6
ENDMDL
