MODEL 1
REMARK VINA RESULT:    -8.767      0.000      0.000
REMARK INTER + INTRA:          -9.858
REMARK INTER:                  -9.792
REMARK INTRA:                  -0.066
REMARK UNBOUND:                -0.066
REMARK  2 active torsions:
REMARK  status: ('A' for Active; 'I' for Inactive)
REMARK    1  A    between atoms: C_4  and  C_8 
REMARK       I    between atoms: C_8  and  N_10 
REMARK    2  A    between atoms: N_13  and  C_16 
ROOT
ATOM      1  C   UNK d   1      23.413  63.214 -10.493  0.00  0.00     0.204 C 
ATOM      2  O   UNK d   1      24.092  62.256  -9.890  0.00  0.00    -0.170 OA
ATOM      3  N   UNK d   1      22.488  63.906  -9.727  0.00  0.00    -0.355 N 
ATOM      4  C   UNK d   1      22.305  63.486  -8.317  0.00  0.00     0.145 C 
ATOM      5  C   UNK d   1      20.868  63.054  -8.196  0.00  0.00     0.144 C 
ATOM      6  N   UNK d   1      20.072  63.294  -9.357  0.00  0.00    -0.362 N 
ATOM      7  C   UNK d   1      20.273  64.408 -10.272  0.00  0.00     0.144 C 
ATOM      8  C   UNK d   1      21.661  64.999 -10.082  0.00  0.00     0.145 C 
ENDROOT
BRANCH   1   9
ATOM      9  C   UNK d   1      23.782  63.355 -11.877  0.00  0.00     0.089 A 
ATOM     10  N   UNK d   1      23.036  63.496 -12.974  0.00  0.00    -0.342 N 
ATOM     11  C   UNK d   1      23.801  63.617 -14.095  0.00  0.00     0.126 A 
ATOM     12  H   UNK d   1      22.002  63.513 -13.075  0.00  0.00     0.167 HD
ATOM     13 Cl   UNK d   1      23.275  63.822 -15.752  0.00  0.00    -0.063 Cl
ATOM     14  C   UNK d   1      25.116  63.553 -13.724  0.00  0.00     0.074 A 
ATOM     15  C   UNK d   1      25.097  63.391 -12.359  0.00  0.00     0.061 A 
ATOM     16 Cl   UNK d   1      26.508  63.656 -14.781  0.00  0.00    -0.081 Cl
ENDBRANCH   1   9
BRANCH   6  17
ATOM     17  C   UNK d   1      19.006  62.410  -9.678  0.00  0.00     0.142 A 
ATOM     18  N   UNK d   1      19.151  61.076  -9.569  0.00  0.00    -0.224 NA
ATOM     19  C   UNK d   1      18.148  60.219  -9.872  0.00  0.00     0.237 A 
ATOM     20  N   UNK d   1      16.960  60.686 -10.296  0.00  0.00    -0.222 NA
ATOM     21  C   UNK d   1      16.735  62.003 -10.431  0.00  0.00     0.162 A 
ATOM     22  N   UNK d   1      15.662  62.713 -10.825  0.00  0.00    -0.256 N 
ATOM     23  C   UNK d   1      17.783  62.874 -10.113  0.00  0.00     0.076 A 
ATOM     24  N   UNK d   1      15.997  63.986 -10.767  0.00  0.00    -0.182 NA
ATOM     25  C   UNK d   1      14.356  62.204 -11.245  0.00  0.00     0.182 C 
ATOM     26  C   UNK d   1      17.274  64.125 -10.340  0.00  0.00     0.158 A 
ENDBRANCH   6  17
TORSDOF 2
ENDMDL
