/Users/jonathanwahrer/Desktop/Msc/3_Semester/Drug_Design_Praktikum/waehrer_HTS_screening/HTS_experiment/out/docking_results/vina_output/3sx0/2439_docked.pdbqt
 OpenBabel03192223223D

 30 34  0  0  1  0  0  0  0  0999 V2000
   20.2310   63.0320  -11.1370 C   0  0  0  0  0  0  0  0  0  0  0  0
   20.8580   63.1370  -12.3910 C   0  0  0  0  0  3  0  0  0  0  0  0
   22.1750   63.2240  -12.2120 N   0  0  0  0  0  0  0  0  0  0  0  0
   23.3480   63.3490  -12.8850 C   0  0  0  0  0  0  0  0  0  0  0  0
   24.3290   63.3800  -11.9530 C   0  0  0  0  0  0  0  0  0  0  0  0
   23.7380   63.2760  -10.7540 N   0  0  0  0  0  0  0  0  0  0  0  0
   22.3980   63.1770  -10.8980 C   0  0  1  0  0  3  0  0  0  0  0  0
   21.2090   63.0580  -10.2200 N   0  0  0  0  0  0  0  0  0  0  0  0
   25.6540   63.5020  -12.3300 C   0  0  0  0  0  3  0  0  0  0  0  0
   26.0040   63.5940  -13.6670 C   0  0  0  0  0  3  0  0  0  0  0  0
   24.9980   63.5610  -14.6230 C   0  0  0  0  0  3  0  0  0  0  0  0
   23.6890   63.4390  -14.2120 C   0  0  0  0  0  3  0  0  0  0  0  0
   24.2360   63.2800   -9.8250 H   0  0  0  0  0  0  0  0  0  0  0  0
   21.1070   63.0050   -8.8000 C   0  0  0  0  0  3  0  0  0  0  0  0
   20.8980   64.3300   -8.1120 C   0  0  0  0  0  3  0  0  0  0  0  0
   21.1340   64.3760   -6.6690 C   0  0  0  0  0  2  0  0  0  0  0  0
   22.2570   65.1030   -6.1550 N   0  0  0  0  0  4  0  0  0  0  0  0
   22.7860   64.5200   -4.9360 C   0  0  0  0  0  3  0  0  0  0  0  0
   23.8060   63.4750   -5.1020 C   0  0  0  0  0  3  0  0  0  0  0  0
   24.3800   63.3110   -6.4600 C   0  0  0  0  0  2  0  0  0  0  0  0
   24.4620   64.6150   -7.1720 C   0  0  0  0  0  3  0  0  0  0  0  0
   23.2410   65.4550   -7.1160 C   0  0  0  0  0  3  0  0  0  0  0  0
   21.8480   65.9990   -5.8060 H   0  0  0  0  0  0  0  0  0  0  0  0
   18.7720   62.9410  -11.0090 C   0  0  0  0  0  0  0  0  0  0  0  0
   18.0100   64.0630  -11.3300 C   0  0  0  0  0  3  0  0  0  0  0  0
   16.6310   64.0980  -11.2620 C   0  0  0  0  0  3  0  0  0  0  0  0
   15.9350   62.9950  -10.8630 C   0  0  0  0  0  0  0  0  0  0  0  0
   14.0420   62.9930  -10.7520 Br  0  0  0  0  0  0  0  0  0  0  0  0
   16.6540   61.8770  -10.5410 C   0  0  0  0  0  3  0  0  0  0  0  0
   18.0680   61.8480  -10.6120 C   0  0  0  0  0  3  0  0  0  0  0  0
  1 24  1  0  0  0  0
  1  8  1  0  0  0  0
  2  3  1  0  0  0  0
  2  1  2  0  0  0  0
  4  3  1  0  0  0  0
  4  5  1  0  0  0  0
  5  6  1  0  0  0  0
  6 13  1  0  0  0  0
  7  3  1  1  0  0  0
  7  6  1  0  0  0  0
  7  8  1  0  0  0  0
  8 14  1  0  0  0  0
  9  5  2  0  0  0  0
 10  9  1  0  0  0  0
 11 12  1  0  0  0  0
 11 10  2  0  0  0  0
 12  4  2  0  0  0  0
 14 15  2  0  0  0  0
 15 16  1  0  0  0  0
 16 17  1  0  0  0  0
 17 23  1  0  0  0  0
 17 18  1  0  0  0  0
 19 18  2  0  0  0  0
 20 19  1  0  0  0  0
 21 22  2  0  0  0  0
 21 20  1  0  0  0  0
 22 17  1  0  0  0  0
 24 30  1  0  0  0  0
 25 26  1  0  0  0  0
 25 24  2  0  0  0  0
 26 27  2  0  0  0  0
 27 28  1  0  0  0  0
 27 29  1  0  0  0  0
 30 29  2  0  0  0  0
M  END
>  <Pose>
1

>  <Score>
-8.807

$$$$
