MODEL 1
REMARK VINA RESULT:    -7.136      0.000      0.000
REMARK INTER + INTRA:         -10.260
REMARK INTER:                  -9.639
REMARK INTRA:                  -0.621
REMARK UNBOUND:                -0.621
REMARK  6 active torsions:
REMARK  status: ('A' for Active; 'I' for Inactive)
REMARK    1  A    between atoms: C_10  and  C_22 
REMARK    2  A    between atoms: N_15  and  C_18 
REMARK    3  A    between atoms: C_18  and  C_19 
REMARK    4  A    between atoms: C_19  and  C_20 
REMARK    5  A    between atoms: C_22  and  C_23 
REMARK    6  A    between atoms: C_23  and  C_24 
REMARK       I    between atoms: C_24  and  N_26 
ROOT
ATOM      1 Cl   UNK d   1      15.843  64.499  -9.769  0.00  0.00    -0.082 Cl
ATOM      2  C   UNK d   1      17.111  63.323 -10.098  0.00  0.00     0.061 A 
ATOM      3  C   UNK d   1      18.439  63.758  -9.969  0.00  0.00     0.066 A 
ATOM      4  C   UNK d   1      19.420  62.840 -10.225  0.00  0.00     0.008 A 
ATOM      5  C   UNK d   1      19.111  61.516 -10.602  0.00  0.00     0.012 A 
ATOM      6  C   UNK d   1      17.809  61.103 -10.725  0.00  0.00     0.002 A 
ATOM      7  C   UNK d   1      16.824  62.031 -10.465  0.00  0.00     0.026 A 
ATOM      8  C   UNK d   1      20.717  63.499 -10.020  0.00  0.00     0.151 A 
ATOM      9  N   UNK d   1      21.621  63.380 -11.107  0.00  0.00    -0.395 N 
ATOM     10  C   UNK d   1      22.950  63.411 -10.679  0.00  0.00     0.092 C 
ATOM     11  C   UNK d   1      22.891  63.118  -9.196  0.00  0.00     0.117 C 
ATOM     12  C   UNK d   1      21.461  62.869  -8.844  0.00  0.00     0.135 C 
ATOM     13  C   UNK d   1      21.184  63.570  -7.563  0.00  0.00     0.234 C 
ATOM     14  O   UNK d   1      20.104  63.479  -6.934  0.00  0.00    -0.272 OA
ATOM     15  N   UNK d   1      22.344  64.328  -7.218  0.00  0.00    -0.288 N 
ATOM     16  C   UNK d   1      23.211  64.297  -8.361  0.00  0.00     0.233 C 
ATOM     17  O   UNK d   1      24.091  65.141  -8.597  0.00  0.00    -0.272 OA
ATOM     18  C   UNK d   1      20.398  64.885  -9.663  0.00  0.00     0.256 A 
ATOM     19  O   UNK d   1      21.188  65.849  -9.419  0.00  0.00    -0.270 OA
ATOM     20  N   UNK d   1      18.990  65.022  -9.620  0.00  0.00    -0.323 N 
ATOM     21  H   UNK d   1      21.375  63.906 -11.962  0.00  0.00     0.155 HD
ATOM     22  H   UNK d   1      18.420  65.867  -9.383  0.00  0.00     0.169 HD
ENDROOT
BRANCH  10  23
ATOM     23  C   UNK d   1      23.961  62.603 -11.395  0.00  0.00     0.035 C 
BRANCH  23  24
ATOM     24  C   UNK d   1      25.042  63.307 -12.113  0.00  0.00     0.104 C 
BRANCH  24  25
ATOM     25  C   UNK d   1      24.873  63.520 -13.554  0.00  0.00     0.215 C 
ATOM     26  O   UNK d   1      25.832  63.367 -14.334  0.00  0.00    -0.274 OA
ATOM     27  N   UNK d   1      23.631  63.904 -14.139  0.00  0.00    -0.370 N 
ATOM     28  H   UNK d   1      22.801  63.287 -14.174  0.00  0.00     0.159 HD
ATOM     29  H   UNK d   1      23.550  64.849 -14.551  0.00  0.00     0.159 HD
ENDBRANCH  24  25
ENDBRANCH  23  24
ENDBRANCH  10  23
BRANCH  15  30
ATOM     30  C   UNK d   1      22.627  64.996  -5.985  0.00  0.00     0.135 C 
BRANCH  30  31
ATOM     31  C   UNK d   1      23.351  64.198  -4.961  0.00  0.00     0.020 C 
BRANCH  31  32
ATOM     32  C   UNK d   1      24.450  63.324  -5.452  0.00  0.00    -0.003 C 
ATOM     33  C   UNK d   1      24.996  62.426  -4.348  0.00  0.00     0.005 C 
ENDBRANCH  31  32
ENDBRANCH  30  31
ENDBRANCH  15  30
TORSDOF 6
ENDMDL
